#------------------------------------------------------------------------------
#$Date: 2016-02-04 02:56:57 +0200 (Thu, 04 Feb 2016) $
#$Revision: 175618 $
#$URL: svn://www.crystallography.net/cod/cif/4/34/47/4344756.cif $
#------------------------------------------------------------------------------
#
# This file is available in the Crystallography Open Database (COD),
# http://www.crystallography.net/
#
# All data on this site have been placed in the public domain by the
# contributors.
#
data_4344756
loop_
_publ_author_name
'Zeng, Guang'
'Xing, Shanghua'
'Wang, Xiuru'
'Yang, Yulin'
'Ma, Dingxuan'
'Liang, Hongwei'
'Gao, Lu'
'Hua, Jia'
'Li, Guanghua'
'Shi, Zhan'
'Feng, Shouhua'
_publ_section_title
;
 3d-4f Metal-Organic Framework with Dual Luminescent Centers That
 Efficiently Discriminates the Isomer and Homologues of Small Organic
 Molecules.
;
_journal_issue                   3
_journal_name_full               'Inorganic chemistry'
_journal_page_first              1089
_journal_page_last               1095
_journal_paper_doi               10.1021/acs.inorgchem.5b02193
_journal_volume                  55
_journal_year                    2016
_chemical_formula_moiety         'C46 H48 Cu4 I4 N3 O13 Tb'
_chemical_formula_sum            'C46 H48 Cu4 I4 N3 O13 Tb'
_chemical_formula_weight         1771.55
_space_group_crystal_system      triclinic
_space_group_IT_number           2
_space_group_name_Hall           '-P 1'
_space_group_name_H-M_alt        'P -1'
_symmetry_space_group_name_Hall  '-P 1'
_symmetry_space_group_name_H-M   'P -1'
_atom_sites_solution_hydrogens   mixed
_audit_creation_method           SHELXL-2014/7
_cell_angle_alpha                104.16(3)
_cell_angle_beta                 100.31(3)
_cell_angle_gamma                97.16(3)
_cell_formula_units_Z            2
_cell_length_a                   9.6050(19)
_cell_length_b                   16.769(3)
_cell_length_c                   21.155(4)
_cell_measurement_temperature    293(2)
_cell_volume                     3199.4(13)
_computing_structure_refinement  'SHELXL-2014/7 (Sheldrick, 2014)'
_diffrn_ambient_temperature      293(2)
_diffrn_measured_fraction_theta_full 0.997
_diffrn_measured_fraction_theta_max 0.990
_diffrn_measurement_device_type  'Rigaku RAXIS-RAPID'
_diffrn_radiation_type           MoK\a
_diffrn_radiation_wavelength     0.71073
_diffrn_reflns_av_R_equivalents  0.0467
_diffrn_reflns_av_unetI/netI     0.0634
_diffrn_reflns_laue_measured_fraction_full 0.997
_diffrn_reflns_laue_measured_fraction_max 0.990
_diffrn_reflns_limit_h_max       12
_diffrn_reflns_limit_h_min       -12
_diffrn_reflns_limit_k_max       21
_diffrn_reflns_limit_k_min       -19
_diffrn_reflns_limit_l_max       27
_diffrn_reflns_limit_l_min       -27
_diffrn_reflns_number            31683
_diffrn_reflns_point_group_measured_fraction_full 0.997
_diffrn_reflns_point_group_measured_fraction_max 0.990
_diffrn_reflns_theta_full        25.242
_diffrn_reflns_theta_max         27.433
_diffrn_reflns_theta_min         2.988
_exptl_absorpt_coefficient_mu    4.381
_exptl_absorpt_correction_T_max  0.4587
_exptl_absorpt_correction_T_min  0.3701
_exptl_absorpt_correction_type   empirical
_exptl_absorpt_process_details   Process-auto
_exptl_crystal_colour            colourless
_exptl_crystal_density_diffrn    1.839
_exptl_crystal_description       block
_exptl_crystal_F_000             1684
_exptl_crystal_size_max          0.27
_exptl_crystal_size_mid          0.24
_exptl_crystal_size_min          0.21
_refine_diff_density_max         1.656
_refine_diff_density_min         -1.161
_refine_diff_density_rms         0.174
_refine_ls_extinction_method     none
_refine_ls_goodness_of_fit_ref   1.023
_refine_ls_hydrogen_treatment    mixed
_refine_ls_matrix_type           full
_refine_ls_number_parameters     613
_refine_ls_number_reflns         14456
_refine_ls_number_restraints     244
_refine_ls_restrained_S_all      1.025
_refine_ls_R_factor_all          0.0794
_refine_ls_R_factor_gt           0.0513
_refine_ls_shift/su_max          0.001
_refine_ls_shift/su_mean         0.000
_refine_ls_structure_factor_coef Fsqd
_refine_ls_weighting_details
'w=1/[\s^2^(Fo^2^)+(0.0765P)^2^+8.3258P] where P=(Fo^2^+2Fc^2^)/3'
_refine_ls_weighting_scheme      calc
_refine_ls_wR_factor_gt          0.1354
_refine_ls_wR_factor_ref         0.1504
_reflns_Friedel_coverage         0.000
_reflns_number_gt                10454
_reflns_number_total             14456
_reflns_threshold_expression     'I > 2\s(I)'
_cod_data_source_file            ic5b02193_si_005.cif
_cod_data_source_block           sad
_cod_original_cell_volume        3199.5(12)
_cod_database_code               4344756
_shelx_shelxl_version_number     2014/7
_shelx_space_group_comment
;
The symmetry employed for this shelxl refinement is uniquely defined
by the following loop, which should always be used as a source of
symmetry information in preference to the above space-group names.
They are only intended as comments.
;
_shelx_res_file
;

    sad.res created by SHELXL-2014/7


TITL sad in P-1
CELL 0.71073   9.6050  16.7692  21.1546 104.156 100.307  97.160
ZERR    2.00   0.0019   0.0034   0.0042   0.030   0.030   0.030
LATT  1
SFAC C H N O CU I TB
UNIT 92 96 6 26 8 8 2

L.S. 15
BOND $h
acta
htab
HTAB O7 O2
EQIV $1 -x, -y+1, -z
HTAB O7 O8_$1
HTAB O7 O12
EQIV $2 x-1, y, z-1
HTAB O8 O13_$2
dfix 1.45 0.02 o9 c37 c37 c38 c38 o10 o10 c39 c39 c40 c40 o9
isor 0.001 0.001 c35 c36 c37 c38 c39 c40 o9 o10
eadp o9 o10 c37 c38 c39 c40
eadp o11 o12 c41 c42 c43 c44
eadp o13 o14 c45 c46 c47 c48
eadp o15 o16 c49 c50 c51 c52
isor 0.001 0.001 o11 o12 o13 o14 o15 o16
isor 0.001 0.001 c41 c42 c43 c44 c45 c46 c47 c48 c49 c50 c51 c52
dfix 0.95 0.02 o7 h7a o7 h7b o8 h8a o8 h8b
dfix 1.60 0.02 h7a h7b h8a h8b
dfix 3.30 0.02 Tb1 h7a Tb1 h7b Tb1 h8a Tb1 h8b
FMAP 2
PLAN -20

WGHT    0.076500    8.325802
FVAR       0.17439
TB1   7    0.276835    0.512302   -0.002901    11.00000    0.01652    0.04556 =
         0.01916    0.00727    0.00399    0.00868
I1    6    0.761604    0.989203    0.499963    11.00000    0.03598    0.05071 =
         0.05577    0.02377    0.01180    0.01101
I2    6    0.990705    0.779921    0.471069    11.00000    0.04655    0.04819 =
         0.04261    0.00450    0.01962    0.01058
I3    6    1.089177    0.977682    0.674723    11.00000    0.04229    0.06603 =
         0.04238    0.00301    0.00310   -0.00016
I4    6    0.694978    0.789416    0.612928    11.00000    0.04707    0.05958 =
         0.05380    0.01933    0.02399    0.00412
CU1   5    1.014030    0.942453    0.540444    11.00000    0.04696    0.05582 =
         0.05384    0.01788    0.01420    0.00757
CU2   5    0.755210    0.826917    0.501694    11.00000    0.03887    0.05992 =
         0.04247    0.00167    0.00031    0.00011
CU3   5    0.820349    0.944944    0.622426    11.00000    0.04812    0.06716 =
         0.07389   -0.01096    0.01881    0.01730
CU4   5    0.961954    0.817703    0.599786    11.00000    0.04765    0.06520 =
         0.05555    0.03248    0.01102    0.02341
O1    4    0.169575    0.540440    0.088750    11.00000    0.02467    0.06892 =
         0.03073    0.01109    0.01144    0.00966
O2    4   -0.060692    0.483004    0.069267    11.00000    0.02760    0.06274 =
         0.03056    0.01376    0.00472    0.01384
O3    4    0.551573    1.377908    0.928206    11.00000    0.03047    0.04616 =
         0.03617   -0.00319    0.00334    0.00961
O4    4    0.330929    1.409950    0.913017    11.00000    0.03334    0.05019 =
         0.03937   -0.00102    0.00988    0.01428
O5    4    1.359178    0.583452    0.923446    11.00000    0.02671    0.05449 =
         0.03927    0.02152    0.00943    0.01371
O6    4    1.578146    0.552239    0.940616    11.00000    0.03509    0.06009 =
         0.03744    0.02155    0.00385    0.01755
O7    4    0.115885    0.381658   -0.013903    11.00000    0.04337    0.04166 =
         0.09964    0.01515    0.03559    0.00581
O8    4    0.205393    0.662664    0.015470    11.00000    0.08141    0.09413 =
         0.10565    0.02671    0.02435    0.02173
N1    3    0.577372    0.760823    0.432553    11.00000    0.03677    0.05615 =
         0.03131    0.00338    0.00243   -0.00037
N2    3    0.710593    1.026556    0.669707    11.00000    0.04574    0.05390 =
         0.05280   -0.00757    0.02252    0.01111
N3    3    1.099190    0.753079    0.642654    11.00000    0.04490    0.07086 =
         0.04744    0.03691    0.01448    0.02429
C1    1    0.450084    0.783559    0.434649    11.00000    0.04175    0.05907 =
         0.04255   -0.01392    0.00458    0.00574
AFIX  43
H1    2    0.445958    0.831516    0.466989    11.00000   -1.20000
AFIX   0
C2    1    0.325594    0.740189    0.391861    11.00000    0.03672    0.06139 =
         0.04170   -0.00864    0.00779    0.00931
AFIX  43
H2    2    0.239213    0.758038    0.396586    11.00000   -1.20000
AFIX   0
C3    1    0.325820    0.670232    0.341666    11.00000    0.02730    0.05424 =
         0.02995    0.00466    0.00940   -0.00088
C4    1    0.459293    0.647609    0.338481    11.00000    0.03832    0.04782 =
         0.03698    0.00076    0.00078    0.00796
AFIX  43
H4    2    0.467211    0.601290    0.305483    11.00000   -1.20000
AFIX   0
C5    1    0.580153    0.694375    0.384654    11.00000    0.03386    0.05679 =
         0.04647    0.00783    0.00388    0.00264
AFIX  43
H5    2    0.668342    0.678016    0.381739    11.00000   -1.20000
AFIX   0
C6    1    0.191782    0.621003    0.293986    11.00000    0.02866    0.04342 =
         0.03171    0.00561    0.00783    0.00144
C7    1    0.187681    0.594204    0.226273    11.00000    0.02521    0.04338 =
         0.02965    0.00122    0.00835    0.00551
AFIX  43
H7    2    0.269650    0.606686    0.210374    11.00000   -1.20000
AFIX   0
C8    1    0.061069    0.548401    0.181414    11.00000    0.02423    0.03794 =
         0.02314    0.00964    0.00812    0.01199
C9    1   -0.061545    0.528969    0.205811    11.00000    0.02751    0.04490 =
         0.03219    0.01011    0.00997    0.00495
AFIX  43
H9    2   -0.145405    0.497765    0.176477    11.00000   -1.20000
AFIX   0
C10   1   -0.058286    0.555701    0.272512    11.00000    0.03379    0.05564 =
         0.03950    0.01012    0.01922    0.00121
AFIX  43
H10   2   -0.139983    0.542596    0.288416    11.00000   -1.20000
AFIX   0
C11   1    0.067028    0.602600    0.316963    11.00000    0.04472    0.05543 =
         0.02774    0.00685    0.01377    0.00758
AFIX  43
H11   2    0.067577    0.621742    0.362160    11.00000   -1.20000
AFIX   0
C12   1    0.056733    0.522371    0.107931    11.00000    0.02227    0.04862 =
         0.02049    0.01281    0.00061    0.01418
C13   1    0.767326    1.101701    0.712764    11.00000    0.04137    0.06398 =
         0.04924    0.00329    0.01037    0.00541
AFIX  43
H13   2    0.866874    1.116366    0.725949    11.00000   -1.20000
AFIX   0
C14   1    0.684862    1.158331    0.738444    11.00000    0.04395    0.04395 =
         0.05491   -0.00920    0.01450    0.00367
AFIX  43
H14   2    0.729372    1.209223    0.768713    11.00000   -1.20000
AFIX   0
C15   1    0.534726    1.139372    0.719073    11.00000    0.04550    0.03876 =
         0.02947    0.00014    0.01581    0.00673
C16   1    0.479005    1.061015    0.673808    11.00000    0.04381    0.05654 =
         0.07320   -0.01150    0.01902    0.00739
AFIX  43
H16   2    0.380065    1.045605    0.657907    11.00000   -1.20000
AFIX   0
C17   1    0.566524    1.006340    0.652279    11.00000    0.04537    0.05634 =
         0.07635   -0.02434    0.02200    0.00085
AFIX  43
H17   2    0.524689    0.953388    0.624635    11.00000   -1.20000
AFIX   0
C18   1    0.438955    1.196650    0.743256    11.00000    0.04029    0.03451 =
         0.03521    0.00065    0.00826    0.00530
C19   1    0.477596    1.255301    0.804570    11.00000    0.03076    0.03999 =
         0.03274    0.00559    0.00713    0.00920
AFIX  43
H19   2    0.569157    1.261462    0.830688    11.00000   -1.20000
AFIX   0
C20   1    0.382104    1.305927    0.828522    11.00000    0.03449    0.03510 =
         0.02900    0.00726    0.00564    0.00937
C21   1    0.246736    1.297545    0.789891    11.00000    0.03700    0.04557 =
         0.03779    0.00533    0.00397    0.01355
AFIX  43
H21   2    0.182472    1.330565    0.805465    11.00000   -1.20000
AFIX   0
C22   1    0.205797    1.238509    0.726417    11.00000    0.04965    0.05134 =
         0.03695   -0.00120   -0.00523    0.01413
AFIX  43
H22   2    0.114952    1.233358    0.699959    11.00000   -1.20000
AFIX   0
C23   1    0.299402    1.188937    0.703798    11.00000    0.04642    0.03618 =
         0.03802   -0.00354    0.00056    0.00634
AFIX  43
H23   2    0.271295    1.149871    0.662216    11.00000   -1.20000
AFIX   0
C24   1    0.424902    1.368872    0.895012    11.00000    0.03267    0.03569 =
         0.02881    0.00535    0.01171    0.01015
C25   1    1.234405    0.769889    0.642381    11.00000    0.06587    0.11520 =
         0.11067    0.09131    0.03816    0.04087
AFIX  43
H25   2    1.263093    0.807413    0.619320    11.00000   -1.20000
AFIX   0
C26   1    1.339334    0.734163    0.675206    11.00000    0.04274    0.13271 =
         0.11666    0.09726    0.03850    0.04172
AFIX  43
H26   2    1.435009    0.747647    0.673142    11.00000   -1.20000
AFIX   0
C27   1    1.302012    0.680266    0.709795    11.00000    0.04483    0.06168 =
         0.03929    0.02679    0.01255    0.02342
C28   1    1.159071    0.662972    0.709695    11.00000    0.04925    0.06492 =
         0.06283    0.04460    0.01491    0.00950
AFIX  43
H28   2    1.127487    0.625467    0.732203    11.00000   -1.20000
AFIX   0
C29   1    1.060725    0.700814    0.676356    11.00000    0.04132    0.06985 =
         0.05740    0.02525    0.01036    0.01135
AFIX  43
H29   2    0.964381    0.688869    0.677859    11.00000   -1.20000
AFIX   0
C30   1    1.412200    0.643667    0.747300    11.00000    0.03869    0.05795 =
         0.04557    0.02771    0.01348    0.01991
C31   1    1.395775    0.627439    0.807975    11.00000    0.03039    0.05383 =
         0.03624    0.01871    0.00989    0.01170
AFIX  43
H31   2    1.314502    0.638636    0.824284    11.00000   -1.20000
AFIX   0
C32   1    1.499485    0.594854    0.843936    11.00000    0.02626    0.03962 =
         0.03943    0.01655    0.00834    0.00813
C33   1    1.620505    0.578277    0.819507    11.00000    0.04410    0.06842 =
         0.05388    0.02832    0.02745    0.03436
AFIX  43
H33   2    1.691067    0.557169    0.843403    11.00000   -1.20000
AFIX   0
C34   1    1.636214    0.593508    0.758396    11.00000    0.05066    0.10825 =
         0.06795    0.05748    0.04384    0.04483
AFIX  43
H34   2    1.717158    0.582113    0.741865    11.00000   -1.20000
AFIX   0
C35   1    1.532633    0.625139    0.722957    11.00000    0.05904    0.05971 =
         0.05874    0.01687    0.01341    0.01117
AFIX  43
H35   2    1.543443    0.634182    0.682312    11.00000   -1.20000
AFIX   0
C36   1    1.477225    0.575138    0.907013    11.00000    0.03222    0.03280 =
         0.03207    0.00904    0.00632    0.00573
H7A   2    0.032513    0.369232    0.009039    11.00000   -1.20000
H7B   2    0.106416    0.321999   -0.044219    11.00000   -1.20000
H8A   2    0.229731    0.704326    0.059548    11.00000   -1.20000
H8B   2    0.205182    0.694737   -0.018333    11.00000   -1.20000
O9    4    1.159150    0.466822    0.440702    11.00000    0.15037    0.15031 =
         0.15002    0.04118    0.03252    0.02620
C37   1    1.289021    0.510711    0.438287    11.00000    0.15037    0.15031 =
         0.15002    0.04118    0.03252    0.02620
AFIX  23
H37A  2    1.278257    0.531827    0.399217    11.00000   -1.20000
H37B  2    1.360588    0.474690    0.435944    11.00000   -1.20000
AFIX   0
C38   1    1.332508    0.578927    0.498289    11.00000    0.15037    0.15031 =
         0.15002    0.04118    0.03252    0.02620
AFIX  23
H38A  2    1.420634    0.613178    0.497070    11.00000   -1.20000
H38B  2    1.258852    0.613545    0.500677    11.00000   -1.20000
AFIX   0
O10   4    1.354790    0.548896    0.555484    11.00000    0.15037    0.15031 =
         0.15002    0.04118    0.03252    0.02620
C39   1    1.230882    0.497880    0.556509    11.00000    0.15037    0.15031 =
         0.15002    0.04118    0.03252    0.02620
AFIX  23
H39A  2    1.155614    0.530667    0.562898    11.00000   -1.20000
H39B  2    1.249008    0.472937    0.593327    11.00000   -1.20000
AFIX   0
C40   1    1.186057    0.434039    0.495051    11.00000    0.15037    0.15031 =
         0.15002    0.04118    0.03252    0.02620
AFIX  23
H40A  2    1.260244    0.400143    0.489964    11.00000   -1.20000
H40B  2    1.099513    0.398148    0.496009    11.00000   -1.20000
AFIX   0
same o9 > c40
O11   4    0.284087    0.078282   -0.073476    10.50000    0.09515    0.09489 =
         0.09514    0.02588    0.02054    0.01698
C41   1    0.366143    0.150049   -0.035326    10.50000    0.09515    0.09489 =
         0.09514    0.02588    0.02054    0.01698
AFIX  23
H41A  2    0.435851    0.167670   -0.059388    10.50000   -1.20000
H41B  2    0.419031    0.139841    0.004639    10.50000   -1.20000
AFIX   0
C42   1    0.293439    0.214512   -0.016407    10.50000    0.09515    0.09489 =
         0.09514    0.02588    0.02054    0.01698
AFIX  23
H42A  2    0.262718    0.208962    0.023800    10.50000   -1.20000
H42B  2    0.362932    0.265955   -0.003745    10.50000   -1.20000
AFIX   0
O12   4    0.178882    0.225374   -0.057745    10.50000    0.09515    0.09489 =
         0.09514    0.02588    0.02054    0.01698
C43   1    0.107175    0.155229   -0.104353    10.50000    0.09515    0.09489 =
         0.09514    0.02588    0.02054    0.01698
AFIX  23
H43A  2    0.082471    0.169122   -0.146387    10.50000   -1.20000
H43B  2    0.017679    0.138646   -0.091999    10.50000   -1.20000
AFIX   0
C44   1    0.173645    0.087956   -0.115204    10.50000    0.09515    0.09489 =
         0.09514    0.02588    0.02054    0.01698
AFIX  23
H44A  2    0.100000    0.039399   -0.122808    10.50000   -1.20000
H44B  2    0.203235    0.084070   -0.157199    10.50000   -1.20000
AFIX   0
same o9 > c40
O13   4    1.148050    0.727364    0.895858    10.50000    0.12918    0.12914 =
         0.12935    0.03538    0.02809    0.02293
C45   1    1.218984    0.806013    0.916612    10.50000    0.12918    0.12914 =
         0.12935    0.03538    0.02809    0.02293
AFIX  23
H45A  2    1.316487    0.807425    0.909943    10.50000   -1.20000
H45B  2    1.223584    0.828459    0.963918    10.50000   -1.20000
AFIX   0
C46   1    1.148356    0.854552    0.880665    10.50000    0.12918    0.12914 =
         0.12935    0.03538    0.02809    0.02293
AFIX  23
H46A  2    1.198792    0.911937    0.896359    10.50000   -1.20000
H46B  2    1.148972    0.833919    0.833710    10.50000   -1.20000
AFIX   0
O14   4    1.007653    0.851743    0.888343    10.50000    0.12918    0.12914 =
         0.12935    0.03538    0.02809    0.02293
C47   1    0.940184    0.772103    0.856730    10.50000    0.12918    0.12914 =
         0.12935    0.03538    0.02809    0.02293
AFIX  23
H47A  2    0.939047    0.760812    0.809410    10.50000   -1.20000
H47B  2    0.841364    0.765664    0.861821    10.50000   -1.20000
AFIX   0
C48   1    1.007949    0.715584    0.882210    10.50000    0.12918    0.12914 =
         0.12935    0.03538    0.02809    0.02293
AFIX  23
H48A  2    0.976475    0.713373    0.922932    10.50000   -1.20000
H48B  2    0.973490    0.660961    0.850627    10.50000   -1.20000
AFIX   0
same o9 > c40
O15   4    1.715445    1.022461    0.844888    10.50000    0.17285    0.17276 =
         0.17284    0.04723    0.03768    0.03050
C49   1    1.583175    1.024854    0.857982    10.50000    0.17285    0.17276 =
         0.17284    0.04723    0.03768    0.03050
AFIX  23
H49A  2    1.514164    1.017670    0.816606    10.50000   -1.20000
H49B  2    1.582865    1.079241    0.887286    10.50000   -1.20000
AFIX   0
C50   1    1.540803    0.962946    0.888001    10.50000    0.17285    0.17276 =
         0.17284    0.04723    0.03768    0.03050
AFIX  23
H50A  2    1.613206    0.967674    0.927734    10.50000   -1.20000
H50B  2    1.451474    0.971717    0.901672    10.50000   -1.20000
AFIX   0
O16   4    1.521937    0.884082    0.845795    10.50000    0.17285    0.17276 =
         0.17284    0.04723    0.03768    0.03050
C51   1    1.617984    0.881974    0.807639    10.50000    0.17285    0.17276 =
         0.17284    0.04723    0.03768    0.03050
AFIX  23
H51A  2    1.566448    0.878057    0.762844    10.50000   -1.20000
H51B  2    1.654714    0.830282    0.805552    10.50000   -1.20000
AFIX   0
C52   1    1.733666    0.944539    0.823095    10.50000    0.17285    0.17276 =
         0.17284    0.04723    0.03768    0.03050
AFIX  23
H52A  2    1.806037    0.933817    0.856817    10.50000   -1.20000
H52B  2    1.773131    0.940439    0.783528    10.50000   -1.20000
AFIX   0
HKLF 4

REM  sad in P-1
REM R1 =  0.0513 for   10454 Fo > 4sig(Fo)  and  0.0794 for all   14456 data
REM    613 parameters refined using    244 restraints

END

WGHT      0.0765      8.3393

REM Instructions for potential hydrogen bonds
EQIV $3 x-1, y, z
HTAB C2 I2_$3
HTAB C5 I2
EQIV $4 -x+1, -y+2, -z+1
HTAB C16 I1_$4
HTAB C16 I3_$3
EQIV $5 x+1, y, z
HTAB C26 I4_$5
HTAB O7 O2
HTAB O7 O8_$1
HTAB O7 O12
HTAB O8 O13_$2
EQIV $6 -x+2, -y+1, -z+1
HTAB C40 I2_$6
EQIV $7 x+1, y+1, z+1
HTAB C50 O11_$7
HTAB C52 O14_$5

REM Highest difference peak  1.656,  deepest hole -1.161,  1-sigma level  0.174
Q1    1   0.1432  0.2202 -0.0398  11.00000  0.05    1.66
Q2    1   0.2197  0.2303 -0.0589  11.00000  0.05    1.36
Q3    1   1.4707  0.9595  0.8245  11.00000  0.05    1.24
Q4    1   1.6194  0.8736  0.8472  11.00000  0.05    1.09
Q5    1   0.1499  0.7545 -0.0600  11.00000  0.05    1.09
Q6    1   0.2127  0.2122 -0.0074  11.00000  0.05    0.95
Q7    1   1.5667  0.9241  0.7814  11.00000  0.05    0.92
Q8    1   0.0870  0.8778 -0.0739  11.00000  0.05    0.90
Q9    1   0.1408  0.0708 -0.0830  11.00000  0.05    0.90
Q10   1   0.2528  0.0828 -0.0373  11.00000  0.05    0.88
Q11   1   0.2598  0.0962 -0.1159  11.00000  0.05    0.88
Q12   1   0.1939  0.8517 -0.0380  11.00000  0.05    0.85
Q13   1   1.5730  0.9031  0.8788  11.00000  0.05    0.85
Q14   1   0.0055  0.8362 -0.1583  11.00000  0.05    0.84
Q15   1   0.1948  0.1228 -0.1307  11.00000  0.05    0.82
Q16   1   1.5632  0.6606  0.7390  11.00000  0.05    0.81
Q17   1   1.3921  0.5653  0.4904  11.00000  0.05    0.78
Q18   1  -0.0595  0.7719 -0.0908  11.00000  0.05    0.75
Q19   1   1.3210  0.4622  0.5389  11.00000  0.05    0.75
Q20   1   0.1007  0.0992 -0.0718  11.00000  0.05    0.75
;
_shelx_res_checksum              22137
_shelx_hkl_file
;
   0   0   3  120.07    3.58
   0   0  -3  124.61    3.45
   0   0   4  350.31   14.30
   0   0  -4  363.93    9.55
   0   0   5  339.31   11.12
   0   0  -5  339.08   17.56
   0   0   6 1876.18   64.76
   0   0  -6 1844.90   63.79
   0   0   7  239.51    9.89
   0   0  -7  230.66    9.82
   0   0   8  839.21   37.12
   0   0  -8  839.15   26.69
   0   0   9   41.38    4.68
   0   0  -9   45.80    4.84
   0   0  10 1690.07   59.81
   0   0 -10 1626.15   72.96
   0   0  11   86.39    6.51
   0   0 -11   88.13    6.56
   0   0  12  532.90   19.63
   0   0 -12  533.85   19.82
   0   0  13  508.53   29.64
   0   0 -13  526.00   20.69
   0   0  14   -1.08    4.31
   0   0 -14   -0.25    3.84
   0   0 -14    4.86    7.48
   0   0  15  476.11   19.67
   0   0 -15  408.90   17.11
   0   0 -15  419.18   19.27
   0   0  16  243.96   14.00
   0   0 -16  252.39   12.30
   0   0 -16  240.78   14.01
   0   0  17   26.75   10.87
   0   0 -17   26.68    5.47
   0   0 -17   20.66    6.40
   0   0  18  487.70   22.94
   0   0 -18  461.52   23.04
   0   0 -18  485.50   19.95
   0   0  19   12.15    5.98
   0   0 -19   13.04    4.95
   0   0 -19   16.22    6.22
   0   0  20   35.07    7.42
   0   0 -20   31.60    5.99
   0   0 -20   33.97    7.50
   0   0  21   81.69   16.94
   0   0 -21   93.75   10.50
   0   0 -21   97.42    8.40
   0   0  22   72.95    9.38
   0   0 -22   81.71    8.05
   0   0 -22   55.00   10.07
   0   0  23    3.19    6.50
   0   0 -23    3.89   11.49
   0   0 -23   17.88    9.40
   0   0  24   83.50   10.51
   0   0 -24   66.82   11.01
   0   0 -24   79.69    9.03
   0   0  25   21.74    7.32
   0   0 -25    4.46    7.78
   0   0 -25    4.50    6.21
   0   1 -26   16.31    6.92
   0   1 -26   30.67    9.01
   0  -1  26    2.11   13.71
   0   1 -25   25.52   11.62
   0   1 -25   25.49    8.94
   0  -1  25   21.98    8.38
   0   1 -24   11.60    6.04
   0   1 -24   12.93   12.82
   0  -1  24   13.70    7.25
   0   1 -23   80.94   11.40
   0   1 -23   79.99    8.73
   0  -1  23   91.84   10.52
   0   1 -22   20.15    7.61
   0   1 -22   22.68    5.86
   0  -1  22    2.16   11.89
   0   1 -21   23.41    6.05
   0   1 -21   38.16    7.69
   0  -1  21   14.77    7.40
   0   1 -20  172.45   12.76
   0   1 -20  158.32   10.68
   0  -1  20  159.77   12.60
   0   1 -19   77.39    7.40
   0   1 -19   63.05    9.15
   0  -1  19   76.91    8.71
   0   1 -18    2.29    4.69
   0   1 -18   -6.51    5.55
   0  -1  18   -1.18    5.10
   0   1 -17  628.36   29.71
   0  -1  17  700.90   30.08
   0   1 -16   16.88    5.87
   0  -1  16    7.74    5.87
   0   1 -15  404.72   29.54
   0  -1  15  433.73   19.58
   0   1 -14  208.45   12.08
   0  -1  14  221.81   11.95
   0   1 -13  233.49   11.90
   0  -1  13  242.06   19.16
   0   1 -12  231.90   11.56
   0  -1  12  269.73   11.84
   0   1 -11 1144.17   54.37
   0  -1  11 1214.01   41.99
   0   1 -10   39.85    5.05
   0  -1  10   35.44    5.16
   0   1  -9 1074.93   35.62
   0  -1   9 1065.23   34.85
   0   1  -8  533.70   18.08
   0  -1   8  563.53   27.84
   0   1  -7 3643.98  190.36
   0  -1   7 3766.87  170.21
   0   1  -6 2178.95   79.81
   0  -1   6 2132.32   78.37
   0   1  -5 4538.50  214.93
   0  -1   5 4598.23  216.74
   0   1  -4  699.42   17.71
   0  -1   4  715.53   18.03
   0   1   3 1312.79   32.16
   0  -1  -3 1277.92   31.38
   0  -1  -3 1362.58   32.63
   0   1   4  484.95   18.30
   0  -1  -4  448.23   11.82
   0  -1  -4  481.92   11.98
   0   1   5   79.44    5.05
   0  -1  -5   81.03    4.80
   0  -1  -5   83.18    5.03
   0   1   6   20.21    3.81
   0  -1  -6   17.87    3.84
   0  -1  -6   17.32    3.53
   0   1   7   35.50    4.44
   0  -1  -7   30.70    3.97
   0  -1  -7   39.37    4.36
   0   1   8  198.34   13.36
   0  -1  -8  216.83    7.70
   0  -1  -8  190.99   13.36
   0   1   9  274.44   10.34
   0  -1  -9  277.58   10.25
   0  -1  -9  284.69    9.74
   0   1  10   53.91    5.32
   0  -1 -10   69.04    5.43
   0  -1 -10   63.02    4.85
   0   1  11 1327.51   46.31
   0  -1 -11 1287.88   45.35
   0  -1 -11 1347.55   43.85
   0   1  12    5.87    6.60
   0  -1 -12    2.66    3.48
   0  -1 -12   -0.11    3.89
   0   1  13  189.98   10.19
   0  -1 -13  195.61    9.41
   0  -1 -13  189.96   16.67
   0   1  14  698.77   26.95
   0  -1 -14  664.97   26.21
   0  -1 -14  689.74   34.50
   0   1  15   -4.62    4.51
   0  -1 -15    3.18    3.75
   0  -1 -15   -1.97    4.56
   0   1  16  135.93    9.75
   0  -1 -16  108.19    9.81
   0  -1 -16  126.45    8.30
   0   1  17  286.49   23.07
   0  -1 -17  276.78   13.22
   0  -1 -17  281.17   23.76
   0   1  18    4.35    4.87
   0  -1 -18    3.31    5.01
   0  -1 -18  -10.40    4.35
   0   1  19  185.21   11.84
   0  -1 -19  149.29   16.04
   0  -1 -19  159.67   11.95
   0   1  20   22.31    6.47
   0  -1 -20   13.93    5.56
   0  -1 -20   27.97    6.70
   0   1  21  129.61   18.12
   0  -1 -21  155.87   10.20
   0  -1 -21  121.84   12.06
   0   1  22    1.38    5.72
   0  -1 -22   -8.63   10.20
   0  -1 -22   -5.33    5.05
   0   1  23  213.75   15.15
   0  -1 -23  220.08   13.57
   0  -1 -23  187.59   15.81
   0   1  24   -3.58    5.97
   0  -1 -24    2.69    6.28
   0  -1 -24    2.64    8.84
   0   1  25   77.39   16.54
   0  -1 -25   59.50   11.06
   0  -1 -25   68.81    8.88
   0   2 -26   -2.37    5.82
   0   2 -26  -10.64    7.51
   0  -2  26   15.27   12.23
   0   2 -25   21.42    6.58
   0   2 -25   16.46    8.65
   0  -2  25   20.36    8.36
   0   2 -24  101.41   12.59
   0  -2  24   92.62   11.67
   0   2 -23    5.32    7.03
   0  -2  23    3.53    6.52
   0   2 -22  216.88   16.70
   0   2 -22  227.95   13.81
   0  -2  22  196.86   25.68
   0   2 -21   11.24    5.43
   0   2 -21    5.70    6.69
   0  -2  21    7.63    6.51
   0   2 -20   29.51    8.16
   0  -2  20   45.70    7.71
   0   2 -19   79.77    9.13
   0  -2  19   60.70    8.81
   0   2 -18  278.95   16.44
   0  -2  18  239.27   24.24
   0   2 -17   62.90    8.28
   0  -2  17   57.22    8.32
   0   2 -16  920.56   55.76
   0  -2  16  936.75   39.25
   0   2 -15   13.19    5.87
   0  -2  15   15.98    5.85
   0   2 -14  692.73   28.05
   0  -2  14  677.76   27.91
   0   2 -13   67.07    7.27
   0  -2  13  107.62   12.13
   0   2 -12  688.12   35.55
   0  -2  12  693.21   25.19
   0   2 -11  294.73   13.07
   0  -2  11  311.31   12.96
   0   2 -10  132.11    8.16
   0  -2  10  146.13    8.12
   0   2  -9  903.57   30.22
   0  -2   9  930.18   30.26
   0   2  -8   25.45    7.75
   0  -2   8   17.36    4.34
   0   2  -7   42.79    5.56
   0  -2   7   53.75    9.57
   0   2  -6 4010.73  184.99
   0  -2   6 4016.35  186.01
   0   2  -5 1321.31   41.96
   0  -2   5 1350.66   41.81
   0   2  -4  331.03   13.85
   0  -2   4  309.54    9.03
   0   2  -3 1154.39   27.89
   0  -2   3 1154.04   27.95
   0   2   1  164.83    3.26
   0  -2  -1  173.09    3.46
   0   2   2 1290.22   28.46
   0   2   2 1340.84   32.42
   0  -2  -2 1348.52   32.76
   0  -2  -2 1398.60   33.38
   0   2   3  208.60    4.97
   0   2   3  201.78    5.74
   0  -2  -3  191.94    4.73
   0  -2  -3  204.41    5.80
   0   2   4 1066.29   34.66
   0   2   4 1124.23   38.25
   0  -2  -4 1075.34   28.63
   0  -2  -4  992.59   26.21
   0   2   5   18.97    3.63
   0   2   5   26.54    3.25
   0  -2  -5   17.19    3.23
   0  -2  -5   19.67    3.33
   0   2   6  276.72    8.69
   0  -2  -6  225.68    8.22
   0  -2  -6  238.55    8.38
   0   2   7  184.01    6.88
   0  -2  -7  142.21    6.55
   0  -2  -7  163.37   10.43
   0  -2  -8    2.38    2.71
   0  -2  -8    1.07    2.88
   0   2   9 1266.04   39.79
   0  -2  -9 1241.12   39.82
   0  -2  -9 1227.63   38.49
   0   2  10   80.02    5.55
   0  -2 -10   87.15    5.55
   0  -2 -10   78.91    5.30
   0   2  11    4.94    3.94
   0  -2 -11   32.32    6.66
   0  -2 -11   12.90    3.57
   0   2  12 1283.74   58.63
   0  -2 -12 1277.46   43.28
   0  -2 -12 1254.57   45.07
   0   2  13   -4.58    3.95
   0  -2 -13    2.88    4.05
   0  -2 -13   -2.46    3.69
   0   2  14  166.90    9.85
   0  -2 -14  165.43   14.74
   0  -2 -14  166.01    9.94
   0   2  15  102.95    8.35
   0  -2 -15  102.38   12.41
   0  -2 -15  107.02    8.49
   0   2  16  160.34   17.00
   0  -2 -16  173.91    9.94
   0  -2 -16  196.54   17.61
   0   2  17    8.26    5.08
   0  -2 -17   15.12    4.77
   0  -2 -17    5.80    5.25
   0   2  18  252.73   13.58
   0  -2 -18  236.31   12.66
   0  -2 -18  248.23   13.96
   0   2  19   24.61    5.90
   0  -2 -19   13.04    6.24
   0  -2 -19   20.60    5.44
   0   2  20   76.41   13.83
   0  -2 -20   61.76    7.55
   0  -2 -20   68.48   14.07
   0   2  21   17.81    5.96
   0  -2 -21    4.56    9.07
   0  -2 -21   11.78    6.43
   0   2  22  209.55   14.99
   0  -2 -22  235.51   15.88
   0  -2 -22  243.10   14.09
   0   2  23    1.60    6.03
   0  -2 -23    3.55    5.46
   0  -2 -23    5.55    6.40
   0   2  24   72.33   17.57
   0  -2 -24   95.64   10.05
   0  -2 -24   84.82   18.51
   0   2  25   26.82    7.71
   0  -2 -25   29.32    7.31
   0  -2 -25   20.34    8.37
   0   3 -26    9.47    8.53
   0  -3  26    9.56    8.08
   0   3 -25   26.90   17.00
   0  -3  25   47.25    9.57
   0   3 -24    7.94    6.90
   0  -3  24   -6.38    6.44
   0   3 -23  254.85   18.89
   0  -3  23  243.08   17.78
   0   3 -22   24.03    7.79
   0  -3  22   14.44   12.85
   0   3 -21  193.76   22.25
   0  -3  21  148.48   13.42
   0   3 -20   22.35    7.40
   0  -3  20   22.27    7.15
   0   3 -19   80.81   10.45
   0  -3  19  103.24    9.93
   0   3 -18   24.16    7.06
   0  -3  18   23.24   11.54
   0   3 -17  196.50   23.39
   0  -3  17  224.18   14.53
   0   3 -16    5.27    6.07
   0  -3  16   19.39    6.09
   0   3 -15  304.01   16.57
   0  -3  15  325.46   16.47
   0   3 -14  132.70    9.96
   0  -3  14  139.07    9.96
   0   3 -13  362.75   15.72
   0  -3  13  377.93   25.09
   0   3 -12    0.87    4.20
   0  -3  12    1.07    4.08
   0   3 -11  645.39   23.99
   0  -3  11  687.37   24.01
   0   3 -10  828.62   28.56
   0  -3  10  830.01   28.94
   0   3  -9  321.87   12.64
   0  -3   9  333.09   12.70
   0   3  -8 1636.91   74.11
   0  -3   8 1651.16   57.80
   0   3  -7   24.60    4.79
   0  -3   7   25.74    4.62
   0   3  -6   56.34    5.62
   0  -3   6   67.75    5.44
   0   3  -5  318.43   11.28
   0  -3   5  325.49   10.90
   0   3  -4 1789.62   67.70
   0  -3   4 1783.17   55.21
   0   3  -3   17.95    2.21
   0  -3   3    4.00    2.09
   0   3  -2 2361.75   70.31
   0  -3   2 2359.88   68.90
   0   3  -1  255.22    4.97
   0  -3   1  271.08    4.57
   0   3   0  453.23    5.51
   0   3   0  471.34    5.55
   0   3   0  447.33    9.16
   0  -3   0  449.24    9.42
   0   3   1  589.61   12.78
   0   3   1  582.84    8.51
   0  -3  -1  600.21   18.13
   0   3   2 1717.03   41.68
   0   3   2 1754.53   50.25
   0  -3  -2 1685.53   40.25
   0  -3  -2 1720.92   50.26
   0   3   3   33.08    3.49
   0   3   3   44.68    3.73
   0  -3  -3   38.94    5.84
   0  -3  -3   35.69    3.52
   0   3   4  126.21    4.35
   0   3   4  138.28    5.84
   0  -3  -4  133.51    4.29
   0  -3  -4  135.62    9.28
   0   3   5 3412.83  135.65
   0   3   5 3528.61  146.22
   0  -3  -5 3566.08  146.82
   0  -3  -5 3404.22  150.42
   0   3   6 1242.04   37.82
   0   3   6 1234.38   43.17
   0  -3  -6 1182.64   42.36
   0  -3  -6 1240.44   36.69
   0   3   7 2702.80  100.36
   0  -3  -7 2782.03  105.55
   0  -3  -7 2709.74  115.03
   0   3   8   97.07    4.80
   0  -3  -8   73.53    4.79
   0  -3  -8   83.35    5.08
   0   3   9  138.42    5.97
   0  -3  -9  113.49    6.07
   0  -3  -9  110.94   10.03
   0   3  10   74.08    5.26
   0  -3 -10   72.29    5.23
   0  -3 -10   80.58    9.04
   0   3  11  437.39   21.92
   0  -3 -11  449.40   15.27
   0  -3 -11  453.82   15.41
   0   3  12    2.93    3.65
   0  -3 -12   -1.09    3.73
   0  -3 -12    6.53    3.75
   0   3  13  363.78   14.51
   0  -3 -13  363.21   14.58
   0  -3 -13  361.05   14.81
   0   3  14   53.54    6.14
   0  -3 -14   55.25   10.19
   0  -3 -14   55.72   10.37
   0   3  15  133.74   13.84
   0  -3 -15  130.93    8.72
   0  -3 -15  137.32   14.38
   0   3  16   32.60    5.63
   0  -3 -16   32.33    9.24
   0  -3 -16   26.29    5.82
   0   3  17  340.20   15.25
   0  -3 -17  312.36   14.47
   0  -3 -17  303.48   15.48
   0   3  18    3.69    4.98
   0  -3 -18    7.23    5.27
   0  -3 -18   11.40    4.93
   0   3  19   50.24   12.36
   0  -3 -19   61.72    7.03
   0  -3 -19   51.49   12.43
   0   3  20  198.04   12.19
   0  -3 -20  156.25   11.65
   0  -3 -20  191.19   12.55
   0   3  21   15.05    6.12
   0  -3 -21   15.53    6.63
   0  -3 -21   21.64    6.00
   0   3  22   58.08    8.23
   0  -3 -22   52.53   13.24
   0  -3 -22   56.13    8.78
   0   3  23   68.84   13.99
   0  -3 -23    5.72   14.77
   0  -3 -23   70.51   13.29
   0   3  24   18.62    6.69
   0  -3 -24    9.06    7.01
   0  -3 -24   11.05    6.50
   0   4 -26   -0.25   16.02
   0  -4  26   28.45    9.04
   0   4 -25   26.57    9.89
   0  -4  25   32.07    9.01
   0   4 -24   40.41    9.49
   0  -4  24   28.60    8.91
   0   4 -23   10.06    7.28
   0  -4  23    2.73    6.68
   0   4 -22  160.87   24.32
   0  -4  22  179.45   23.78
   0   4 -21   -1.84    7.00
   0  -4  21   18.37    6.64
   0   4 -20   87.53   10.32
   0  -4  20   75.15    9.89
   0   4 -19   29.84    7.97
   0  -4  19   46.06    7.56
   0   4 -18  121.98   11.42
   0  -4  18  126.75   18.04
   0   4 -17    1.41   10.79
   0  -4  17   17.14    6.47
   0   4 -16  180.96   13.50
   0  -4  16  210.70   13.43
   0   4 -15  200.35   13.12
   0  -4  15  224.12   13.38
   0   4 -14    7.01    5.28
   0  -4  14   10.98    5.33
   0   4 -13  143.11   16.19
   0  -4  13  161.15   10.20
   0   4 -12  465.20   18.71
   0  -4  12  444.78   26.38
   0   4 -11   28.94    5.08
   0  -4  11   17.99    5.01
   0   4 -10  250.08   11.31
   0  -4  10  255.25   11.32
   0   4  -9  630.32   21.11
   0  -4   9  622.79   21.21
   0   4  -8   87.99    6.44
   0  -4   8   94.08    6.16
   0   4  -7  563.80   19.07
   0  -4   7  561.54   18.23
   0   4  -6   12.87    4.04
   0  -4   6   17.30    3.80
   0   4  -5  590.66   17.73
   0  -4   5  590.24   17.26
   0   4  -4  306.96   14.99
   0  -4   4  328.31    9.50
   0   4  -3   69.91    3.68
   0  -4   3   68.08    3.36
   0   4  -2 1647.68   43.60
   0  -4   2 1710.66   43.32
   0   4  -1  658.52   15.98
   0   4  -1  658.01   11.52
   0  -4   1  698.92   12.79
   0   4   0 4016.41  172.26
   0   4   0 4138.82  151.72
   0   4   0 4401.93  156.55
   0  -4   0 4034.60  173.28
   0   4   1 1378.70   25.90
   0   4   1 1316.97   37.15
   0  -4  -1 1346.30   37.97
   0   4   2 1946.29   74.44
   0   4   2 1968.13   49.75
   0  -4  -2 1995.09   64.13
   0  -4  -2 2000.35   49.28
   0   4   3  699.32   13.69
   0   4   3  719.91   19.55
   0  -4  -3  706.09   15.79
   0  -4  -3  703.88   19.11
   0   4   4   84.48    5.08
   0   4   4   88.22    4.91
   0  -4  -4   90.36    4.84
   0  -4  -4   81.03    2.90
   0   4   5   29.90    4.41
   0   4   5   43.10    3.98
   0  -4  -5   45.02    3.72
   0  -4  -5   43.09    2.56
   0   4   6 3969.09  169.34
   0   4   6 4023.32  182.13
   0  -4  -6 4031.88  181.44
   0  -4  -6 4002.10  185.25
   0   4   7  607.23   15.17
   0   4   7  593.19   18.26
   0  -4  -7  577.47   17.36
   0  -4  -7  565.08   20.49
   0   4   8 1379.76   41.57
   0  -4  -8 1396.36   44.36
   0  -4  -8 1354.36   50.35
   0   4   9    6.23    5.03
   0  -4  -9    5.26    5.16
   0  -4  -9   15.80    3.50
   0   4  10  348.53   11.28
   0  -4 -10  343.91   18.94
   0  -4 -10  341.64   17.19
   0   4  11    6.25    3.47
   0  -4 -11    5.53    3.91
   0  -4 -11    7.40    3.50
   0   4  12  142.11    7.57
   0  -4 -12  122.76    7.62
   0  -4 -12  143.36    8.01
   0   4  13  174.78    8.85
   0  -4 -13  168.60    9.28
   0  -4 -13  150.87    8.75
   0   4  14    1.73    6.75
   0  -4 -14    8.03    4.43
   0  -4 -14    5.33    4.18
   0   4  15  248.98   12.16
   0  -4 -15  257.53   12.32
   0  -4 -15  261.20   12.55
   0   4  16  161.69    9.37
   0  -4 -16  145.66   15.30
   0  -4 -16  144.57    9.89
   0   4  17   -1.44    4.57
   0  -4 -17   16.02    4.80
   0  -4 -17    6.93    8.27
   0   4  18  239.46   18.35
   0  -4 -18  199.42   12.23
   0  -4 -18  220.58   19.49
   0   4  19  148.49    9.56
   0  -4 -19  118.31   10.29
   0  -4 -19  117.10    9.95
   0   4  20   -4.43    4.77
   0  -4 -20    3.90    4.88
   0  -4 -20    3.42    5.04
   0   4  21  263.16   15.21
   0  -4 -21  266.10   15.14
   0  -4 -21  239.56   24.93
   0   4  22    8.41    8.93
   0  -4 -22   -6.44    5.32
   0  -4 -22    0.25    5.58
   0   4  23   42.94    7.72
   0  -4 -23   46.14    8.11
   0  -4 -23   44.19    8.41
   0   4  24   19.94    7.06
   0  -4 -24   21.53    7.67
   0  -4 -24   22.36    7.22
   0   5 -26   14.54   15.33
   0  -5  26   15.13    8.60
   0   5 -25   10.75    8.33
   0  -5  25    8.60    7.78
   0   5 -24   14.54    8.30
   0  -5  24   16.95    7.91
   0   5 -23   55.86   10.49
   0  -5  23   66.34   10.13
   0   5 -22  -13.22   11.38
   0  -5  22    8.54   10.96
   0   5 -21   58.82    9.72
   0  -5  21   46.76    9.08
   0   5 -20   16.44    7.44
   0  -5  20   19.62    7.14
   0   5 -19   50.77    8.97
   0  -5  19   59.27    8.43
   0   5 -18    9.30   10.35
   0  -5  18    2.35    5.93
   0   5 -17  420.35   22.41
   0  -5  17  455.34   35.11
   0   5 -16    8.43    6.17
   0  -5  16   12.20    6.20
   0   5 -15  261.47   15.13
   0  -5  15  259.91   15.30
   0   5 -14   70.31    7.72
   0  -5  14   59.77    7.71
   0   5 -13  134.99   15.71
   0  -5  13  136.92    9.56
   0   5 -12   34.51    5.79
   0  -5  12   33.71    5.59
   0   5 -11 1456.13   53.88
   0  -5  11 1468.37   68.39
   0   5 -10  184.31    9.49
   0  -5  10  204.90   15.35
   0   5  -9 1048.46   35.50
   0  -5   9 1128.48   49.23
   0   5  -8    0.23    5.72
   0  -5   8    0.04    3.21
   0   5  -7 1197.60   38.78
   0  -5   7 1210.88   49.45
   0   5  -6  159.03    7.56
   0  -5   6  156.53   11.28
   0   5  -5 1982.04   68.03
   0  -5   5 2059.45   67.76
   0   5  -4  167.08    6.16
   0  -5   4  160.06    5.56
   0   5  -3   75.19    3.58
   0  -5   3   83.05    3.09
   0   5  -2   52.96    3.98
   0  -5   2   50.50    1.90
   0   5  -1 2396.91   95.51
   0   5  -1 2464.62   70.65
   0   5   0 2692.21   99.07
   0   5   0 2772.96   76.46
   0   5   0 2891.10   81.86
   0  -5   0 2622.59   97.01
   0   5   1 4878.82  232.83
   0  -5  -1 4813.55  230.66
   0   5   2  634.87   17.74
   0   5   2  657.76   10.83
   0  -5  -2  645.88   17.80
   0  -5  -2  644.88    9.94
   0   5   3 1082.10   40.49
   0   5   3 1110.90   25.52
   0  -5  -3 1089.58   31.38
   0  -5  -3 1093.90   23.82
   0   5   4  377.95   16.68
   0   5   4  376.89    6.91
   0  -5  -4  379.17   11.12
   0  -5  -4  363.50    6.53
   0   5   5  504.54   21.01
   0   5   5  472.92    9.90
   0  -5  -5  490.79   14.07
   0  -5  -5  476.69    9.84
   0   5   6   23.42    3.78
   0   5   6   22.37    3.62
   0  -5  -6   18.40    3.72
   0  -5  -6   22.76    3.56
   0   5   7 1324.18   42.86
   0   5   7 1257.99   40.70
   0  -5  -7 1274.95   40.35
   0  -5  -7 1262.34   42.29
   0   5   8   42.26    3.06
   0   5   8   49.15    4.78
   0  -5  -8   41.15    3.29
   0  -5  -8   36.37    4.42
   0   5   9  972.42   27.80
   0  -5  -9  972.95   31.40
   0  -5  -9  965.99   28.16
   0   5  10    1.91    2.85
   0  -5 -10    4.88    2.91
   0  -5 -10   -1.81    6.14
   0   5  11  536.27   16.41
   0  -5 -11  467.98   16.36
   0  -5 -11  512.05   18.64
   0   5  12   -3.98    5.72
   0  -5 -12    2.48    5.63
   0  -5 -12    5.16    4.14
   0   5  13   16.57    4.14
   0  -5 -13    7.03    6.98
   0  -5 -13   19.68    4.81
   0   5  14  548.78   19.37
   0  -5 -14  495.73   19.05
   0  -5 -14  543.90   21.75
   0   5  15    6.76    3.69
   0  -5 -15   -3.17    4.38
   0  -5 -15   -4.10    3.76
   0   5  16  152.44   14.51
   0  -5 -16  169.26   10.33
   0  -5 -16  149.03    9.48
   0   5  17  190.78   15.44
   0  -5 -17  169.95   11.22
   0  -5 -17  169.40   10.44
   0   5  18    8.69    4.70
   0  -5 -18   10.39    5.15
   0  -5 -18    9.32    5.29
   0   5  19  160.69   10.32
   0  -5 -19  147.47   17.06
   0  -5 -19  155.62   11.13
   0   5  20   52.05    7.19
   0  -5 -20   59.20   13.13
   0  -5 -20   55.42    7.51
   0   5  21   17.90    9.67
   0  -5 -21    6.69   10.63
   0  -5 -21   19.24    6.19
   0   5  22   44.70    7.12
   0  -5 -22   44.89    7.78
   0  -5 -22   43.28    7.93
   0   5  23   31.16    7.27
   0  -5 -23   33.69    7.85
   0  -5 -23   32.01    7.96
   0   6 -26   19.55    9.25
   0  -6  26    6.54    8.42
   0   6 -25   20.25    9.26
   0  -6  25   17.86    8.64
   0   6 -24   15.83    9.18
   0  -6  24   35.37    8.51
   0   6 -23    3.51    7.56
   0  -6  23   10.56    7.04
   0   6 -22   75.73   18.35
   0  -6  22   68.68   17.84
   0   6 -21   10.52    6.29
   0  -6  21   -9.61    6.03
   0   6 -20   86.61   10.19
   0  -6  20   62.71   10.07
   0   6 -19   15.22    6.70
   0  -6  19    8.02    6.39
   0   6 -18  284.12   28.68
   0  -6  18  315.14   17.93
   0   6 -17  159.88   12.87
   0  -6  17  165.83   20.30
   0   6 -16  972.46   43.34
   0  -6  16 1005.44   62.27
   0   6 -15  118.88   10.83
   0  -6  15  135.84   10.92
   0   6 -14  492.52   22.31
   0  -6  14  532.94   23.14
   0   6 -13   28.32    9.93
   0  -6  13   22.44    5.79
   0   6 -12  861.18   32.27
   0  -6  12  883.78   32.56
   0   6 -11   36.44    5.36
   0  -6  11   40.88    5.41
   0   6 -10  688.21   23.57
   0  -6  10  691.62   23.56
   0   6  -9   22.40    4.35
   0  -6   9   24.90    4.24
   0   6  -8 1384.76   58.98
   0  -6   8 1395.61   45.60
   0   6  -7  189.42   12.82
   0  -6   7  204.84    7.59
   0   6  -6 3357.97  140.10
   0  -6   6 3372.96  138.44
   0   6  -5  529.97   14.89
   0  -6   5  551.83   19.37
   0   6  -4  318.27    8.90
   0  -6   4  329.74    7.84
   0   6  -3  396.33    9.27
   0  -6   3  433.65    8.47
   0   6  -2   56.34    3.61
   0   6  -2   51.67    3.88
   0  -6   2   56.67    2.65
   0   6  -1  346.80    6.56
   0   6  -1  332.09    9.88
   0   6   0  714.11   26.90
   0   6   1  473.58   12.98
   0  -6  -1  462.80   13.03
   0   6   2 1906.26   41.67
   0   6   2 1763.84   58.34
   0  -6  -2 1810.21   58.94
   0   6   3  148.77    2.06
   0   6   3  153.68    6.15
   0  -6  -3  148.98    9.99
   0  -6  -3  151.96    2.64
   0   6   4  823.44   18.05
   0   6   4  807.36   23.18
   0  -6  -4  787.87   14.75
   0  -6  -4  809.21   23.43
   0   6   5  414.51   12.75
   0   6   5  409.29    7.87
   0  -6  -5  410.79    9.78
   0  -6  -5  411.41   12.63
   0   6   6  163.31    4.17
   0   6   6  156.17    7.32
   0  -6  -6  147.53    7.10
   0  -6  -6  164.55    4.01
   0   6   7  482.32   16.10
   0   6   7  504.27   11.59
   0  -6  -7  497.56   15.25
   0  -6  -7  498.66   15.96
   0   6   8  119.41    4.52
   0   6   8  116.59    7.11
   0  -6  -8  126.07    6.77
   0  -6  -8  115.31    4.56
   0   6   9  129.40    8.07
   0   6   9  109.58    7.86
   0  -6  -9  119.91    5.18
   0  -6  -9  112.46   11.84
   0   6  10  668.78   25.09
   0  -6 -10  630.25   18.94
   0  -6 -10  638.75   22.69
   0   6  11  232.71    8.20
   0  -6 -11  187.79   10.49
   0  -6 -11  215.05    8.52
   0   6  12  866.03   27.42
   0  -6 -12  826.05   27.76
   0  -6 -12  852.72   32.12
   0   6  13   36.06    4.55
   0  -6 -13   31.68    4.64
   0  -6 -13   24.13    5.80
   0   6  14   80.47    6.22
   0  -6 -14   85.21    7.56
   0  -6 -14   74.52    6.34
   0   6  15  221.00   15.57
   0  -6 -15  225.33   16.73
   0  -6 -15  230.26   12.57
   0   6  16   30.75    4.83
   0  -6 -16   30.83    8.72
   0  -6 -16   35.40    6.09
   0   6  17   32.26    5.13
   0  -6 -17   26.10    5.46
   0  -6 -17   25.36    6.21
   0   6  18  333.28   14.85
   0  -6 -18  338.78   17.30
   0  -6 -18  307.56   15.72
   0   6  19    6.13    7.32
   0  -6 -19    4.97    4.72
   0  -6 -19   -4.44    5.18
   0   6  20  184.10   10.86
   0  -6 -20  169.54   11.87
   0  -6 -20  175.07   13.06
   0   6  21    1.67    5.02
   0  -6 -21    3.48    9.31
   0  -6 -21   10.98    5.76
   0   6  22   59.16    7.99
   0  -6 -22   74.92    8.51
   0  -6 -22   57.83    9.08
   0   7 -26   13.36    9.77
   0  -7  26   27.48    9.20
   0   7 -25    6.10    8.03
   0  -7  25    0.27    7.63
   0   7 -24   -7.02    7.08
   0  -7  24    6.76    6.78
   0   7 -23   76.62   12.65
   0  -7  23  120.43   12.24
   0   7 -22   77.29   11.41
   0  -7  22   85.46   17.90
   0   7 -21  159.41   14.50
   0  -7  21  173.96   14.40
   0   7 -20   -1.43    6.41
   0  -7  20   -4.09    6.30
   0   7 -19   43.97    8.64
   0  -7  19   61.98    8.69
   0   7 -18   14.53   10.76
   0  -7  18    7.73    6.25
   0   7 -17  388.67   22.26
   0  -7  17  437.61   21.88
   0   7 -16  115.32   10.97
   0  -7  16  133.46   10.56
   0   7 -15  713.56   32.07
   0  -7  15  768.05   47.35
   0   7 -14   60.79    7.53
   0  -7  14   52.37    7.70
   0   7 -13  639.31   39.51
   0  -7  13  706.48   28.10
   0   7 -12   11.00    4.98
   0  -7  12    9.58    4.86
   0   7 -11  517.03   19.32
   0  -7  11  493.00   18.88
   0   7 -10    1.75    3.82
   0  -7  10    4.99    3.67
   0   7  -9  247.68   10.34
   0  -7   9  259.09    9.95
   0   7  -8  181.24    7.89
   0  -7   8  182.32    7.60
   0   7  -7  288.32    9.78
   0  -7   7  297.34   14.46
   0   7  -6   24.18    5.72
   0  -7   6   29.42    3.04
   0   7  -5  839.29   28.88
   0  -7   5  875.51   21.55
   0   7  -4    4.53    3.30
   0  -7   4    2.23    1.60
   0   7  -3   26.86    2.15
   0  -7   3   43.43    1.77
   0   7  -2 2480.62   79.78
   0   7  -2 2422.81   87.18
   0   7  -1  232.77   11.78
   0   7  -1  232.56    2.81
   0   7  -1  232.07    3.86
   0   7   0  758.43   20.89
   0   7   1  114.65    5.43
   0  -7  -1  131.22    5.72
   0   7   2    0.30    2.75
   0  -7  -2    1.92    2.68
   0   7   3 1141.95   35.28
   0   7   3 1182.81   22.43
   0  -7  -3 1162.26   22.04
   0  -7  -3 1208.83   36.91
   0   7   4   27.07    3.52
   0   7   4   21.58    0.94
   0  -7  -4   25.39    1.37
   0  -7  -4   24.43    6.25
   0   7   5 1239.88   40.78
   0   7   5 1289.23   32.47
   0  -7  -5 1253.72   31.48
   0  -7  -5 1272.68   40.56
   0   7   6   32.85    1.86
   0   7   6   36.41    7.47
   0  -7  -6   37.80    4.29
   0  -7  -6   29.44    2.79
   0   7   7  495.98   10.89
   0   7   7  487.21   17.30
   0  -7  -7  512.25   17.20
   0  -7  -7  471.31   10.67
   0   7   8  164.68    5.13
   0   7   8  173.67    9.03
   0  -7  -8  172.01    7.80
   0  -7  -8  191.17    8.90
   0   7   9   48.91    3.31
   0   7   9   51.76    6.22
   0  -7  -9   42.84    5.78
   0  -7  -9   51.91    3.50
   0   7  10   20.39    3.01
   0   7  10   25.64    5.39
   0  -7 -10   21.84    4.85
   0  -7 -10   12.30    3.06
   0   7  11  841.51   31.43
   0  -7 -11  770.65   24.05
   0  -7 -11  772.01   30.12
   0   7  12  415.35   18.41
   0  -7 -12  386.56   16.94
   0  -7 -12  362.83   12.91
   0   7  13  768.78   23.97
   0  -7 -13  736.36   29.88
   0  -7 -13  720.17   24.87
   0   7  14    2.79    3.14
   0  -7 -14    0.89    3.37
   0  -7 -14   -3.07    4.58
   0   7  15  131.93    7.35
   0  -7 -15  138.62   15.90
   0  -7 -15  124.34    7.83
   0   7  16   39.21    5.33
   0  -7 -16   40.72   11.92
   0  -7 -16   60.93    5.89
   0   7  17  176.90   13.40
   0  -7 -17  153.25   17.86
   0  -7 -17  131.10    9.30
   0   7  18   -2.17    3.87
   0  -7 -18    0.40    8.85
   0  -7 -18    2.17    7.29
   0   7  19  156.06    9.60
   0  -7 -19  147.81   10.24
   0  -7 -19  150.36   11.93
   0   7  20   10.87    4.79
   0  -7 -20    2.15    5.98
   0  -7 -20   10.09    5.40
   0   7  21   53.15   11.55
   0  -7 -21   63.22    8.71
   0  -7 -21   38.58    7.80
   0   7  22    4.88    4.83
   0  -7 -22    0.73    5.57
   0  -7 -22    0.75    6.13
   0   8 -26   34.72   10.56
   0  -8  26   19.64   16.87
   0   8 -25   37.59   10.40
   0  -8  25   37.58    9.94
   0   8 -24   -6.28    7.25
   0  -8  24    4.57    6.93
   0   8 -23   10.15    7.72
   0  -8  23    8.19    7.38
   0   8 -22   92.23   12.39
   0  -8  22  101.65   11.93
   0   8 -21   14.87    7.53
   0  -8  21    3.98   11.92
   0   8 -20   61.80    9.45
   0  -8  20   51.48    9.41
   0   8 -19   35.06    7.78
   0  -8  19   25.07    7.67
   0   8 -18    1.11   11.12
   0  -8  18   14.90    6.41
   0   8 -17   15.13    6.67
   0  -8  17   20.61    6.50
   0   8 -16  150.21   11.25
   0  -8  16  122.04   11.17
   0   8 -15    0.01    5.39
   0  -8  15    9.90    5.39
   0   8 -14  154.03   10.45
   0  -8  14  141.29   10.30
   0   8 -13   30.85    6.01
   0  -8  13   28.86   10.01
   0   8 -12  281.93   20.88
   0  -8  12  291.34   20.69
   0   8 -11    1.57    4.17
   0  -8  11    5.90    6.62
   0   8 -10  143.85    7.89
   0  -8  10  134.50   12.12
   0   8  -9  482.36   16.36
   0  -8   9  497.07   15.79
   0   8  -8  166.45    7.48
   0  -8   8  188.17    6.96
   0   8  -7  958.74   28.65
   0  -8   7 1015.83   28.10
   0   8  -6   56.50    3.77
   0  -8   6   49.02    5.46
   0   8  -5    1.14    2.11
   0  -8   5    2.49    1.76
   0   8  -4  656.66   15.34
   0  -8   4  698.13   14.47
   0   8  -3  176.13    6.69
   0   8  -3  165.08    5.86
   0  -8   3  190.02    4.86
   0   8  -2   38.55    3.78
   0   8  -2   39.65    2.25
   0   8  -1  795.47   13.20
   0   8  -1  780.42   22.39
   0   8  -1  777.85   12.29
   0   8   0   18.25    3.29
   0   8   1  191.12    7.63
   0  -8  -1  206.35    7.76
   0   8   2   80.34    5.17
   0  -8  -2   90.82    8.34
   0   8   3   33.33    4.03
   0  -8  -3   38.73    4.06
   0   8   4  362.19   12.79
   0   8   4  381.44    5.50
   0  -8  -4  391.88   12.86
   0  -8  -4  364.51    5.33
   0   8   5   64.72    8.59
   0   8   5   55.09    1.39
   0  -8  -5   61.80    8.37
   0  -8  -5   56.75    2.04
   0   8   6 1380.07   36.87
   0   8   6 1323.45   47.07
   0  -8  -6 1358.27   47.54
   0  -8  -6 1345.30   36.11
   0   8   7  115.93    7.97
   0   8   7  120.11    3.32
   0  -8  -7  112.37    4.80
   0  -8  -7  122.03    7.46
   0   8   8  394.12   16.02
   0   8   8  375.79    8.79
   0  -8  -8  402.50   15.53
   0  -8  -8  366.99    8.68
   0   8   9   98.43    8.23
   0   8   9  115.71    4.10
   0  -8  -9  103.50    6.46
   0  -8  -9  119.31    7.94
   0   8  10   49.28    3.45
   0   8  10   63.51    7.31
   0  -8 -10   55.29    3.64
   0  -8 -10   73.81    6.47
   0   8  11    7.51    2.71
   0   8  11    5.86    5.68
   0  -8 -11    9.46    5.00
   0  -8 -11   14.74    2.97
   0   8  12  355.68   10.89
   0  -8 -12  343.23   11.69
   0  -8 -12  364.49   25.01
   0   8  13   70.39    4.62
   0  -8 -13   65.00    5.10
   0  -8 -13   64.96    7.52
   0   8  14  312.45   16.01
   0  -8 -14  311.91   15.74
   0  -8 -14  295.95   12.04
   0   8  15   29.19    6.57
   0  -8 -15   24.18    4.55
   0  -8 -15   25.05    6.31
   0   8  16   56.83    5.04
   0  -8 -16   43.46    5.69
   0  -8 -16   54.67    7.67
   0   8  17   48.24    4.92
   0  -8 -17   37.15    7.19
   0  -8 -17   21.78    5.69
   0   8  18   45.04    5.68
   0  -8 -18   61.58    8.07
   0  -8 -18   43.88    6.47
   0   8  19   50.83    9.30
   0  -8 -19   48.97    7.87
   0  -8 -19   24.00    6.41
   0   8  20    0.88    4.11
   0  -8 -20    5.37    8.08
   0  -8 -20    2.22    5.98
   0   8  21   82.88    7.36
   0  -8 -21   91.84   10.16
   0  -8 -21   39.38    8.41
   0   9 -26    1.61    8.60
   0  -9  26   11.33   13.52
   0   9 -25   15.52    7.49
   0  -9  25  -13.56    7.17
   0   9 -24   11.08    8.24
   0  -9  24    8.96    7.68
   0   9 -23    5.87    7.82
   0  -9  23   13.41    7.65
   0   9 -22   18.67   13.64
   0  -9  22   19.02    7.64
   0   9 -21   13.67    7.31
   0  -9  21    8.41    6.96
   0   9 -20   18.70    7.41
   0  -9  20   17.43   12.12
   0   9 -19   -3.22    5.84
   0  -9  19   12.36    9.80
   0   9 -18   49.44    8.24
   0  -9  18   43.18    8.22
   0   9 -17   -3.99   10.45
   0  -9  17   15.18    6.12
   0   9 -16   41.09    7.38
   0  -9  16   34.28    7.23
   0   9 -15   38.05    7.10
   0  -9  15   39.09    7.12
   0   9 -14   66.88    7.66
   0  -9  14   66.97    7.57
   0   9 -13   96.53    8.05
   0  -9  13   91.79    8.02
   0   9 -12   14.02    4.88
   0  -9  12    7.97    4.73
   0   9 -11  433.22   25.13
   0  -9  11  426.81   16.71
   0   9 -10   28.18    7.95
   0  -9  10   25.50    4.49
   0   9  -9  211.54   14.39
   0  -9   9  233.37    9.01
   0   9  -8  162.74    7.35
   0  -9   8  177.44   10.60
   0   9  -7    6.03    4.38
   0  -9   7   -0.63    2.19
   0   9  -6   33.22    5.14
   0  -9   6   27.20    2.59
   0   9  -5  379.91   13.42
   0  -9   5  412.40    8.96
   0   9  -4   85.61    3.06
   0  -9   4   90.61    2.52
   0   9  -3  671.98   27.25
   0   9  -3  684.62   16.33
   0   9  -2    1.06    0.74
   0   9  -2   -6.81    2.66
   0   9  -1  442.60   13.65
   0   9  -1  441.38    5.28
   0   9  -1  448.07    5.42
   0   9   0    7.61    3.14
   0   9   1  427.55   13.47
   0   9   2   11.67    3.39
   0  -9  -2    0.77    3.43
   0   9   3   15.89    3.91
   0  -9  -3   18.64    3.92
   0   9   4  130.27    7.22
   0  -9  -4  112.62    7.01
   0   9   5  171.21   15.36
   0  -9  -5  196.23    3.12
   0  -9  -5  224.94    9.79
   0   9   6   20.83    4.60
   0   9   6   16.11    1.01
   0  -9  -6   15.89    1.04
   0  -9  -6   19.95    4.62
   0   9   7  589.55   22.37
   0   9   7  566.26   13.49
   0  -9  -7  575.08   21.33
   0  -9  -7  562.24   13.54
   0   9   8    4.03    7.18
   0   9   8    0.66    1.42
   0  -9  -8    7.79    4.06
   0  -9  -8   -0.57    2.34
   0   9   9   89.79    8.16
   0   9   9  100.07    3.39
   0  -9  -9  123.42    7.72
   0  -9  -9   83.53    3.50
   0   9  10  194.39    5.63
   0   9  10  191.98   12.63
   0  -9 -10  203.78    8.80
   0  -9 -10  194.80   18.07
   0   9  11    8.63    5.56
   0   9  11    4.88    2.32
   0  -9 -11    8.62    2.50
   0  -9 -11    8.21    5.01
   0   9  12   23.84    2.80
   0  -9 -12   15.67    3.26
   0  -9 -12   15.11    5.82
   0   9  13   75.37    4.57
   0  -9 -13   87.79    5.31
   0  -9 -13   84.23    8.26
   0   9  14   78.14    5.07
   0  -9 -14   81.07    8.51
   0  -9 -14   95.14    5.90
   0   9  15    0.93    3.05
   0  -9 -15    4.28    5.23
   0  -9 -15    7.48    3.71
   0   9  16  102.36    9.71
   0  -9 -16   84.67    7.12
   0  -9 -16  110.27    9.94
   0   9  17   23.18    7.04
   0  -9 -17   28.90    6.99
   0  -9 -17   27.14    5.32
   0   9  18   19.72    4.22
   0  -9 -18   14.39    6.66
   0  -9 -18    8.95    5.11
   0   9  19   28.34    4.85
   0  -9 -19   17.47    5.80
   0  -9 -19   29.88    7.54
   0   9  20   95.99    7.08
   0  -9 -20   63.27   10.57
   0  -9 -20   66.00    8.20
   0  10 -26    9.11    8.47
   0 -10  26   -2.01    7.93
   0  10 -25   18.35    9.21
   0 -10  25   12.11   14.82
   0  10 -24    5.36    7.18
   0 -10  24   -4.36    7.09
   0  10 -23   18.69    8.51
   0 -10  23   21.34    8.24
   0  10 -22    5.91   11.56
   0 -10  22    1.75    6.70
   0  10 -21    4.90    6.72
   0 -10  21    0.57    6.59
   0  10 -20   -3.78    6.20
   0 -10  20    1.06    5.92
   0  10 -19   15.60    6.94
   0 -10  19   11.56    6.56
   0  10 -18    9.11    6.47
   0 -10  18   21.68   10.58
   0  10 -17    5.64   10.38
   0 -10  17   16.23   10.25
   0  10 -16  125.13   18.10
   0 -10  16  147.62   11.05
   0  10 -15   15.43    5.97
   0 -10  15   19.59    5.97
   0  10 -14  144.62   10.18
   0 -10  14  138.78   10.21
   0  10 -13   27.57    6.03
   0 -10  13   44.94    6.11
   0  10 -12  239.53   12.24
   0 -10  12  253.87   12.13
   0  10 -11  178.42    9.49
   0 -10  11  179.33   14.94
   0  10 -10  862.85   30.29
   0 -10  10  934.49   39.40
   0  10  -9  296.71   11.03
   0 -10   9  293.29   10.41
   0  10  -8  374.34   12.31
   0 -10   8  407.53   11.86
   0  10  -7   28.60    3.20
   0 -10   7   22.64    4.80
   0  10  -6  365.96   10.13
   0 -10   6  393.77    9.43
   0  10  -5   94.85    5.81
   0 -10   5   99.21    3.03
   0  10  -4  776.16   24.02
   0  10  -4  768.76   17.09
   0  10  -3    7.87    1.13
   0  10  -3    4.17    3.28
   0  10  -2  241.99    3.28
   0  10  -2  239.24    9.26
   0  10  -2  242.72    3.93
   0  10  -1   51.87    4.76
   0  10   0  296.36   16.80
   0  10   1   26.04    4.28
   0  10   2  113.53    6.89
   0 -10  -2  113.77    7.03
   0  10   3  111.01    7.27
   0 -10  -3  122.93    7.41
   0  10   4   26.98    4.98
   0 -10  -4   24.83    4.90
   0  10   5  318.79   13.62
   0 -10  -5  325.42   13.24
   0  10   6   41.50    5.47
   0 -10  -6   32.81    5.38
   0 -10  -6   27.69    1.08
   0  10   7   48.14    6.38
   0 -10  -7   44.58    1.36
   0 -10  -7   54.57    6.09
   0  10   8   71.48    3.15
   0  10   8   72.47    7.44
   0 -10  -8   70.49    7.32
   0 -10  -8   78.85    3.41
   0  10   9  147.49   10.05
   0  10   9  132.15    4.93
   0 -10  -9  136.69    5.41
   0 -10  -9  143.28    9.51
   0  10  10   23.92   10.44
   0  10  10   22.13    2.00
   0 -10 -10   28.93    5.98
   0 -10 -10   31.94    2.28
   0  10  11   11.49    1.93
   0  10  11   12.75    5.93
   0 -10 -11   12.69    3.78
   0 -10 -11    8.50    5.29
   0  10  12   79.82    3.61
   0 -10 -12   94.08    4.44
   0 -10 -12   84.68    8.69
   0  10  13   24.19    2.92
   0 -10 -13   37.45    6.60
   0 -10 -13   40.79    3.68
   0  10  14    4.11    2.44
   0 -10 -14    8.09    3.34
   0 -10 -14    5.30    9.54
   0  10  15   85.34    4.67
   0 -10 -15  130.86   16.02
   0 -10 -15   91.60    6.38
   0  10  16    0.15    2.68
   0 -10 -16    2.75    3.77
   0 -10 -16    7.72    9.43
   0  10  17   13.83    5.66
   0 -10 -17   16.12    4.84
   0 -10 -17   22.06   11.55
   0  10  18   44.68    7.85
   0 -10 -18   75.65   15.37
   0 -10 -18   64.08    6.68
   0  10  19   -0.13    3.25
   0 -10 -19   -2.36    4.46
   0 -10 -19   -2.33   10.55
   0  11 -26   -1.02    8.44
   0 -11  26   12.16    7.92
   0  11 -25   20.56    8.99
   0 -11  25    8.09    8.34
   0  11 -24   -0.29    7.97
   0 -11  24   27.14   13.09
   0  11 -23   18.64    8.65
   0 -11  23   32.13    8.60
   0  11 -22   23.21   12.38
   0 -11  22    6.44    7.34
   0  11 -21   65.67   17.97
   0 -11  21   89.63   10.90
   0  11 -20    9.05    6.39
   0 -11  20   -2.52    6.22
   0  11 -19   -3.43    6.33
   0 -11  19  -11.30    6.24
   0  11 -18    8.81    6.06
   0 -11  18    4.78    5.91
   0  11 -17   89.78    9.83
   0 -11  17  106.08    9.74
   0  11 -16  140.19   11.04
   0 -11  16  171.97   11.25
   0  11 -15  270.02   23.12
   0 -11  15  269.07   14.52
   0  11 -14    8.32    5.12
   0 -11  14    9.95    5.01
   0  11 -13  256.44   13.14
   0 -11  13  275.40   12.89
   0  11 -12   41.17    5.50
   0 -11  12   37.38    5.34
   0  11 -11  460.56   18.30
   0 -11  11  519.39   17.98
   0  11 -10  270.83   11.29
   0 -11  10  280.99   10.71
   0  11  -9  464.34   15.92
   0 -11   9  542.07   22.23
   0  11  -8   68.47    4.75
   0 -11   8   72.70    4.21
   0  11  -7  233.67   11.77
   0 -11   7  250.77   10.72
   0  11  -6   38.42    3.03
   0 -11   6   38.39    2.50
   0  11  -5  520.97   12.45
   0  11  -5  546.81   18.54
   0 -11   5  562.71   11.86
   0  11  -4   37.86    4.88
   0  11  -4   44.27    2.04
   0  11  -3  144.07    3.71
   0  11  -3  139.40   11.61
   0  11  -2  219.24    3.03
   0  11  -2  231.55    3.12
   0  11  -2  241.45    9.80
   0  11  -1   -4.64    3.81
   0  11   0  116.82    7.21
   0  11   1   85.92   10.98
   0  11   2    3.22    4.04
   0  11   3   59.03    6.32
   0 -11  -3   63.65    6.43
   0  11   4   78.34    7.38
   0 -11  -4  101.60    7.46
   0  11   5    5.70    4.50
   0 -11  -5    5.65    4.53
   0  11   6   64.04    7.50
   0 -11  -6   88.04    7.29
   0  11   7   40.09    6.16
   0 -11  -7   47.68    9.73
   0 -11  -7   31.04    0.86
   0  11   8   67.25    7.32
   0 -11  -8   52.24    2.11
   0 -11  -8   66.96    7.03
   0  11   9   22.45    5.83
   0 -11  -9   18.31    5.45
   0 -11  -9   15.05    2.21
   0  11  10   27.42    6.55
   0 -11 -10   24.02    1.93
   0 -11 -10   22.19    6.00
   0  11  11   93.49    9.61
   0  11  11   86.27    2.93
   0 -11 -11   93.87   14.59
   0 -11 -11   83.63    3.45
   0  11  12   14.40    2.08
   0  11  12   41.40    7.19
   0 -11 -12   23.01    6.24
   0 -11 -12   17.72    4.12
   0  11  13  279.01    7.85
   0 -11 -13  357.16   17.79
   0 -11 -13  303.75   13.27
   0  11  14    8.39    2.36
   0 -11 -14   14.45    3.02
   0 -11 -14    6.80    6.38
   0  11  15   33.45    3.02
   0 -11 -15   34.20    7.63
   0 -11 -15   20.04    3.90
   0  11  16   20.12    3.04
   0 -11 -16   32.34    7.23
   0 -11 -16   12.56    4.21
   0 -11 -17   16.44    4.76
   0 -11 -17   50.09    7.78
   0 -11 -18    4.52    6.85
   0  12 -25    5.85    8.07
   0 -12  25    4.67    7.81
   0  12 -24    9.72    7.99
   0 -12  24    7.62    7.78
   0  12 -23   -7.98    7.21
   0 -12  23   10.38   11.78
   0  12 -22   58.21   10.40
   0 -12  22   65.53   17.13
   0  12 -21   29.67   15.67
   0 -12  21   61.46    9.61
   0  12 -20   64.77    9.93
   0 -12  20   73.32    9.93
   0  12 -19   -1.36    5.87
   0 -12  19    4.63    5.94
   0  12 -18    0.91    5.83
   0 -12  18    8.22    5.77
   0  12 -17   -2.69    5.28
   0 -12  17    0.73    5.20
   0  12 -16   75.40    8.07
   0 -12  16   53.46    7.92
   0  12 -15   29.81    6.37
   0 -12  15   37.06    6.40
   0  12 -14  104.79    8.41
   0 -12  14   94.15    8.05
   0  12 -13   -2.50    6.92
   0 -12  13    0.67    3.93
   0  12 -12  109.70   13.67
   0 -12  12  141.47    8.05
   0  12 -11   19.83    7.57
   0 -12  11   20.53    6.87
   0  12 -10  184.34   14.00
   0 -12  10  206.06    8.14
   0  12  -9   12.09    3.52
   0 -12   9   18.38    3.15
   0  12  -8   22.96    3.29
   0 -12   8   15.73    4.63
   0  12  -7   15.28    2.91
   0 -12   7   19.34    2.35
   0  12  -6   69.31    5.81
   0  12  -6   78.33    6.35
   0 -12   6   83.63    3.09
   0  12  -5   15.34    1.95
   0  12  -5   27.14    7.70
   0  12  -4  296.56   11.94
   0  12  -4  291.58    5.73
   0  12  -3   -0.21    0.67
   0  12  -3   -0.04    1.03
   0  12  -3    2.31    3.58
   0  12  -2   32.87    5.16
   0  12  -1  142.68    8.46
   0  12   0    4.68    4.05
   0  12   1    3.59    4.27
   0  12   2  108.88   13.02
   0  12   3    0.11    4.15
   0  12   4  111.01    8.83
   0 -12  -4  125.98    8.77
   0  12   5    6.67    5.14
   0 -12  -5   21.33    5.36
   0  12   6  216.01   12.44
   0 -12  -6  204.99   11.82
   0  12   7   23.62   10.24
   0 -12  -7   21.58    5.67
   0  12   8  151.96   10.53
   0 -12  -8  108.13    9.81
   0  12   9   20.03    6.51
   0 -12  -9   36.42   10.37
   0 -12  -9   23.49    1.23
   0  12  10    6.43    5.93
   0 -12 -10    6.46    5.57
   0 -12 -10    8.58    1.78
   0  12  11    0.89    5.71
   0 -12 -11    1.50    2.14
   0 -12 -11   -7.70    5.24
   0  12  12  256.67   17.45
   0 -12 -12  228.73    8.95
   0 -12 -12  262.51   15.55
   0 -12 -13   88.58    9.79
   0 -12 -13   73.77    3.69
   0 -12 -14  187.71   14.63
   0 -12 -15    8.38    6.76
   0 -12 -16    7.58   11.76
   0 -12 -17    8.89   12.07
   0  13 -25   -0.44    7.97
   0 -13  25    5.31    7.60
   0  13 -24   13.58    8.39
   0 -13  24   10.23    8.18
   0  13 -23   -5.89    6.78
   0 -13  23    5.30    6.67
   0  13 -22   -0.29    7.52
   0 -13  22   20.45    7.32
   0  13 -21   20.17    7.67
   0 -13  21   16.90    7.54
   0  13 -20   -9.72   10.99
   0 -13  20   -6.18   11.02
   0  13 -19   -5.06   10.27
   0 -13  19   19.89   10.39
   0  13 -18    5.80    5.70
   0 -13  18    0.04    9.68
   0  13 -17   -5.21    5.36
   0 -13  17   -1.56    9.09
   0  13 -16    9.06    5.58
   0 -13  16   19.90    9.54
   0  13 -15    3.04    4.90
   0 -13  15   13.76    8.05
   0  13 -14    8.39    4.86
   0 -13  14   13.05    4.59
   0  13 -13   -1.73    4.14
   0 -13  13   -2.58    3.87
   0  13 -12   37.06    5.59
   0 -13  12   48.54    4.98
   0  13 -11   39.85    5.18
   0 -13  11   49.86    4.67
   0  13 -10    7.65    3.53
   0 -13  10    5.82    5.07
   0  13  -9   77.55    5.23
   0 -13   9   91.13    4.46
   0  13  -8   21.04    5.34
   0 -13   8   20.49    4.45
   0  13  -7   -0.39    2.14
   0  13  -7   -4.11    3.90
   0 -13   7   -0.70    1.84
   0  13  -6   28.66    5.54
   0  13  -6   43.66    4.23
   0  13  -5   96.32    7.11
   0  13  -5   89.64    2.91
   0  13  -4  121.28    3.73
   0  13  -4  131.99    8.22
   0  13  -4  128.42    3.48
   0  13  -3  280.06    3.99
   0  13  -3  322.56   13.04
   0  13  -3  275.87    3.43
   0  13  -2   33.38    5.57
   0  13  -1   68.23    6.84
   0  13   0    1.63    4.19
   0  13   1   65.09    6.91
   0  13   2    1.57    4.40
   0  13   3   66.09    7.44
   0  13   4   -3.22    4.87
   0  13   5  125.09   15.40
   0 -13  -5  115.06    9.49
   0  13   6   48.16    7.32
   0 -13  -6   45.41    7.10
   0  13   7  269.81   23.89
   0 -13  -7  245.84   22.96
   0  13   8   10.11    5.52
   0 -13  -8   -3.81    5.24
   0  13   9   22.70    6.61
   0 -13  -9   12.57    5.98
   0  13  10   42.80    8.08
   0 -13 -10   45.06    7.52
   0  13  11   -3.05    6.48
   0 -13 -11   -6.70    5.77
   0  13  12    5.65    7.03
   0 -13 -12    7.56   10.55
   0 -13 -13   85.81   10.31
   0 -13 -14   -3.70    6.60
   0 -13 -15   50.86    9.32
   0 -13 -16   21.74    8.17
   0  14 -24   10.38    7.35
   0 -14  24   -5.79    7.43
   0  14 -23   36.47    9.06
   0 -14  23   22.11    9.05
   0  14 -22  -11.57    6.99
   0 -14  22   -1.46    7.16
   0  14 -21    4.23    6.83
   0 -14  21   12.86    6.99
   0  14 -20    3.85    6.17
   0 -14  20    4.64    6.31
   0  14 -19    0.18    5.53
   0 -14  19   -2.20    5.72
   0  14 -18   -5.61    9.05
   0 -14  18    3.91    5.39
   0  14 -17    3.27    8.58
   0 -14  17    0.07    4.97
   0  14 -16    1.76    8.64
   0 -14  16    8.11    5.10
   0  14 -15    5.87    7.91
   0 -14  15    3.80    4.48
   0  14 -14   23.34    5.54
   0 -14  14   35.17    5.21
   0  14 -13   28.12    8.78
   0 -14  13   36.22    4.94
   0  14 -12   -2.74    6.27
   0 -14  12    6.55    5.48
   0  14 -11   -9.22    5.68
   0 -14  11    3.64    2.89
   0  14 -10  142.03    7.46
   0 -14  10  185.35    6.75
   0  14  -9   45.85    4.02
   0 -14   9   44.25    3.55
   0  14  -8   72.19    6.93
   0  14  -8   66.67    4.06
   0  14  -7    0.83    1.97
   0  14  -7    1.63    4.33
   0  14  -6   40.79    5.24
   0  14  -6   15.16    3.45
   0  14  -5   31.00    1.60
   0  14  -5   26.24    9.37
   0  14  -5   30.90    2.73
   0  14  -4  186.18    3.79
   0  14  -4  182.02    3.78
   0  14  -4  224.78   10.98
   0  14  -3  137.74    9.45
   0  14  -2  157.22   10.13
   0  14  -1   34.47    6.01
   0  14   0  112.11    8.56
   0  14   1   -3.57    4.75
   0  14   2   80.57    7.82
   0  14   3   39.01   11.03
   0  14   4    1.08    4.76
   0  14   5   26.45   10.99
   0  14   6    5.33    5.64
   0 -14  -6    2.16    5.32
   0  14   7   -7.83    5.34
   0 -14  -7    7.11    4.97
   0  14   8   63.35    8.78
   0 -14  -8   54.24    8.56
   0  14   9   51.33    8.38
   0 -14  -9   28.59   12.92
   0  14  10   51.65    8.75
   0 -14 -10   41.13    8.23
   0  14  11  107.62   12.19
   0 -14 -11   96.91   10.93
   0  14  12    3.00    6.93
   0 -14 -12   -5.33    5.91
   0 -14 -13   16.15    7.33
   0 -14 -14    0.09    6.28
   0  15 -23   -0.61   12.15
   0 -15  23  -13.13   12.47
   0  15 -22    6.99    6.73
   0 -15  22   -1.13    6.95
   0  15 -21  -10.67    6.56
   0 -15  21   -1.10    6.78
   0  15 -20    6.48    6.15
   0 -15  20    1.30    6.26
   0  15 -19    8.03    5.58
   0 -15  19   -5.02    5.77
   0  15 -18   -1.05    5.41
   0 -15  18    6.53    5.33
   0  15 -17   -3.35    5.15
   0 -15  17   -3.40    5.19
   0  15 -16   21.12    5.55
   0 -15  16    2.90    9.13
   0  15 -15   60.72    6.72
   0 -15  15   43.69   10.30
   0  15 -14   13.89    4.68
   0 -15  14   11.46    4.28
   0  15 -13    5.23    4.13
   0 -15  13   10.02    3.77
   0  15 -12    3.68    3.55
   0 -15  12   -0.71    3.10
   0  15 -11   18.67    4.03
   0 -15  11   27.41    5.76
   0  15 -10   18.61    3.58
   0 -15  10   21.04    3.05
   0  15  -9  119.29    8.39
   0  15  -9  116.93    8.98
   0  15  -8   63.70    6.75
   0  15  -8   48.67    3.38
   0  15  -7   32.45    2.54
   0  15  -7   35.73    6.02
   0  15  -6    2.72    1.38
   0  15  -6   -1.44    1.30
   0  15  -6    0.47    7.04
   0  15  -5   41.17    2.24
   0  15  -5   39.03    2.26
   0  15  -5   57.37    6.17
   0  15  -4   10.62    8.45
   0  15  -3   49.84    6.62
   0  15  -2   -0.57    4.45
   0  15  -1    5.23    4.82
   0  15   0    5.01    4.95
   0  15   1   42.42   11.13
   0  15   2   12.54    5.44
   0  15   3   14.96    9.86
   0  15   4   98.64    9.44
   0  15   5   52.52    8.23
   0  15   6   72.15    9.10
   0  15   7   -4.72    6.05
   0  15   8   26.24    7.39
   0 -15  -8   24.20    7.25
   0  15   9   -2.30    6.56
   0 -15  -9   -5.23    6.13
   0  15  10   43.99    8.89
   0 -15 -10   35.89    8.37
   0  15  11   10.96    7.32
   0 -15 -11    0.85    6.65
   0  15  12   26.55    9.48
   0 -15 -12   36.28   13.87
   0  15  13   -1.05    8.63
   0 -15 -13   11.83    7.14
   0  16 -22   13.78   14.26
   0 -16  22   35.83    8.62
   0  16 -21   14.34   12.12
   0 -16  21   14.41    7.27
   0  16 -20   13.39    6.33
   0 -16  20   -2.80    6.08
   0  16 -19   -5.83    5.67
   0 -16  19    8.90    5.47
   0  16 -18   -1.45    5.15
   0 -16  18    0.74    4.91
   0  16 -17   -2.30    5.00
   0 -16  17    6.32    4.70
   0  16 -16   16.58    5.35
   0 -16  16   10.87    4.91
   0  16 -15   20.30    5.39
   0 -16  15   18.02    4.85
   0  16 -14   11.37    5.06
   0 -16  14   29.05    4.56
   0  16 -13   16.70    7.22
   0 -16  13   11.83    6.38
   0  16 -12    5.36    5.81
   0 -16  12    2.80    3.11
   0  16 -11    3.39    3.18
   0  16 -10   29.06    3.60
   0  16 -10   23.33    6.12
   0  16  -9    8.25    5.44
   0  16  -9   13.02    4.47
   0  16  -8   -3.68    4.52
   0  16  -8    1.47    1.96
   0  16  -7    3.67    1.64
   0  16  -7   -7.37    4.43
   0  16  -6    1.80    1.13
   0  16  -6    1.22    1.89
   0  16  -6   -7.29    4.67
   0  16  -5    0.18    0.83
   0  16  -5   -3.96    7.88
   0  16  -5    1.26    0.84
   0  16  -4   13.78    5.45
   0  16  -3   -9.03    8.88
   0  16  -2    9.10    5.30
   0  16  -1    9.84    5.42
   0  16   0   -3.47    5.07
   0  16   1    3.61    5.07
   0  16   2   24.00    6.38
   0  16   3   -6.46    5.79
   0  16   4   -2.81    5.53
   0  16   5   32.58    7.63
   0  16   6    5.11    6.14
   0  16   7   -4.58    6.51
   0  16   8    3.46    6.46
   0  16   9    3.10    6.95
   0  16  10    3.25    6.93
   0 -16 -10    3.12    6.50
   0  16  11   23.51    8.68
   0 -16 -11    8.34    7.74
   0  17 -21   45.79    8.86
   0 -17  21   50.39    9.16
   0  17 -20   19.50    7.38
   0 -17  20   26.62    7.27
   0  17 -19    3.49    5.80
   0 -17  19    8.11    5.80
   0  17 -18   -2.83    8.61
   0 -17  18   -1.51    4.94
   0  17 -17   -1.80    8.37
   0 -17  17    9.38    7.90
   0  17 -16    9.55    4.92
   0 -17  16    6.10    7.74
   0 -17  15   -1.11    4.28
   0  17 -14   -1.97    3.95
   0 -17  14    3.46    3.53
   0  17 -13    7.60    3.93
   0  17 -12   -0.04    3.21
   0  17 -11   -0.30    5.05
   0  17 -11   -0.60    4.88
   0  17 -10    2.39    2.52
   0  17 -10  -12.50    8.52
   0  17  -9   -5.20    4.86
   0  17  -9    4.02    3.60
   0  17  -8   14.77    8.93
   0  17  -8    8.36    2.06
   0  17  -7    5.31    5.10
   0  17  -7    5.32    2.28
   0  17  -7    1.79    1.40
   0  17  -6    9.26    1.41
   0  17  -6   13.64    5.64
   0  17  -6   10.50    1.40
   0  17  -5   -0.12    4.87
   0  17  -4   10.90    5.67
   0  17  -3   42.76    7.22
   0  17  -2    9.14    9.53
   0  17  -1    5.51    5.55
   0  17   0    0.75    8.83
   0  17   1   25.28    6.90
   0  17   2   17.72   10.87
   0  17   3   66.49    9.14
   0  17   4   14.94   11.35
   0  17   5   27.84    7.92
   0  17   6    5.36   11.12
   0  17   7   95.14   11.89
   0  17   8   28.41    8.64
   0  17   9   17.90    8.53
   0  17  10    8.41    8.01
   0  18 -20   -9.77    6.06
   0 -18  20    3.16    5.94
   0  18 -19   10.09    6.47
   0 -18  19   18.71    6.22
   0  18 -18   17.52    5.70
   0 -18  18    2.01    5.50
   0  18 -17   -1.85    4.73
   0 -18  17   -0.82    4.54
   0  18 -16    4.27    4.67
   0 -18  16    0.69    4.27
   0  18 -15    9.46    4.62
   0  18 -14    6.11    6.95
   0  18 -13   -3.41    5.97
   0  18 -13    6.57    5.63
   0  18 -12   12.66    3.75
   0  18 -12   18.16    6.54
   0  18 -11   -3.23    2.88
   0  18 -11    0.91    9.34
   0  18 -10   11.83    5.45
   0  18 -10    3.11    2.58
   0  18  -9    0.91    2.03
   0  18  -9   12.77    8.73
   0  18  -9    6.54    3.43
   0  18  -8    5.90    1.68
   0  18  -8    8.16    2.71
   0  18  -8   11.03    5.77
   0  18  -7   -6.00    5.70
   0  18  -6   -9.35    5.81
   0  18  -5    0.47    5.19
   0  18  -4   23.95    6.81
   0  18  -3   20.51    6.67
   0  18  -2   73.70    9.12
   0  18  -1   57.13    8.53
   0  18   0   29.65    7.51
   0  18   1   34.20    7.73
   0  18   2   68.79    9.66
   0  18   3    5.17    6.57
   0  18   4   24.35    7.97
   0  18   5    2.25    6.68
   0  18   6   28.50   15.05
   0  18   7  -12.56    8.18
   0  18   8   12.91   13.95
   0  19 -18   24.48   10.37
   0  19 -17    6.22    8.58
   0  19 -16   13.62    5.22
   0  19 -15   -9.75    4.58
   0  19 -14    3.01    6.05
   0  19 -14    0.70    3.80
   0  19 -13    1.93    5.97
   0  19 -13    7.43    6.27
   0  19 -12   -6.43    5.80
   0  19 -12    3.05    2.92
   0  19 -11    4.58    2.75
   0  19 -11   10.70    6.02
   0  19 -10    1.62    9.14
   0  19  -9   28.59    7.34
   0  19  -8   27.34    7.35
   0  19  -7   13.37    6.53
   0  19  -6    2.75    5.81
   0  19  -5   -1.39    5.63
   0  19  -4    2.75    5.90
   0  19  -3   15.65    6.91
   0  19  -2   15.00    6.86
   0  19  -1   14.71   11.38
   0  19   0   10.70    6.88
   0  19   1   19.52   12.74
   0  19   2    7.69    7.00
   0  19   3   -8.87    7.22
   0  19   4   -5.82    7.45
   0  19   5    1.36    7.02
   0  20 -16    6.25    7.07
   0  20 -15    4.43    6.38
   0  20 -10    3.15    6.27
   0  20  -9   13.67   11.72
   0  20  -8    7.09    6.50
   0  20  -7    3.64    6.26
   0  20  -6   -9.97    6.66
   0  20  -5    1.04    6.02
   0  20  -4   -6.59   11.19
   0  20  -3    0.74    6.10
   0  20  -2   21.28   12.78
   0  20  -1    8.20    7.12
   0  20   0   -0.91    6.62
   0  20   1    4.57    7.27
   0  20   2   -7.07    7.51
  -1  20   3    3.01    7.29
  -1  20   2    8.59   12.26
  -1  20   1    6.12    7.06
  -1  20   0   10.56   12.02
  -1  20  -1    2.47    6.37
  -1  20  -2   48.87    8.90
  -1  20  -3   12.84    6.91
  -1  20  -4   18.54    7.08
  -1  20  -5    6.51   10.50
  -1  20  -6    5.72    6.18
  -1  20  -7    7.43   10.51
  -1  20  -8   48.74    8.30
  -1  20  -9    4.20    5.96
  -1  20 -13    1.14    3.32
  -1  20 -14   33.30    5.09
  -1  20 -15   -1.80    4.20
  -1  20 -16   33.50    6.12
  -1  19   6    8.49    7.93
  -1  19   5    6.72   12.79
  -1  19   4    2.51    6.90
  -1  19   3   61.64   10.21
  -1  19   2   -0.63    6.27
  -1  19   1   30.92    7.93
  -1  19   0    3.74    6.24
  -1  19  -1   96.25   10.59
  -1  19  -2   39.91   13.43
  -1  19  -3  127.20   11.67
  -1  19  -4    8.13   10.15
  -1  19  -5   78.54    9.14
  -1  19  -6    7.30    9.82
  -1  19  -7   69.40    8.64
  -1  19  -8   -1.99    5.37
  -1  19  -9   84.31    9.23
  -1  19 -10   -2.89    2.43
  -1  19 -10    2.14    5.18
  -1  19 -10    3.09    4.23
  -1  19 -11  101.10   14.15
  -1  19 -11   71.86    4.88
  -1  19 -12    6.05    5.29
  -1  19 -12   -2.40    5.37
  -1  19 -13   57.76    7.77
  -1  19 -13   28.43    8.46
  -1  19 -14    4.22    4.05
  -1  19 -15   25.41    5.58
  -1  19 -16   -0.74    4.68
  -1  19 -17   29.58    6.49
  -1  19 -18  -11.33    5.91
  -1  18   8   29.34    9.60
  -1  18   7    3.40    7.00
  -1  18   6   51.70   10.09
  -1  18   5    9.93   12.04
  -1  18   4  155.36   13.80
  -1  18   3   29.25   13.43
  -1  18   2  133.71   12.45
  -1  18   1    4.48   10.25
  -1  18   0   93.79   10.11
  -1  18  -1   15.51   10.98
  -1  18  -2   97.38    9.72
  -1  18  -3   29.52    6.87
  -1  18  -4  163.15   11.89
  -1  18  -5   -0.06    5.02
  -1  18  -6   36.08    2.51
  -1  18  -6   31.29    1.65
  -1  18  -6   47.57    6.67
  -1  18  -7    2.63    1.78
  -1  18  -7    8.24    1.71
  -1  18  -7    4.25    5.23
  -1  18  -8   51.76    7.49
  -1  18  -8   56.36    5.05
  -1  18  -8   51.65    3.37
  -1  18  -9   -0.54    5.02
  -1  18  -9    2.97    2.39
  -1  18  -9    0.58    4.31
  -1  18 -10   51.10    7.07
  -1  18 -10   48.00    4.41
  -1  18 -11   65.99    7.74
  -1  18 -11   58.02    5.20
  -1  18 -12   14.50   10.31
  -1  18 -12   20.79    4.48
  -1  18 -13    7.64    4.18
  -1  18 -13    7.86    5.57
  -1  18 -14   38.58    7.20
  -1  18 -14   38.11    9.83
  -1  18 -15    3.66    7.95
  -1  18 -16   21.20    9.88
  -1  18 -17   -1.47    5.18
  -1  18 -18   13.18    6.28
  -1  18 -19   -5.07    6.15
  -1  18 -20   15.13    7.27
   1 -17 -10    3.67    6.80
  -1  17  10   -5.72   12.83
  -1  17   9   35.01    9.13
  -1  17   8  -16.37    7.93
  -1  17   7   35.08    8.80
  -1  17   6   15.72    7.30
  -1  17   5   36.22    8.21
  -1  17   4    0.38    5.61
  -1  17   3  126.43   11.74
  -1  17   2   -4.83    5.80
  -1  17   1  156.38   11.70
  -1  17   0   -0.68    5.03
  -1  17  -1   23.38    6.38
  -1  17  -2   24.81    6.16
  -1  17  -3   48.85    6.99
  -1  17  -4    6.81    5.20
  -1  17  -5   19.24    5.65
  -1  17  -5   18.74    1.15
  -1  17  -5   11.91    1.98
  -1  17  -6   25.10    2.03
  -1  17  -6   27.74    1.90
  -1  17  -6   21.50    6.10
  -1  17  -7   20.55    4.07
  -1  17  -7   21.35    5.71
  -1  17  -7   17.22    3.63
  -1  17  -8    2.21    4.72
  -1  17  -8    1.95    2.19
  -1  17  -8    1.33    2.44
  -1  17  -9   59.83    6.84
  -1  17  -9   44.59    6.75
  -1  17 -10   20.09    5.80
  -1  17 -10   31.85    6.65
  -1  17 -11    8.56    3.87
  -1  17 -11   15.36    5.41
  -1  17 -12   93.11    7.05
  -1  17 -12  108.90    9.04
  -1  17 -13   14.09    4.67
  -1  17 -14    7.21    4.68
  -1  17 -15   36.91    6.30
  -1  17 -16   -1.17    4.92
  -1  17 -17   17.47    6.30
   1 -17  18   -2.71    5.06
  -1  17 -18    3.92    5.37
   1 -17  19   47.98    8.21
  -1  17 -19   44.43   13.93
   1 -17  20   -0.30    5.81
  -1  17 -20   -1.64   10.20
   1 -17  21   52.61    9.18
  -1  17 -21   40.64    9.35
   1 -16 -12   -3.32   11.84
  -1  16  12    9.88    8.43
   1 -16 -11   16.18    7.61
  -1  16  11   10.20    8.66
   1 -16 -10    7.48    7.18
  -1  16  10   18.19   12.77
   1 -16  -9    0.66    6.18
  -1  16   9   -6.64    6.66
   1 -16  -8   75.81    9.53
  -1  16   8   75.97   17.07
   1 -16  -7   21.75    7.44
  -1  16   7   42.98    8.01
  -1  16   6    6.01    6.31
  -1  16   5   72.36    9.41
  -1  16   4    5.09    5.78
  -1  16   3   82.93    9.06
  -1  16   2   50.39    7.66
  -1  16   1   -1.04    4.78
  -1  16   0   10.95    8.99
  -1  16  -1   22.33    5.76
  -1  16  -2   80.01   13.01
  -1  16  -3   -7.07    4.90
  -1  16  -4   23.30    9.10
  -1  16  -4   17.96    1.06
  -1  16  -4   18.81    1.60
  -1  16  -5  101.36    3.97
  -1  16  -5   95.06    8.27
  -1  16  -5   86.21    4.37
  -1  16  -6    0.30    1.78
  -1  16  -6   -5.88    4.30
  -1  16  -6    4.61    2.61
  -1  16  -7   16.81    2.73
  -1  16  -7   19.35    2.39
  -1  16  -7   15.34    5.21
  -1  16  -8  127.59    9.17
  -1  16  -8  141.24    6.00
  -1  16  -9    4.12    4.49
  -1  16  -9    1.90    2.95
  -1  16 -10  101.95    8.26
  -1  16 -10   91.09    9.84
  -1  16 -11    5.85    7.03
  -1  16 -11   20.99    5.33
  -1  16 -12   33.21    8.51
  -1  16 -13   25.76    8.74
  -1  16 -14   50.17   10.79
   1 -16  15    4.79    4.32
  -1  16 -15    1.43    8.09
   1 -16  16   77.49    7.34
  -1  16 -16   59.35    7.93
   1 -16  17   -1.74    4.90
  -1  16 -17    9.16    5.41
   1 -16  18   50.82    7.57
  -1  16 -18   43.05    8.05
   1 -16  19   -3.17    5.43
  -1  16 -19    1.80    5.80
   1 -16  20   70.89    9.85
  -1  16 -20   72.50   10.13
   1 -16  21   -9.48    6.44
  -1  16 -21    5.11    6.63
   1 -16  22   36.99    9.24
  -1  16 -22   30.57   15.53
   1 -15 -14    7.29    7.03
   1 -15 -13   -0.07    6.34
   1 -15 -12   65.31    9.57
  -1  15  12   43.45   11.38
   1 -15 -11   26.53    7.77
  -1  15  11   28.75    9.01
   1 -15 -10   41.83    8.28
  -1  15  10   34.74   14.76
   1 -15  -9    6.14   10.43
  -1  15   9    8.57    6.67
   1 -15  -8   28.26    7.13
  -1  15   8   16.37   12.34
   1 -15  -7   65.82    8.34
  -1  15   7   51.52    8.96
   1 -15  -6   28.53    6.46
  -1  15   6    4.38   11.58
  -1  15   5    2.15    5.43
  -1  15   4  118.92   16.70
  -1  15   3   -7.14    5.38
  -1  15   2   34.97   10.69
  -1  15   1    3.59    4.84
  -1  15   0   17.07    5.37
  -1  15  -1  143.87    9.78
  -1  15  -2   60.43    6.92
  -1  15  -3  574.28   30.90
  -1  15  -3  477.52    7.90
  -1  15  -3  486.10    9.03
  -1  15  -4   39.47    2.54
  -1  15  -4   41.65    1.83
  -1  15  -4   43.20    6.13
  -1  15  -5   77.45    2.78
  -1  15  -5  120.42   12.27
  -1  15  -5   77.96    3.15
  -1  15  -6   73.36    5.99
  -1  15  -6   82.76    7.43
  -1  15  -6   84.55    5.15
  -1  15  -7   39.32    5.88
  -1  15  -7   44.73    3.55
  -1  15  -8    1.14    2.67
  -1  15  -8   -1.97    4.06
  -1  15  -9  307.35   14.06
  -1  15  -9  280.44   10.64
  -1  15 -10   58.17    5.26
  -1  15 -10   59.36    6.57
  -1  15 -11  166.11    8.70
  -1  15 -12    2.81    3.94
   1 -15  13  159.47    8.41
  -1  15 -13  137.96    9.39
   1 -15  14   18.37    4.47
  -1  15 -14    4.49    5.10
   1 -15  15   77.26    7.03
  -1  15 -15   71.17    7.82
   1 -15  16   24.76    5.60
  -1  15 -16   13.66    6.00
   1 -15  17   15.68    9.33
  -1  15 -17    9.46    9.95
   1 -15  18   28.70   10.90
  -1  15 -18   14.15   11.39
   1 -15  19   53.56    8.34
  -1  15 -19   49.89    8.70
   1 -15  20    6.84    6.13
  -1  15 -20    0.11    6.41
   1 -15  21   38.35    9.08
  -1  15 -21   55.48    9.28
   1 -15  22    3.57    7.31
  -1  15 -22   10.21    7.22
   1 -15  23   13.54    8.06
  -1  15 -23   13.14   13.54
   1 -14 -15    4.32    7.03
   1 -14 -14   14.05    7.64
   1 -14 -13    8.34    6.82
   1 -14 -12   -5.34    9.81
  -1  14  12    1.97    6.81
   1 -14 -11   83.69   15.34
  -1  14  11   73.42   11.27
   1 -14 -10    7.06    6.22
  -1  14  10   23.00   11.18
   1 -14  -9   37.97    7.53
  -1  14   9   45.66    8.10
   1 -14  -8   75.97    8.42
  -1  14   8   47.18   14.96
   1 -14  -7   -7.36    8.42
  -1  14   7    3.75    5.41
   1 -14  -6  102.95    9.32
  -1  14   6  105.08   15.70
   1 -14  -5  -10.02    5.48
  -1  14   5  -13.40    5.64
  -1  14   4  211.75   12.25
  -1  14   3   49.00    7.02
  -1  14   2  172.01   10.69
  -1  14   1   12.43    5.26
  -1  14   0   44.29    6.30
  -1  14  -1   -3.82    7.68
  -1  14  -2  660.90   11.76
  -1  14  -2  676.49   11.80
  -1  14  -2  710.64   26.88
  -1  14  -3  269.14    6.02
  -1  14  -3  276.47   13.15
  -1  14  -3  266.35    5.16
  -1  14  -4  946.09   35.90
  -1  14  -4  958.96   27.28
  -1  14  -4  938.12   25.30
  -1  14  -5  130.03    4.21
  -1  14  -5  118.29    3.66
  -1  14  -5  119.75    8.35
  -1  14  -6  222.68   10.68
  -1  14  -6  219.23   10.19
  -1  14  -7    1.29    4.54
  -1  14  -7    4.47    4.10
  -1  14  -8   62.47    4.92
  -1  14  -8   86.40    6.58
  -1  14  -9    4.00    3.39
  -1  14 -10  230.67   10.35
  -1  14 -11   -1.58    6.39
   1 -14  12   83.62    5.86
  -1  14 -12   55.31   11.14
   1 -14  13   17.35    4.31
  -1  14 -13    9.23    8.41
   1 -14  14  205.46   15.97
  -1  14 -14  178.93   11.06
   1 -14  15   18.25    5.21
  -1  14 -15   17.78    5.72
   1 -14  16   25.63    5.90
  -1  14 -16   30.49    6.47
   1 -14  17   93.12    8.74
  -1  14 -17   73.88    9.20
   1 -14  18   10.68    5.53
  -1  14 -18   -1.30    5.96
   1 -14  19   58.84    8.33
  -1  14 -19   43.54   14.67
   1 -14  20   41.11    8.28
  -1  14 -20   38.83    8.51
   1 -14  21   12.45    6.73
  -1  14 -21    0.98    6.99
   1 -14  22    8.64    7.30
  -1  14 -22    8.11    7.66
   1 -14  23   12.70    7.82
  -1  14 -23    9.90    8.05
   1 -14  24   18.42    9.09
  -1  14 -24   20.94   15.26
   1 -13 -16   11.44   12.72
   1 -13 -15   25.21    8.17
   1 -13 -14   28.18    7.80
   1 -13 -13  180.70   13.88
   1 -13 -12   25.74    6.80
   1 -13 -12   20.17    1.74
  -1  13  12   16.79    7.84
   1 -13 -11   28.15    1.58
   1 -13 -11   45.38    7.42
  -1  13  11   32.11    1.45
  -1  13  11   55.05    8.49
   1 -13 -10   -7.48    5.40
   1 -13 -10   -0.93    1.26
  -1  13  10    4.68    9.84
   1 -13  -9   33.79   11.93
  -1  13   9   51.93    7.92
   1 -13  -8   -2.04    4.89
  -1  13   8   -4.85    8.88
   1 -13  -7  137.77   10.61
  -1  13   7  156.14   10.97
   1 -13  -6    6.98    4.85
  -1  13   6   -5.52    8.64
   1 -13  -5  272.68   14.35
  -1  13   5  280.61   14.60
   1 -13  -4  162.66   10.62
  -1  13   4  173.59   10.73
  -1  13   3  742.15   30.26
  -1  13   2  145.11    9.43
  -1  13   1  173.18   16.25
  -1  13   0   55.00    6.30
  -1  13  -1   18.59    4.82
  -1  13  -2    7.24    0.80
  -1  13  -2    7.59    1.59
  -1  13  -2   18.94    7.47
  -1  13  -3  550.44   12.89
  -1  13  -3  590.66   21.21
  -1  13  -3  574.44   14.85
  -1  13  -4  125.96    7.84
  -1  13  -4  119.32    3.91
  -1  13  -4  122.72    4.78
  -1  13  -5  629.46   15.96
  -1  13  -5  646.65   31.53
  -1  13  -6   87.73    6.54
  -1  13  -6   83.88    7.01
  -1  13  -7  131.19    9.36
  -1  13  -7  128.05    7.91
  -1  13  -8    1.70    3.06
  -1  13  -9   55.92    5.18
   1 -13  10   70.92    4.85
  -1  13 -10   59.60    5.87
   1 -13  11   24.08    3.86
  -1  13 -11   12.10    4.83
   1 -13  12   26.92    7.42
  -1  13 -12   23.30    5.11
   1 -13  13  118.70    7.62
  -1  13 -13  116.92    8.83
   1 -13  14   17.94    5.02
  -1  13 -14   20.44    5.66
   1 -13  15  187.46   10.97
  -1  13 -15  175.08   18.72
   1 -13  16    8.58    5.03
  -1  13 -16    3.27    5.30
   1 -13  17   45.90    7.42
  -1  13 -17   55.73    7.79
   1 -13  18   95.76    9.54
  -1  13 -18   87.63    9.98
   1 -13  19   33.97    7.35
  -1  13 -19   20.64    7.51
   1 -13  20    3.71    6.25
  -1  13 -20   10.32   11.07
   1 -13  21   79.87   10.44
  -1  13 -21   69.72   10.70
   1 -13  22   18.36    7.23
  -1  13 -22   -0.11    7.69
   1 -13  23   34.98    9.22
  -1  13 -23   30.12    9.51
   1 -13  24  -14.89    7.75
  -1  13 -24    2.67    8.15
   1 -12 -17   -0.90    6.45
   1 -12 -16    1.29    6.28
   1 -12 -15   -5.00    6.41
   1 -12 -15   -4.01    4.67
   1 -12 -14  110.63   10.28
   1 -12 -14   82.01    4.64
  -1  12  14   87.94    5.84
   1 -12 -13   66.03    8.50
   1 -12 -13   49.31    5.49
  -1  12  13   50.96    4.80
   1 -12 -12  179.82   12.02
   1 -12 -12  148.26    5.04
  -1  12  12  151.03    4.51
   1 -12 -11   41.82    3.88
   1 -12 -11   50.99   12.56
  -1  12  11   56.51    8.46
  -1  12  11   45.91    2.27
   1 -12 -10   97.31    9.31
   1 -12 -10   92.07    4.14
  -1  12  10   88.65    2.59
  -1  12  10  123.90   16.29
   1 -12  -9    5.25    1.07
   1 -12  -9   -2.78    5.06
  -1  12   9    3.95    5.39
  -1  12   9    2.69    1.76
   1 -12  -8  116.97    8.99
   1 -12  -8  104.34    2.79
  -1  12   8  119.56   15.41
  -1  12   8  104.59    2.68
   1 -12  -7   21.38    9.54
   1 -12  -7   18.67    0.94
  -1  12   7   28.78    6.08
  -1  12   7   22.08    0.93
   1 -12  -6    1.13    4.28
  -1  12   6   -6.92    7.93
   1 -12  -5   58.87    6.89
  -1  12   5   67.89    7.23
   1 -12  -4   66.94   11.65
  -1  12   4   63.66    6.92
   1 -12  -3   57.90    6.33
  -1  12   3   55.88    6.48
  -1  12   2  418.35   16.60
  -1  12   1   13.51    4.41
  -1  12   0    1.80    3.88
  -1  12  -1  206.41    3.52
  -1  12  -1  206.12    3.23
  -1  12  -1  217.93   10.02
  -1  12  -2    0.23    0.84
  -1  12  -2   -1.91    3.51
  -1  12  -2    2.16    1.96
  -1  12  -3  116.83   10.98
  -1  12  -3  103.31    3.27
  -1  12  -3   95.69    2.47
  -1  12  -4  231.94    6.20
  -1  12  -4  231.84    5.16
  -1  12  -4  225.90   10.03
  -1  12  -5   -0.77    2.14
  -1  12  -5    2.61    3.26
  -1  12  -6   66.18    4.20
  -1  12  -6   76.28    5.79
  -1  12  -7    7.34    3.07
  -1  12  -8  374.98   12.88
   1 -12   9   84.65    4.99
  -1  12  -9   82.59    6.14
   1 -12  10  202.84   12.61
  -1  12 -10  184.27    9.46
   1 -12  11   56.33    5.03
  -1  12 -11   44.59    9.84
   1 -12  12    4.44    3.91
  -1  12 -12   10.12    4.55
   1 -12  13   40.92    5.29
  -1  12 -13   24.38    6.06
   1 -12  14  280.40   20.37
  -1  12 -14  263.65   14.50
   1 -12  15    7.21    8.56
  -1  12 -15    6.43    5.39
   1 -12  16  288.10   23.11
  -1  12 -16  228.47   24.10
   1 -12  17    4.35    5.57
  -1  12 -17    2.46    5.46
   1 -12  18  105.70   10.76
  -1  12 -18  113.97   11.02
   1 -12  19   -4.56    6.16
  -1  12 -19   12.66    6.13
   1 -12  20  104.22   11.93
  -1  12 -20  108.46   11.83
   1 -12  21    9.41   12.05
  -1  12 -21    8.54   12.01
   1 -12  22   25.06   16.01
  -1  12 -22   66.64   10.23
   1 -12  23   -8.08   12.44
  -1  12 -23   -9.60    7.96
   1 -12  24   23.78    8.83
  -1  12 -24   19.73    9.29
   1 -12  25   14.04    8.14
  -1  12 -25    1.90    8.88
   1 -11 -19   72.89   10.74
   1 -11 -18    6.90    7.31
   1 -11 -18   14.64    4.97
   1 -11 -17   38.16    7.66
   1 -11 -17   16.87    4.50
  -1  11  17   17.16    3.56
   1 -11 -16    1.98   10.27
   1 -11 -16    3.30    3.38
  -1  11  16    1.43    2.69
   1 -11 -15    3.78    3.19
   1 -11 -15    3.94   10.03
  -1  11  15    4.30    4.30
   1 -11 -14    1.55    4.80
   1 -11 -14   11.89    9.63
  -1  11  14    4.04    4.47
   1 -11 -13   26.99    3.45
   1 -11 -13   34.17    7.18
  -1  11  13   34.56    3.17
   1 -11 -12    0.11    2.25
   1 -11 -12    3.48    5.18
  -1  11  12    5.93    2.15
   1 -11 -11    5.30    4.85
   1 -11 -11    1.71    1.83
  -1  11  11    1.13    5.32
  -1  11  11   -2.64    1.85
   1 -11 -10    8.14    5.04
   1 -11 -10    6.07    2.85
  -1  11  10   -2.88    5.62
  -1  11  10    4.18    2.89
   1 -11  -9   74.08    4.00
   1 -11  -9   78.71    7.56
  -1  11   9   76.22    4.25
  -1  11   9   65.41    8.19
   1 -11  -8    1.29    1.09
   1 -11  -8   -6.36    7.59
  -1  11   8   -1.24    4.77
  -1  11   8    0.73    2.07
   1 -11  -7    2.61    1.48
   1 -11  -7    6.03    4.51
  -1  11   7    5.98    1.76
  -1  11   7    1.15    4.93
   1 -11  -6  266.71   12.29
   1 -11  -6  242.80    3.64
  -1  11   6  269.21    5.07
  -1  11   6  298.42   20.92
   1 -11  -5  283.58   11.93
  -1  11   5  265.45   12.67
  -1  11   5  252.30    3.68
   1 -11  -4  401.54   16.41
  -1  11   4  429.98   17.29
   1 -11  -3    6.46    6.87
  -1  11   3    1.56    6.90
   1 -11  -2   19.52    4.57
  -1  11   2   20.13    4.59
  -1  11   1   70.14    5.79
  -1  11   0   43.95    0.81
  -1  11   0   51.80    8.32
  -1  11   0   45.56    1.05
  -1  11  -1   12.27    1.94
  -1  11  -1   16.54    3.85
  -1  11  -1   11.96    0.84
  -1  11  -2   62.04    5.32
  -1  11  -2   72.00    2.75
  -1  11  -2   67.57    3.73
  -1  11  -3  127.33    6.59
  -1  11  -3  127.23    2.94
  -1  11  -3  116.39    3.70
  -1  11  -4   31.77    3.94
  -1  11  -4   26.40    2.59
  -1  11  -5    7.18    5.67
  -1  11  -5    3.66    2.34
  -1  11  -6   79.25    5.12
  -1  11  -6   67.23    4.49
  -1  11  -7  103.60    9.06
   1 -11   8   74.80    4.65
  -1  11  -8   93.94    9.18
   1 -11   9  954.83   38.08
  -1  11  -9  898.66   31.43
   1 -11  10  389.29   13.15
  -1  11 -10  362.07   14.93
   1 -11  11  512.54   17.93
  -1  11 -11  513.31   20.16
   1 -11  12    9.83    6.85
  -1  11 -12    1.84    4.63
   1 -11  13   37.06    5.71
  -1  11 -13   28.84   10.54
   1 -11  14   -2.04    4.60
  -1  11 -14   -5.17    5.07
   1 -11  15  388.09   17.70
  -1  11 -15  325.05   18.29
   1 -11  16   -7.32    5.03
  -1  11 -16   10.97    5.25
   1 -11  17  158.43   11.80
  -1  11 -17  117.19   19.58
   1 -11  18   11.33    6.42
  -1  11 -18    9.72    6.37
   1 -11  19  151.78   11.90
  -1  11 -19   99.46   11.85
   1 -11  20   -1.83    6.11
  -1  11 -20    0.40    6.22
   1 -11  21  125.13   12.15
  -1  11 -21   89.14   12.17
   1 -11  22   42.90    9.19
  -1  11 -22   23.36   15.49
   1 -11  23   -5.41    7.19
  -1  11 -23    1.51    7.34
   1 -11  24   15.36   16.43
  -1  11 -24   38.24    9.99
   1 -11  25   15.08    8.81
  -1  11 -25   23.16    9.74
   1 -10 -20    4.25    7.19
   1 -10 -20   10.27    5.26
  -1  10  20    4.75    4.33
   1 -10 -19   -2.45    6.41
   1 -10 -19    4.49    4.91
  -1  10  19    5.33    3.95
   1 -10 -18   19.10    7.18
   1 -10 -18   10.23    5.32
  -1  10  18   17.80    6.85
   1 -10 -17    4.79    5.80
   1 -10 -17   -6.80    4.18
  -1  10  17    3.00    5.67
   1 -10 -16   10.69    5.64
   1 -10 -16    1.87    3.80
  -1  10  16   -0.71    3.20
   1 -10 -15   32.31    7.22
   1 -10 -15   29.50    4.38
  -1  10  15   28.35    3.89
   1 -10 -14    2.73    4.87
   1 -10 -14   -1.14    5.21
  -1  10  14    1.28    4.51
   1 -10 -13    0.92    5.73
   1 -10 -13    7.77    4.96
  -1  10  13   14.67    2.93
   1 -10 -12   18.16    2.93
   1 -10 -12   24.50    5.77
  -1  10  12   16.66    2.88
   1 -10 -11  119.44    8.68
   1 -10 -11  103.45    6.60
  -1  10  11   85.33    4.22
  -1  10  11  119.89    9.83
   1 -10 -10   32.14    2.58
   1 -10 -10   36.73   10.34
  -1  10  10   34.17    4.58
  -1  10  10   33.60    6.84
   1 -10  -9   46.34    6.33
   1 -10  -9   46.56    3.88
  -1  10   9   47.98    6.81
  -1  10   9   46.43    2.78
   1 -10  -8   32.03    5.60
   1 -10  -8   20.63    2.90
  -1  10   8   27.66    2.11
  -1  10   8   29.96    5.91
   1 -10  -7   -0.61    4.06
   1 -10  -7    0.14    1.07
  -1  10   7   -6.11    4.28
  -1  10   7    1.87    2.24
   1 -10  -6    0.41    0.88
   1 -10  -6    3.44    3.95
  -1  10   6    2.13    1.14
  -1  10   6   -1.70    7.34
   1 -10  -5  306.55    5.62
   1 -10  -5  325.63   13.23
  -1  10   5  293.75    6.41
  -1  10   5  297.57   13.14
   1 -10  -4   29.21    0.75
   1 -10  -4   49.92    8.16
  -1  10   4   38.25    1.03
  -1  10   4   42.05    5.04
   1 -10  -3  204.69    9.12
  -1  10   3  203.76   14.64
  -1  10   3  190.75    3.10
   1 -10  -2   25.55    4.24
  -1  10   2   27.19    4.15
  -1  10   2   19.75    0.78
  -1  10   2   24.50    0.88
  -1  10   1   38.90    4.55
  -1  10   1   44.97    1.19
  -1  10   1   41.44    1.27
  -1  10   0   19.43    1.24
  -1  10   0   23.12    3.74
  -1  10   0   16.58    1.48
  -1  10  -1   31.44    1.82
  -1  10  -1   34.80    4.01
  -1  10  -1   32.00    1.42
  -1  10  -2  345.55   16.43
  -1  10  -2  333.68    5.92
  -1  10  -2  336.98    8.63
  -1  10  -3  159.41    6.80
  -1  10  -3  152.41    6.37
  -1  10  -3  161.80    3.54
  -1  10  -4  853.03   24.95
  -1  10  -4  819.19   20.35
  -1  10  -5   27.23    3.71
  -1  10  -5   31.45    2.80
  -1  10  -6   46.91    6.25
   1 -10   7  171.46    5.75
  -1  10  -7  155.00    6.92
   1 -10   8   96.28    4.70
  -1  10  -8   63.65    5.68
   1 -10   9   73.29    4.96
  -1  10  -9   73.35    6.05
   1 -10  10 1014.90   42.90
  -1  10 -10  980.41   47.75
   1 -10  11  185.21    8.76
  -1  10 -11  154.50    9.89
   1 -10  12  509.38   19.32
  -1  10 -12  474.81   20.68
   1 -10  13    9.73    4.39
  -1  10 -13   -5.47    4.72
   1 -10  14   76.61    7.49
  -1  10 -14   64.18   13.54
   1 -10  15   96.87    8.74
  -1  10 -15   86.00    9.38
   1 -10  16  109.70    9.35
  -1  10 -16   91.79   10.04
   1 -10  17   98.80   10.19
  -1  10 -17  119.58   10.76
   1 -10  18    5.59    5.93
  -1  10 -18    4.60   10.27
   1 -10  19  107.34   10.80
  -1  10 -19   88.65   10.94
   1 -10  20   52.06    8.91
  -1  10 -20   50.50    9.56
   1 -10  21   23.25    7.71
  -1  10 -21   12.30    8.07
   1 -10  22   52.56    9.69
  -1  10 -22   31.02   16.44
   1 -10  23   35.37    9.70
  -1  10 -23   41.55    9.98
   1 -10  24    4.45    7.53
  -1  10 -24    0.41    7.72
   1 -10  25   87.32   20.65
  -1  10 -25   65.55   13.23
   1  -9 -21    4.89    5.63
   1  -9 -20    7.93    7.18
   1  -9 -20   16.73    5.80
  -1   9  20    3.10    7.84
   1  -9 -19  -10.66    6.17
   1  -9 -19    2.89    4.87
  -1   9  19   -3.10    4.03
   1  -9 -18    8.33    4.67
   1  -9 -18    5.22    5.98
  -1   9  18    0.03    3.94
   1  -9 -17    4.44    6.25
   1  -9 -17   10.21    4.77
  -1   9  17   13.47    3.93
   1  -9 -16   41.60    5.66
   1  -9 -16   39.35    7.58
  -1   9  16   44.24    7.97
   1  -9 -15   -0.19    3.68
   1  -9 -15   -7.94    5.39
  -1   9  15   -3.26    3.17
   1  -9 -14    9.60    5.44
   1  -9 -14   -0.47    3.48
  -1   9  14   13.58    3.20
   1  -9 -13   29.82    6.75
   1  -9 -13   50.58    7.08
  -1   9  13   50.55    6.98
   1  -9 -12   -1.23    8.16
   1  -9 -12   -6.37    2.64
  -1   9  12    0.14    2.77
   1  -9 -11   -1.17    4.52
   1  -9 -11    0.53    2.28
  -1   9  11    1.48    2.47
   1  -9 -10   60.95    5.33
   1  -9 -10   73.67    6.96
  -1   9  10   53.83    7.92
  -1   9  10   58.31    6.18
   1  -9  -9    5.06    4.98
   1  -9  -9   13.12    2.10
  -1   9   9   19.92    2.48
  -1   9   9   14.49    9.21
   1  -9  -8   19.09    4.47
   1  -9  -8    6.51    1.73
  -1   9   8    6.63    4.85
  -1   9   8    8.80    3.40
   1  -9  -7  200.76   10.59
   1  -9  -7  210.34    4.60
  -1   9   7  221.60    5.42
  -1   9   7  222.50   10.62
   1  -9  -6   90.47    6.63
   1  -9  -6   87.35    3.35
  -1   9   6   85.03    4.35
  -1   9   6   76.53    7.07
   1  -9  -5  279.40    5.91
   1  -9  -5  275.72   17.47
  -1   9   5  298.73   11.59
  -1   9   5  273.54    7.27
   1  -9  -4   58.12    4.93
   1  -9  -4   45.34    1.81
  -1   9   4   57.83    4.94
  -1   9   4   49.67    2.46
   1  -9  -3  435.67   20.53
  -1   9   3  425.73    7.79
  -1   9   3  415.31   20.85
   1  -9  -2   44.79    4.23
  -1   9   2   40.80    1.44
  -1   9   2   43.09    4.32
   1  -9  -1  123.80    6.24
  -1   9   1  135.38    2.59
  -1   9   1  126.37    6.27
  -1   9   1  125.22    2.41
  -1   9   0  400.67    6.05
  -1   9   0  400.79   12.23
  -1   9   0  394.97    7.45
  -1   9  -1    3.00    0.88
  -1   9  -1    3.62    1.70
  -1   9  -1    7.66    2.81
  -1   9  -2   26.92    1.69
  -1   9  -2   35.18    3.52
  -1   9  -2   25.98    1.45
  -1   9  -3  994.35   28.56
  -1   9  -3  980.88   23.33
  -1   9  -4  945.15   23.68
  -1   9  -4 1004.08   28.77
  -1   9  -5  992.17   26.71
   1  -9   6    7.55    2.13
  -1   9  -6    1.47    2.55
   1  -9   7    3.43    2.40
  -1   9  -7    8.08    4.88
   1  -9   8  288.93    9.04
  -1   9  -8  269.01   10.36
   1  -9   9   33.23    4.24
  -1   9  -9   47.83    4.92
   1  -9  10   31.42    4.35
  -1   9 -10   24.22    5.14
   1  -9  11  232.60   10.24
  -1   9 -11  184.40   18.11
   1  -9  12   25.02    5.04
  -1   9 -12   20.46    5.72
   1  -9  13  376.74   26.07
  -1   9 -13  397.16   18.05
   1  -9  14    8.05    9.01
  -1   9 -14   12.86    5.80
   1  -9  15  113.26   15.40
  -1   9 -15  106.12   10.07
   1  -9  16  119.68   16.34
  -1   9 -16  102.04   10.61
   1  -9  17   -5.13    8.99
  -1   9 -17    3.14    5.55
   1  -9  18  252.07   15.88
  -1   9 -18  245.01   25.87
   1  -9  19   -0.43    5.99
  -1   9 -19   -4.65    6.04
   1  -9  20   87.41   10.91
  -1   9 -20   90.75   11.02
   1  -9  21   77.12   10.98
  -1   9 -21   83.57   11.11
   1  -9  22    9.34    7.37
  -1   9 -22    8.39   12.69
   1  -9  23   68.38   10.76
  -1   9 -23   55.45   11.19
   1  -9  24   85.18   11.87
  -1   9 -24   59.83   12.48
   1  -9  25    4.18    8.02
  -1   9 -25    5.40    8.46
   1  -9  26    4.41   13.61
  -1   9 -26    8.18   15.10
   1  -8 -21   15.57    5.97
   1  -8 -21    6.51    6.91
  -1   8  21    7.52    5.09
   1  -8 -20   10.56    5.91
   1  -8 -20   -3.11    8.28
  -1   8  20   -6.31    4.27
   1  -8 -19   20.02    6.61
   1  -8 -19   12.07    9.19
  -1   8  19   12.66    4.69
   1  -8 -18   11.97    8.66
   1  -8 -18    8.51   10.80
  -1   8  18   16.98    7.59
   1  -8 -17    2.93    8.99
   1  -8 -17   -6.91    4.18
  -1   8  17    3.52    3.69
   1  -8 -16   -9.61    8.85
   1  -8 -16    3.04    4.09
  -1   8  16    5.22    3.63
   1  -8 -15    7.83    8.58
   1  -8 -15    0.24    6.22
  -1   8  15    1.46    5.80
   1  -8 -14  199.09   14.27
   1  -8 -14  217.14   12.35
  -1   8  14  190.27    8.70
   1  -8 -13  252.11   14.81
   1  -8 -13  258.91   13.82
  -1   8  13  267.84    9.70
   1  -8 -12  418.10   18.41
   1  -8 -12  398.03   13.15
  -1   8  12  419.78   19.56
   1  -8 -11  188.09   10.63
   1  -8 -11  163.34    6.53
  -1   8  11  187.29    7.08
   1  -8 -10  211.01    9.91
   1  -8 -10  203.95   11.02
  -1   8  10  202.34    7.15
  -1   8  10  221.47   12.88
   1  -8  -9   69.72    3.41
   1  -8  -9   65.78    6.65
  -1   8   9   67.89    7.47
  -1   8   9   69.20    4.01
   1  -8  -8  319.18   10.64
   1  -8  -8  354.74   21.19
  -1   8   8  329.84    8.75
  -1   8   8  331.66   14.28
   1  -8  -7  119.39    5.10
   1  -8  -7  121.79    7.51
  -1   8   7  122.88    7.69
  -1   8   7  122.74    4.23
   1  -8  -6  214.37    9.12
   1  -8  -6  199.57    4.14
  -1   8   6  190.03    9.35
  -1   8   6  211.04    7.34
   1  -8  -5   58.67    5.26
   1  -8  -5   68.32    2.86
  -1   8   5   74.37    3.77
  -1   8   5   66.09    5.23
   1  -8  -4  540.88   16.63
   1  -8  -4  513.38    8.73
  -1   8   4  521.08    9.38
  -1   8   4  522.89   23.48
   1  -8  -3  405.23   12.80
   1  -8  -3  403.42    7.37
  -1   8   3  420.31   13.05
  -1   8   3  412.86    6.59
   1  -8  -2 1066.86   31.22
  -1   8   2 1042.62   20.41
  -1   8   2 1055.71   31.63
   1  -8  -1   29.30    5.79
  -1   8   1   25.05    0.92
  -1   8   1   24.76    3.53
  -1   8   0   18.46    1.57
  -1   8   0   10.30    3.08
  -1   8   0   15.75    1.52
  -1   8  -1 1245.68   27.87
  -1   8  -1 1227.02   36.24
  -1   8  -1 1212.13   27.00
  -1   8  -2   93.85    4.61
  -1   8  -2   89.31    2.43
  -1   8  -2   93.63    2.61
  -1   8  -3  242.10    5.56
  -1   8  -3  247.66   11.76
  -1   8  -4  455.59   14.72
   1  -8   5  250.44    6.40
  -1   8  -5  236.55    7.03
   1  -8   6  686.45   17.16
  -1   8  -6  659.23   25.38
   1  -8   7    1.65    2.36
  -1   8  -7    0.13    2.75
   1  -8   8   24.71    3.45
  -1   8  -8   21.62    3.81
   1  -8   9  258.09    9.64
  -1   8  -9  254.58   10.70
   1  -8  10    4.69    3.73
  -1   8 -10    9.48    4.13
   1  -8  11  334.88   21.52
  -1   8 -11  350.28   15.07
   1  -8  12   63.20    6.50
  -1   8 -12   49.43    7.02
   1  -8  13   92.99    7.63
  -1   8 -13   64.66    8.04
   1  -8  14  283.83   15.47
  -1   8 -14  319.31   16.39
   1  -8  15  309.45   16.69
  -1   8 -15  333.61   27.26
   1  -8  16  483.01   24.07
  -1   8 -16  498.75   24.67
   1  -8  17   21.45    6.74
  -1   8 -17   12.41    6.90
   1  -8  18   10.75    9.98
  -1   8 -18    0.62    6.17
   1  -8  19   86.59   17.71
  -1   8 -19   93.31   10.68
   1  -8  20   60.19    9.70
  -1   8 -20   73.55    9.96
   1  -8  21    9.51    6.47
  -1   8 -21   -4.71    6.78
   1  -8  22  114.96   12.82
  -1   8 -22  113.07   13.56
   1  -8  23   13.59    7.57
  -1   8 -23    6.49    7.84
   1  -8  24   95.70   12.53
  -1   8 -24   74.78   13.10
   1  -8  25   -9.36    7.68
  -1   8 -25    4.40    8.35
   1  -8  26   36.12   18.14
  -1   8 -26   41.81   19.14
   1  -7 -22   -1.86    6.44
   1  -7 -22   -0.16    5.73
  -1   7  22   -8.96    5.19
   1  -7 -21    7.42    6.38
   1  -7 -21    6.14    5.66
  -1   7  21    6.54    5.04
   1  -7 -20   22.89    6.57
   1  -7 -20   33.87    7.20
  -1   7  20   30.08    9.50
   1  -7 -19   92.05    9.39
   1  -7 -19  136.13   10.49
  -1   7  19  110.30    8.42
   1  -7 -18  141.48   10.49
   1  -7 -18  107.62    9.15
  -1   7  18  113.92    8.29
   1  -7 -17   29.43    5.75
   1  -7 -17   34.27    6.87
  -1   7  17   35.67    8.52
   1  -7 -16    3.42    7.04
   1  -7 -16    2.69    4.99
  -1   7  16    5.03    3.91
   1  -7 -15   18.10    7.51
   1  -7 -15   12.53    5.60
  -1   7  15   18.00    4.28
   1  -7 -14   24.12    4.46
   1  -7 -14   17.45    5.84
  -1   7  14   31.82    7.18
   1  -7 -13  332.92   16.29
   1  -7 -13  326.56   12.66
  -1   7  13  369.96   12.98
   1  -7 -12  366.63   12.72
   1  -7 -12  379.04   16.75
  -1   7  12  393.69   13.25
   1  -7 -11  552.51   16.70
   1  -7 -11  597.08   22.44
  -1   7  11  572.52   25.24
   1  -7 -10  161.80    6.03
   1  -7 -10  178.47    9.50
  -1   7  10  168.87    6.93
   1  -7  -9  329.28   21.12
   1  -7  -9  331.89    8.99
  -1   7   9  334.29   14.74
  -1   7   9  336.68   15.18
   1  -7  -8  102.21    6.78
   1  -7  -8   95.35    3.67
  -1   7   8  100.19    7.43
  -1   7   8  101.50    4.44
   1  -7  -7  133.73    3.96
   1  -7  -7  136.52    7.36
  -1   7   7  140.94    7.52
  -1   7   7  138.24    4.58
   1  -7  -6   48.36    7.24
   1  -7  -6   35.50    1.93
  -1   7   6   43.04    4.56
  -1   7   6   33.48    3.93
   1  -7  -5  201.01    8.05
   1  -7  -5  205.33    5.54
  -1   7   5  208.46    6.63
  -1   7   5  226.24   13.24
   1  -7  -4  134.94    3.78
   1  -7  -4  129.07   10.05
  -1   7   4  135.60    2.99
  -1   7   4  124.77    6.41
   1  -7  -3  230.75    8.03
   1  -7  -3  223.90    4.68
  -1   7   3  221.08    8.12
  -1   7   3  225.56    3.76
   1  -7  -2  502.95    9.48
   1  -7  -2  511.52   14.19
  -1   7   2  504.21    8.10
  -1   7   2  510.66   14.48
   1  -7  -1 1603.93   49.96
  -1   7   1 1656.65   39.56
  -1   7   1 1600.84   50.70
   1  -7   0   41.46    3.38
  -1   7   0   36.31    1.22
  -1   7   0   34.88    2.04
  -1   7   0   36.36    3.33
  -1   7  -1   59.01    1.83
  -1   7  -1   61.67    6.35
  -1   7  -1   66.51    1.83
  -1   7  -2 2804.92  103.43
  -1   7  -2 2824.54   94.29
  -1   7  -3  245.84    7.33
  -1   7  -3  250.71    5.71
  -1   7  -4  152.99    4.77
   1  -7   5  371.32   12.56
  -1   7  -5  350.80    9.72
   1  -7   6    3.41    2.31
  -1   7  -6    5.49    2.65
   1  -7   7  452.85   12.65
  -1   7  -7  439.40   13.62
   1  -7   8  153.85    6.63
  -1   7  -8  153.89    7.39
   1  -7   9  648.28   27.74
  -1   7  -9  619.60   30.31
   1  -7  10  142.07    7.69
  -1   7 -10  159.67    8.63
   1  -7  11  320.71   12.79
  -1   7 -11  292.82   13.39
   1  -7  12  245.84   12.10
  -1   7 -12  263.78   20.52
   1  -7  13   63.26    6.86
  -1   7 -13   39.94    7.15
   1  -7  14   50.97    6.92
  -1   7 -14   42.00    7.51
   1  -7  15  793.44   34.92
  -1   7 -15  858.65   52.62
   1  -7  16  595.95   28.08
  -1   7 -16  616.75   29.23
   1  -7  17  738.00   34.32
  -1   7 -17  738.49   34.95
   1  -7  18   19.42    6.89
  -1   7 -18   18.68    7.32
   1  -7  19   61.68    9.22
  -1   7 -19   58.25   15.53
   1  -7  20   24.76   11.76
  -1   7 -20    6.71    7.20
   1  -7  21  149.72   12.69
  -1   7 -21  127.43   13.59
   1  -7  22   11.06    7.33
  -1   7 -22    8.35    7.61
   1  -7  23   79.23   10.93
  -1   7 -23   60.78   11.47
   1  -7  24   21.92    9.02
  -1   7 -24   26.77    9.46
   1  -7  25   38.24   10.25
  -1   7 -25   34.97   10.85
   1  -7  26    3.42    8.01
  -1   7 -26    7.67   14.42
   1  -6 -23    3.86    6.88
   1  -6 -23   22.54    6.68
  -1   6  23    6.74    5.90
   1  -6 -22   -6.91    9.49
   1  -6 -22    9.04    6.08
  -1   6  22    1.66    5.12
   1  -6 -21    0.87    9.63
   1  -6 -21   -3.54    9.11
  -1   6  21    9.11    8.36
   1  -6 -20    1.31    5.44
   1  -6 -20    2.63    9.86
  -1   6  20   10.14    4.98
   1  -6 -19   60.53    7.88
   1  -6 -19   70.74    8.40
  -1   6  19   67.57    7.11
   1  -6 -18   68.04    7.53
   1  -6 -18   68.47    8.11
  -1   6  18   58.13   10.92
   1  -6 -17   41.38    6.19
   1  -6 -17   44.96    6.82
  -1   6  17   39.64    6.00
   1  -6 -16   -1.69    4.86
   1  -6 -16    8.25    4.32
  -1   6  16    5.24    4.04
   1  -6 -15   63.36    6.61
   1  -6 -15   36.27    5.64
  -1   6  15   32.41    8.77
   1  -6 -14   13.16    5.31
   1  -6 -14    9.89    4.33
  -1   6  14   18.36    4.28
   1  -6 -13   26.07    4.43
   1  -6 -13   23.64    5.83
  -1   6  13   32.46    4.51
   1  -6 -12   31.87    5.63
   1  -6 -12   29.96    4.30
  -1   6  12   47.54    7.70
   1  -6 -11    7.56    2.88
   1  -6 -11   -1.95    4.13
  -1   6  11   -3.45    3.17
   1  -6 -10   69.90    7.07
   1  -6 -10   68.47   10.30
  -1   6  10   70.17    8.13
   1  -6  -9   26.38    4.33
   1  -6  -9   18.62    2.77
  -1   6   9   19.32    3.32
   1  -6  -8  172.73    5.28
   1  -6  -8  174.03    8.15
  -1   6   8  192.50    9.04
  -1   6   8  197.21    9.72
   1  -6  -7   38.01    4.10
   1  -6  -7   31.65    2.28
  -1   6   7   32.23    7.33
  -1   6   7   26.98    2.86
   1  -6  -6  123.97    3.57
   1  -6  -6  140.99   10.19
  -1   6   6  124.59    6.54
  -1   6   6  133.86    4.10
   1  -6  -5  616.45   12.37
   1  -6  -5  626.92   18.34
  -1   6   5  619.53   18.44
  -1   6   5  611.36   13.14
   1  -6  -4  509.15    9.32
   1  -6  -4  549.59   14.92
  -1   6   4  511.88   14.83
  -1   6   4  507.65    9.75
   1  -6  -3  318.89    9.54
   1  -6  -3  317.98    6.78
  -1   6   3  304.20    9.65
  -1   6   3  318.26    5.36
   1  -6  -2  712.42   14.48
   1  -6  -2  706.28   18.95
  -1   6   2  677.75   18.38
  -1   6   2  687.55   12.42
   1  -6  -1  303.77    4.82
   1  -6  -1  309.43    8.92
  -1   6   1  297.85    4.72
  -1   6   1  314.53    9.13
   1  -6   0 1086.54   30.09
  -1   6   0 1064.47   29.50
  -1   6   0 1097.83   25.57
  -1   6  -1  200.05    5.73
  -1   6  -1  190.55    6.47
  -1   6  -1  197.65    3.93
  -1   6  -2   75.66    3.80
  -1   6  -2   62.54    4.19
  -1   6  -3  119.76    6.54
   1  -6   4   67.29    3.20
  -1   6  -4   63.89    6.15
   1  -6   5    9.27    2.41
  -1   6  -5    9.46    2.72
   1  -6   6    9.37    2.68
  -1   6  -6    6.50    2.96
   1  -6   7    3.61    2.76
  -1   6  -7    2.74    5.06
   1  -6   8  536.90   23.04
  -1   6  -8  499.64   16.58
   1  -6   9  904.15   28.49
  -1   6  -9  874.86   28.83
   1  -6  10 2196.45   84.29
  -1   6 -10 2115.92   84.47
   1  -6  11  187.81    9.33
  -1   6 -11  186.82   10.24
   1  -6  12  190.49   10.35
  -1   6 -12  198.19   17.88
   1  -6  13   84.47    7.77
  -1   6 -13   83.52    8.25
   1  -6  14   91.55    8.32
  -1   6 -14   70.82    8.66
   1  -6  15   75.88    8.09
  -1   6 -15   51.34   14.67
   1  -6  16  326.22   18.38
  -1   6 -16  360.06   19.31
   1  -6  17  103.72   10.94
  -1   6 -17  119.23   11.17
   1  -6  18  211.56   14.90
  -1   6 -18  217.57   15.64
   1  -6  19    1.63    5.92
  -1   6 -19    1.28    5.93
   1  -6  20   89.01   10.68
  -1   6 -20   86.59   11.02
   1  -6  21    1.08   12.65
  -1   6 -21   26.55    8.08
   1  -6  22   42.37    9.01
  -1   6 -22   31.67   15.63
   1  -6  23   41.64    9.81
  -1   6 -23   48.62   10.22
   1  -6  24   -0.62    6.99
  -1   6 -24    5.68    7.54
   1  -6  25   60.94   11.79
  -1   6 -25   83.08   12.69
   1  -6  26    3.50    7.73
  -1   6 -26    1.06   13.93
   1  -5 -23  -10.57    6.00
   1  -5 -23    2.13    5.85
  -1   5  23    7.70    5.20
   1  -5 -22    8.18    6.18
   1  -5 -22    9.54    6.08
  -1   5  22    0.66    9.39
   1  -5 -21   78.49    8.67
   1  -5 -21   61.22    8.62
  -1   5  21   57.74    7.98
   1  -5 -20   26.41    6.91
   1  -5 -20   37.28    7.26
  -1   5  20   38.60    6.33
   1  -5 -19   32.09    6.48
   1  -5 -19   16.45    6.12
  -1   5  19   28.52    9.95
   1  -5 -18   -0.14    9.54
   1  -5 -18   12.70    8.67
  -1   5  18   15.31    5.02
   1  -5 -17   -0.82    7.49
   1  -5 -17   -6.77    8.29
  -1   5  17   -2.68    4.27
   1  -5 -16   32.73    6.51
   1  -5 -16   47.65    9.59
  -1   5  16   49.43    9.67
   1  -5 -15  100.98    8.82
   1  -5 -15  120.57    8.03
  -1   5  15  114.78    7.97
   1  -5 -14   90.43    8.29
   1  -5 -14  102.51    7.19
  -1   5  14  116.95    7.30
   1  -5 -13   43.42    6.18
   1  -5 -13   46.58    5.18
  -1   5  13   55.44    9.14
   1  -5 -12  234.17    9.98
   1  -5 -12  243.65   11.77
  -1   5  12  250.72   10.33
   1  -5 -11  130.90   13.55
   1  -5 -11  139.54   10.70
  -1   5  11  147.09   11.59
   1  -5 -10  222.31   15.09
   1  -5 -10  201.46    7.56
  -1   5  10  204.12    8.50
   1  -5  -9   43.34    4.59
   1  -5  -9   35.15    3.38
  -1   5   9   44.45    6.44
   1  -5  -8  204.41    6.23
   1  -5  -8  195.68    8.32
  -1   5   8  212.13    7.02
   1  -5  -7  387.10    9.49
   1  -5  -7  398.62   12.86
  -1   5   7  415.17   14.01
  -1   5   7  410.95   10.50
   1  -5  -6  359.62   11.47
   1  -5  -6  377.41   17.47
  -1   5   6  373.38    9.02
  -1   5   6  377.80   11.91
   1  -5  -5   81.63    4.57
   1  -5  -5   73.32    2.65
  -1   5   5   79.15    3.00
  -1   5   5   74.68    7.95
   1  -5  -4   77.64    4.51
   1  -5  -4   72.16    2.33
  -1   5   4   74.05    4.22
  -1   5   4   80.15    4.78
   1  -5  -3  143.37    4.45
   1  -5  -3  138.93    9.63
  -1   5   3  145.79    6.09
  -1   5   3  146.58    4.89
   1  -5  -2    3.81    4.71
   1  -5  -2    5.57    1.08
  -1   5   2   10.18    4.85
  -1   5   2    6.95    1.97
   1  -5  -1  485.36   10.24
   1  -5  -1  483.28   12.77
  -1   5   1  475.75    8.09
  -1   5   1  479.26   12.71
   1  -5   0  126.59    5.05
  -1   5   0  140.40    5.25
  -1   5   0  145.17    2.88
  -1   5  -1 1287.97   34.88
  -1   5  -1 1325.83   31.24
  -1   5  -1 1294.88   30.25
  -1   5  -2   16.73    1.98
  -1   5  -2   18.31    2.50
  -1   5  -3  100.76    3.90
   1  -5   4  447.20   11.12
  -1   5  -4  446.80   11.63
   1  -5   5   11.66    5.18
  -1   5  -5   19.44    3.22
   1  -5   6   92.18    4.79
  -1   5  -6   89.42    5.35
   1  -5   7  419.64   18.75
  -1   5  -7  406.19   12.96
   1  -5   8  154.05    7.02
  -1   5  -8  132.54    7.22
   1  -5   9  272.60   10.52
  -1   5  -9  254.38   10.74
   1  -5  10  285.25   11.39
  -1   5 -10  263.72   11.82
   1  -5  11  781.94   27.11
  -1   5 -11  760.25   28.21
   1  -5  12   -1.99    4.06
  -1   5 -12   13.07    7.53
   1  -5  13   10.36    5.47
  -1   5 -13   31.95    5.86
   1  -5  14  117.64    9.10
  -1   5 -14  125.83   10.09
   1  -5  15    7.47    5.28
  -1   5 -15   -5.20    9.64
   1  -5  16   45.95    7.70
  -1   5 -16   48.65    8.17
   1  -5  17    4.74    5.81
  -1   5 -17    4.42    6.13
   1  -5  18  102.70   10.42
  -1   5 -18   93.27   10.92
   1  -5  19   21.18    7.17
  -1   5 -19   26.64    7.56
   1  -5  20   43.21    8.01
  -1   5 -20   16.97    8.24
   1  -5  21   49.88   15.78
  -1   5 -21   49.48    9.47
   1  -5  22   12.03    6.82
  -1   5 -22   -0.22   12.23
  -1   5 -22   -4.97   12.29
   1  -5  23    8.39    7.16
  -1   5 -23    5.16    7.51
   1  -5  24   91.62   11.60
  -1   5 -24   70.53   12.44
   1  -5  25  -12.94    7.68
  -1   5 -25    1.10    8.37
   1  -5  26   28.47    9.86
  -1   5 -26   32.41   10.58
   1  -4 -24   -8.82    6.78
   1  -4 -24   -6.26    6.22
  -1   4  24   -3.20    6.05
   1  -4 -23   10.76    9.51
   1  -4 -23   -6.28    5.97
  -1   4  23    0.99    9.25
   1  -4 -22   51.36    8.24
   1  -4 -22   55.96    8.37
  -1   4  22   41.01    7.81
   1  -4 -21   40.96   13.03
   1  -4 -21   46.12    7.81
  -1   4  21   54.68    7.35
   1  -4 -20  133.00   11.40
   1  -4 -20  149.07   11.08
  -1   4  20  164.48   17.54
   1  -4 -19   13.02    5.70
   1  -4 -19   14.17    5.73
  -1   4  19   13.05    5.46
   1  -4 -18   21.46    5.81
   1  -4 -18   20.28    6.18
  -1   4  18   28.06    5.71
   1  -4 -17   10.52    5.28
   1  -4 -17   18.36    5.16
  -1   4  17    5.87    8.41
   1  -4 -16   77.56    7.14
   1  -4 -16   91.04   12.68
  -1   4  16   67.76    7.13
   1  -4 -15   33.92   10.15
   1  -4 -15   37.00    5.61
  -1   4  15   41.45    5.71
   1  -4 -14    7.52    4.20
   1  -4 -14   17.57    8.03
  -1   4  14    4.82    7.56
   1  -4 -13   15.90    7.81
   1  -4 -13   10.07    4.03
  -1   4  13    5.49    4.30
   1  -4 -12   13.83    8.22
   1  -4 -12   19.05    4.26
  -1   4  12   25.64    4.56
   1  -4 -11   74.19   10.29
   1  -4 -11   67.68    5.17
  -1   4  11   76.58    5.69
   1  -4 -10   64.66    4.77
   1  -4 -10   77.01    9.55
  -1   4  10   87.09    5.34
   1  -4  -9    1.54    2.47
   1  -4  -9   -1.12    3.07
  -1   4   9    0.42    2.75
   1  -4  -8  279.75   12.38
   1  -4  -8  280.55   10.09
  -1   4   8  300.32   13.85
   1  -4  -7 2527.60   90.78
   1  -4  -7 2582.19   97.77
  -1   4   7 2629.49   95.28
   1  -4  -6  545.85   15.64
   1  -4  -6  522.36   16.35
  -1   4   6  557.67   16.77
  -1   4   6  538.24   13.30
   1  -4  -5  463.85   13.73
   1  -4  -5  478.85   14.28
  -1   4   5  481.48   14.16
  -1   4   5  495.70   11.38
   1  -4  -4   22.22    1.91
   1  -4  -4   25.47    3.40
  -1   4   4   24.38    2.14
  -1   4   4   26.46    6.22
   1  -4  -3   80.13    4.67
   1  -4  -3   81.08    2.57
  -1   4   3   86.58    2.70
  -1   4   3   98.24    7.97
   1  -4  -2  249.53    4.61
   1  -4  -2  257.75    7.67
  -1   4   2  255.85    4.73
  -1   4   2  255.07    7.69
   1  -4  -1  248.17    4.44
   1  -4  -1  256.16    7.14
  -1   4   1  251.66    7.03
  -1   4   1  251.62    4.44
   1  -4   0  220.75    5.95
  -1   4   0  227.65    6.10
  -1   4   0  237.75    6.31
  -1   4  -1 1482.33   36.98
  -1   4  -1 1470.39   45.56
  -1   4  -2  173.33    4.42
   1  -4   3  489.09   11.56
  -1   4  -3  467.53   11.47
   1  -4   4  328.06    8.99
  -1   4  -4  323.78    9.47
   1  -4   5  233.37    8.13
  -1   4  -5  231.11    8.47
   1  -4   6  209.57   12.69
  -1   4  -6  193.97   13.53
   1  -4   7  866.94   25.65
  -1   4  -7  817.96   25.54
   1  -4   8 1303.70   40.93
  -1   4  -8 1239.88   41.04
   1  -4   9  786.78   25.14
  -1   4  -9  756.51   25.22
   1  -4  10  103.09    6.79
  -1   4 -10  106.60    7.33
   1  -4  11  202.48   15.98
  -1   4 -11  217.25   10.80
   1  -4  12    4.02    6.95
  -1   4 -12    4.41    7.71
   1  -4  13  101.19   13.89
  -1   4 -13  112.24    9.04
   1  -4  14    6.18    4.87
  -1   4 -14    1.38    5.39
   1  -4  15   30.59    6.46
  -1   4 -15   13.32   11.39
   1  -4  16   16.06    5.96
  -1   4 -16    9.23    6.43
   1  -4  17   25.59    7.47
  -1   4 -17   49.86    7.82
   1  -4  18   35.21    7.43
  -1   4 -18   25.33   13.26
   1  -4  19  278.24   16.51
  -1   4 -19  248.68   16.96
   1  -4  20    3.94    6.04
  -1   4 -20    0.20    6.23
   1  -4  21    7.28   12.10
  -1   4 -21   18.81    7.60
   1  -4  22  139.40   13.59
  -1   4 -22  164.80   14.26
   1  -4  23    9.00    7.19
  -1   4 -23   11.68    7.59
   1  -4  24    4.54    7.89
  -1   4 -24   18.57    5.78
  -1   4 -24   15.87    8.37
   1  -4  25   50.88    9.94
  -1   4 -25   37.89   18.10
   1  -4  26    8.86    8.85
  -1   4 -26   16.66    9.22
  -1   4 -26   22.31    6.16
   1  -3 -25    6.52    6.70
   1  -3 -25    9.13    7.22
  -1   3  25    7.73    6.65
   1  -3 -24   15.65    6.53
   1  -3 -24    7.14    7.10
  -1   3  24    7.27   11.38
   1  -3 -23   -4.57    5.81
   1  -3 -23   11.12   10.29
  -1   3  23    8.02    5.74
   1  -3 -22    9.79    5.77
   1  -3 -22   10.55    6.13
  -1   3  22   -0.50    5.70
   1  -3 -21   26.49    7.17
   1  -3 -21    5.74   11.17
  -1   3  21   49.83   11.14
   1  -3 -20    2.78    5.40
   1  -3 -20    0.37    5.37
  -1   3  20    7.25    5.25
   1  -3 -19   -1.47    4.92
   1  -3 -19   -4.16    4.89
  -1   3  19    0.91    4.90
   1  -3 -18   64.77    7.34
   1  -3 -18   55.53    7.29
  -1   3  18   58.09    7.24
   1  -3 -17   -8.10    7.49
   1  -3 -17    5.51    4.46
  -1   3  17   -4.19    4.56
   1  -3 -16   15.11    5.13
   1  -3 -16   16.91    8.66
  -1   3  16   12.26    5.18
   1  -3 -15    6.71    4.62
   1  -3 -15    6.98    4.57
  -1   3  15   10.24    7.80
   1  -3 -14   53.32    6.22
   1  -3 -14   62.82   10.77
  -1   3  14   65.21    6.57
   1  -3 -13  187.58    9.73
   1  -3 -13  210.46   16.19
  -1   3  13  191.71   10.08
   1  -3 -12  488.05   17.33
   1  -3 -12  486.06   17.47
  -1   3  12  504.67   27.45
   1  -3 -11  215.99    9.47
   1  -3 -11  212.83    9.15
  -1   3  11  230.59    9.82
   1  -3 -10   24.59    3.88
   1  -3 -10   32.24    4.14
  -1   3  10   21.63    6.93
   1  -3  -9   12.05    3.52
   1  -3  -9    6.68    5.27
  -1   3   9   10.45    3.35
   1  -3  -8  364.15   10.66
   1  -3  -8  363.80   17.69
  -1   3   8  358.97   11.14
   1  -3  -7  106.64    4.58
   1  -3  -7  100.58    5.39
  -1   3   7  106.31    8.12
   1  -3  -6  894.82   23.01
   1  -3  -6  890.62   25.77
  -1   3   6  907.90   24.32
   1  -3  -5  125.24    6.14
   1  -3  -5  139.97    7.20
  -1   3   5  135.42    8.01
   1  -3  -4   78.05    4.20
   1  -3  -4   61.87    2.93
  -1   3   4   58.33    4.69
  -1   3   4   63.42    3.13
   1  -3  -3   -1.41    4.48
   1  -3  -3    3.67    1.55
  -1   3   3    4.49    1.62
  -1   3   3    2.62    2.58
   1  -3  -2 1254.89   32.63
   1  -3  -2 1235.71   32.37
  -1   3   2 1287.55   29.32
  -1   3   2 1257.47   32.93
   1  -3  -1   12.09    2.19
   1  -3  -1    9.23    1.92
  -1   3   1    7.64    3.31
  -1   3   1   13.92    2.20
   1  -3   0  339.34    6.61
   1  -3   0  343.03    8.27
  -1   3   0  332.28    6.36
  -1   3   0  347.98    6.02
  -1   3  -1    4.48    1.22
  -1   3  -2 2042.53   58.31
   1  -3   3  748.74   17.61
  -1   3  -3  727.33   17.03
   1  -3   4   -1.75    4.28
  -1   3  -4    3.18    2.57
   1  -3   5    8.77    3.22
  -1   3  -5   12.43    3.39
   1  -3   6    1.01    3.10
  -1   3  -6   -6.34    5.61
   1  -3   7   89.16    5.78
  -1   3  -7   86.38    5.86
   1  -3   8  402.58   13.54
  -1   3  -8  413.06   14.25
   1  -3   9  318.27   18.40
  -1   3  -9  327.76   12.43
   1  -3  10  531.45   26.83
  -1   3 -10  493.71   18.09
   1  -3  11   88.55   10.49
  -1   3 -11   60.96    6.65
   1  -3  12  415.61   25.18
  -1   3 -12  377.78   25.21
   1  -3  13   21.51    8.97
  -1   3 -13   19.34    5.70
   1  -3  14    9.69    9.27
  -1   3 -14   19.63    6.04
   1  -3  15  391.24   18.26
  -1   3 -15  359.24   18.86
   1  -3  16  237.45   14.31
  -1   3 -16  224.96   14.98
   1  -3  17  319.05   17.47
  -1   3 -17  306.67   18.43
   1  -3  18    7.98    6.10
  -1   3 -18   16.59   10.81
   1  -3  19   -5.30    5.55
  -1   3 -19    4.77    5.68
   1  -3  20   33.81    7.65
  -1   3 -20   24.53    8.03
   1  -3  21   49.92   14.91
  -1   3 -21   43.30   15.34
  -1   3 -21   50.74    6.67
   1  -3  22   36.14    7.72
  -1   3 -22   24.25    5.99
  -1   3 -22   27.37    8.31
   1  -3  23  102.19   11.57
  -1   3 -23   98.63   12.58
   1  -3  24    8.66    6.86
  -1   3 -24   -6.65    7.43
  -1   3 -24    4.89    4.91
   1  -3  25   19.58    8.08
  -1   3 -25   13.69    5.87
  -1   3 -25   11.84    8.76
   1  -3  26    5.56   12.82
  -1   3 -26   -4.60    5.52
  -1   3 -26   21.78    8.11
   1  -2 -25   34.24    7.93
   1  -2 -25    5.10   14.78
  -1   2  25   47.08   13.74
   1  -2 -24   12.73   11.38
   1  -2 -24   18.25    7.47
  -1   2  24    8.77    6.92
   1  -2 -23   82.54   10.94
   1  -2 -23   94.11    9.98
  -1   2  23  100.94   10.28
   1  -2 -22    1.72    5.27
   1  -2 -22    2.52    5.86
  -1   2  22    1.15    5.45
   1  -2 -21   18.87    6.33
   1  -2 -21   28.79    6.79
  -1   2  21   18.53    6.89
   1  -2 -20   -2.05    8.91
   1  -2 -20    5.28    4.90
  -1   2  20   -0.56    5.19
   1  -2 -19  187.74   19.66
   1  -2 -19  200.04   18.39
  -1   2  19  171.33   11.89
   1  -2 -18   85.54    9.28
   1  -2 -18  125.07    8.61
  -1   2  18   78.03   15.13
   1  -2 -17  214.83   12.95
   1  -2 -17  218.56   12.03
  -1   2  17  241.72   13.17
   1  -2 -16   -3.34    4.51
   1  -2 -16   -3.27    4.26
  -1   2  16    8.63    4.44
   1  -2 -15  -10.36    4.71
   1  -2 -15   -8.80    4.52
  -1   2  15   -3.07    8.48
   1  -2 -14   16.07    7.48
   1  -2 -14    7.37    4.76
  -1   2  14   12.00    4.99
   1  -2 -13  132.50    8.44
   1  -2 -13  139.61   13.72
  -1   2  13  138.08    8.69
   1  -2 -12   49.27    5.60
   1  -2 -12   52.59    5.46
  -1   2  12   61.19    6.01
   1  -2 -11  109.05    6.54
   1  -2 -11  106.54    6.78
  -1   2  11  129.33    7.24
   1  -2 -10   21.37    4.01
   1  -2 -10   19.40    3.86
  -1   2  10   24.74    4.08
   1  -2  -9   12.72    3.43
   1  -2  -9   14.30    3.75
  -1   2   9   17.41    3.69
   1  -2  -8   78.43    4.96
   1  -2  -8   98.62    5.34
  -1   2   8   82.48    5.24
   1  -2  -7   68.19    5.10
   1  -2  -7   78.75    7.69
  -1   2   7   81.48    8.17
   1  -2  -6    2.19    3.19
   1  -2  -6    3.42    2.66
  -1   2   6    5.43    4.88
   1  -2  -5    2.26    2.29
   1  -2  -5    1.43    2.97
  -1   2   5    1.00    4.29
   1  -2  -4   82.90    4.40
   1  -2  -4   75.73    3.50
  -1   2   4   75.81    3.60
   1  -2  -3  175.81    5.50
   1  -2  -3  175.76    6.81
  -1   2   3  181.87    4.43
   1  -2  -2  398.66    8.30
   1  -2  -2  412.34    7.42
  -1   2   2  395.30    8.02
  -1   2   2  406.24    7.36
   1  -2  -1 1326.58   29.80
   1  -2  -1 1328.06   29.58
  -1   2   1 1327.88   29.69
  -1   2   1 1367.65   34.30
   1  -2   0 1589.90   36.28
   1  -2   0 1575.02   37.91
  -1   2   0 1639.90   39.24
  -1   2   0 1604.85   39.02
  -1   2  -1  129.19    2.58
  -1   2  -2 1131.04   25.08
   1  -2   3  650.08   19.30
  -1   2  -3  622.33   14.04
   1  -2   4   61.90    4.17
  -1   2  -4   74.48    4.13
   1  -2   5   68.85    8.56
  -1   2  -5   86.65    5.18
   1  -2   6  186.69    7.94
  -1   2  -6  176.55   13.41
   1  -2   7  129.30    6.77
  -1   2  -7  133.42    6.97
   1  -2   8  272.65   15.54
  -1   2  -8  270.26   10.49
   1  -2   9  130.10   11.86
  -1   2  -9  132.67    7.37
   1  -2  10  463.26   24.69
  -1   2 -10  468.52   17.11
   1  -2  11    5.00    3.83
  -1   2 -11   -0.38    4.15
   1  -2  12   10.76    7.53
  -1   2 -12    7.23    4.65
   1  -2  13  193.03   17.16
  -1   2 -13  180.46   11.13
   1  -2  14    8.11    7.87
  -1   2 -14   -5.41    8.51
   1  -2  15  123.99    9.36
  -1   2 -15   91.90    9.64
   1  -2  16 1021.09   42.54
  -1   2 -16  958.29   43.12
   1  -2  17  351.23   18.20
  -1   2 -17  337.12   30.15
   1  -2  18  227.63   13.63
  -1   2 -18  162.06   10.23
  -1   2 -18  231.47   14.06
   1  -2  19    5.11    6.01
  -1   2 -19    5.09    6.20
  -1   2 -19   10.36    4.52
   1  -2  20   10.28    6.58
  -1   2 -20   15.05    4.97
  -1   2 -20   15.41    6.96
   1  -2  21   18.21   11.76
  -1   2 -21    8.48    8.91
  -1   2 -21   26.84    7.68
   1  -2  22   26.04    7.24
  -1   2 -22   10.08    5.17
  -1   2 -22   22.85    7.66
   1  -2  23    3.39    6.46
  -1   2 -23   -1.26    4.70
  -1   2 -23    8.65    6.78
   1  -2  24    7.19    7.18
  -1   2 -24    7.31   12.86
  -1   2 -24    9.49    5.34
   1  -2  25   10.41    7.21
  -1   2 -25    9.67    7.76
  -1   2 -25   -0.71    5.33
   1  -1 -25   13.07    6.79
   1  -1 -25    3.28    7.62
  -1   1  25   13.80    7.22
   1  -1 -24  112.73   12.40
   1  -1 -24  101.46   11.22
  -1   1  24  126.33   11.95
   1  -1 -23    9.16    9.55
   1  -1 -23    1.22    6.57
  -1   1  23    6.01    6.16
   1  -1 -22   45.48    7.49
   1  -1 -22   40.05    8.51
  -1   1  22   57.69   13.76
   1  -1 -21   25.92    6.27
   1  -1 -21   15.05   11.95
  -1   1  21   20.86    6.97
   1  -1 -20   -8.71    5.42
   1  -1 -20   -2.72    4.74
  -1   1  20   10.12    5.32
   1  -1 -19    6.37    5.29
   1  -1 -19   -5.01    4.63
  -1   1  19    8.66    8.56
   1  -1 -18  131.03   15.37
   1  -1 -18  110.23   10.25
  -1   1  18  133.73   10.27
   1  -1 -17   12.18    5.25
   1  -1 -17   12.02    5.62
  -1   1  17   15.26    5.72
   1  -1 -16   44.53    6.34
   1  -1 -16   41.38    6.63
  -1   1  16   39.79    6.70
   1  -1 -15  139.76   16.29
   1  -1 -15  173.97   10.02
  -1   1  15  166.88   10.88
   1  -1 -14   37.21    5.95
   1  -1 -14   45.68   10.31
  -1   1  14   48.10    6.37
   1  -1 -13  170.67   16.13
  -1   1  13  226.25   17.15
   1  -1 -12   -3.69    3.63
  -1   1  12    4.03    3.91
   1  -1 -11  237.23   10.27
  -1   1  11  254.30   10.98
   1  -1 -10  170.17    8.20
  -1   1  10  185.29    8.47
   1  -1  -9   60.74    8.40
  -1   1   9   61.58    5.19
   1  -1  -8  175.85    7.44
  -1   1   8  184.21    7.94
   1  -1  -7  202.35    8.24
  -1   1   7  208.94   13.49
   1  -1  -6   82.32    5.00
  -1   1   6   80.57    8.69
   1  -1  -5  184.77    6.61
  -1   1   5  195.66   11.36
   1  -1  -4  558.77   13.17
  -1   1   4  560.63   13.39
   1  -1  -3   52.27    4.10
  -1   1   3   54.90    2.43
   1  -1  -2 1267.73   28.42
  -1   1   2 1272.13   28.72
  -1   1  -2  886.28   17.94
   1  -1   3   27.67    2.27
  -1   1  -3   24.14    2.23
   1  -1   4  130.70    5.23
  -1   1  -4  128.04    5.16
   1  -1   5   41.09    6.93
  -1   1  -5   35.79    4.05
   1  -1   6    9.56    3.46
  -1   1  -6   14.21    3.64
   1  -1   7  199.29    8.09
  -1   1  -7  173.33   13.22
   1  -1   8  141.64   10.98
  -1   1  -8  136.52    6.96
   1  -1   9 1102.99   46.88
  -1   1  -9 1122.87   49.00
   1  -1  10 1169.20   50.33
  -1   1 -10 1119.48   38.90
   1  -1  11  804.74   37.22
  -1   1 -11  795.59   39.29
   1  -1  12   22.39    8.36
  -1   1 -12   26.41    5.28
   1  -1  13  111.83   13.94
  -1   1 -13  133.38    9.31
   1  -1  14  289.84   14.06
  -1   1 -14  275.75   14.74
   1  -1  15   -0.02    4.78
  -1   1 -15   -5.55    3.78
  -1   1 -15    2.42    5.03
   1  -1  16   24.51    6.22
  -1   1 -16   18.98    6.78
  -1   1 -16   27.20    4.98
   1  -1  17  227.14   13.81
  -1   1 -17  236.73   11.35
  -1   1 -17  235.64   14.57
   1  -1  18   44.03    7.41
  -1   1 -18   49.63    9.53
  -1   1 -18   42.12    7.70
   1  -1  19   12.69    6.20
  -1   1 -19   17.08    4.54
  -1   1 -19    4.50    6.41
   1  -1  20   -9.20    9.48
  -1   1 -20   -3.15   10.17
  -1   1 -20    5.68    4.14
   1  -1  21    5.71    5.97
  -1   1 -21    0.78    4.51
  -1   1 -21   11.96    6.25
   1  -1  22   13.78    6.25
  -1   1 -22   -7.42    6.85
  -1   1 -22   12.60    8.12
   1  -1  23    2.64    6.38
  -1   1 -23  -22.09   11.72
  -1   1 -23   -6.43    4.84
   1  -1  24   22.34    8.07
  -1   1 -24   25.42    8.47
  -1   1 -24   22.82    6.11
   1  -1  25   17.14   12.41
  -1   1 -25  -12.80    5.55
  -1   1 -25   -8.04    7.83
   1   0 -26   41.04    9.67
   1   0 -26   31.64    8.26
  -1   0  26    9.10   14.86
   1   0 -25    9.94   11.34
   1   0 -25    5.02    7.85
  -1   0  25   22.43    7.53
   1   0 -24    8.81    6.74
   1   0 -24   -0.19    5.92
  -1   0  24    5.22    6.53
   1   0 -23   68.67    8.91
   1   0 -23   22.54   16.94
  -1   0  23  107.23    9.98
   1   0 -22   -0.56    6.18
   1   0 -22   -1.87    5.21
  -1   0  22    8.96    6.02
   1   0 -21  -13.57    6.23
   1   0 -21    0.03    5.61
  -1   0  21   -8.97    6.27
   1   0 -20  258.00   15.89
   1   0 -20  246.37   14.59
  -1   0  20  258.40   15.27
   1   0 -19   25.50    6.28
   1   0 -19   25.97    6.90
  -1   0  19   42.30   11.39
   1   0 -18   76.17    8.32
   1   0 -18   59.34    7.83
  -1   0  18   77.07    8.67
   1   0 -17   -5.63    9.64
  -1   0  17   15.64    5.66
   1   0 -16  171.31   11.40
  -1   0  16  160.94   18.20
   1   0 -15   22.39    5.66
  -1   0  15   18.30    5.84
   1   0 -14  229.55   12.87
  -1   0  14  294.93   13.60
   1   0 -13   34.42    5.57
  -1   0  13   33.12    9.98
   1   0 -12  402.19   15.31
  -1   0  12  406.24   16.48
   1   0 -11   15.91    4.41
  -1   0  11   22.30    4.59
   1   0 -10  286.15   11.92
  -1   0  10  326.69   12.28
   1   0  -9  278.50   10.86
  -1   0   9  281.84   11.22
   1   0  -8   47.38    5.13
  -1   0   8   59.31    5.20
   1   0  -7 1145.56   48.48
  -1   0   7 1182.74   49.57
   1   0  -6 1251.72   38.83
  -1   0   6 1280.67   39.68
   1   0  -5 1457.88   44.17
  -1   0   5 1500.44   45.10
   1   0  -4  396.13    9.71
  -1   0   4  408.78    9.77
   1   0  -3   27.13    1.95
  -1   0   3   27.98    3.48
   1   0   2 2313.86   62.97
  -1   0  -2 2327.73   67.70
  -1   0  -2 2380.12   64.45
   1   0   3  301.10    6.82
  -1   0  -3  307.50    5.48
  -1   0  -3  296.12   10.13
   1   0   4  967.08   24.91
  -1   0  -4  974.90   28.31
  -1   0  -4  948.92   24.86
   1   0   5  104.52    8.74
  -1   0  -5  106.40    4.33
  -1   0  -5  111.80    5.38
   1   0   6   22.00    3.66
  -1   0  -6   22.05    3.78
  -1   0  -6   24.45    2.99
   1   0   7  476.66   14.22
  -1   0  -7  460.75   12.44
  -1   0  -7  452.54   14.53
   1   0   8  241.73    8.74
  -1   0  -8  265.08    9.38
  -1   0  -8  241.29    7.64
   1   0   9   31.89    7.09
  -1   0  -9   23.78    3.50
  -1   0  -9   49.09    4.62
   1   0  10  223.47   14.91
  -1   0 -10  224.28    7.97
  -1   0 -10  220.19    9.90
   1   0  11  304.91   17.98
  -1   0 -11  270.65   12.01
  -1   0 -11  296.70    9.83
   1   0  12    5.70    6.78
  -1   0 -12    4.70    3.33
  -1   0 -12   11.38    4.46
   1   0  13  154.94    8.85
  -1   0 -13  140.53    7.47
  -1   0 -13  126.28   15.34
   1   0  14  382.42   16.43
  -1   0 -14  400.51   20.74
  -1   0 -14  348.35   17.00
   1   0  15  381.84   17.04
  -1   0 -15  377.42   17.97
  -1   0 -15  355.89   13.50
   1   0  16   51.50    7.40
  -1   0 -16   61.02   13.37
  -1   0 -16   73.34    5.94
   1   0  17   40.19    7.10
  -1   0 -17   43.00    7.36
  -1   0 -17   46.49    5.48
   1   0  18    4.16    5.23
  -1   0 -18    2.78    4.11
  -1   0 -18    8.28    5.61
   1   0  19   33.40   10.74
  -1   0 -19   17.74   11.18
  -1   0 -19   12.58    8.24
   1   0  20    7.08    9.52
  -1   0 -20    4.99    6.12
  -1   0 -20    5.63    4.43
   1   0  21   -3.29    5.66
  -1   0 -21    5.17    4.57
  -1   0 -21    7.42    6.30
   1   0  22   41.47    8.31
  -1   0 -22   57.15    9.04
  -1   0 -22   43.36    6.75
   1   0  23  -18.00    6.39
  -1   0 -23    2.45    6.60
  -1   0 -23    8.63    8.51
   1   0  24   -6.01    6.39
  -1   0 -24   -3.42    4.86
  -1   0 -24   10.44    6.73
   1   0  25   32.83   13.47
  -1   0 -25   18.83    9.03
  -1   0 -25   24.96    6.69
   1   1 -26    5.21    7.08
   1   1 -26   -1.83    6.03
  -1  -1  26   -2.54   11.49
   1   1 -25   77.44   12.09
   1   1 -25   92.36   10.12
  -1  -1  25   97.42   11.84
   1   1 -24    3.75   12.36
   1   1 -24    0.80   10.58
  -1  -1  24    9.98    6.82
   1   1 -23    0.34    5.82
   1   1 -23   12.15    6.69
  -1  -1  23   -3.67   10.57
   1   1 -22    8.61    6.49
   1   1 -22   18.99    7.40
  -1  -1  22   27.94    7.12
   1   1 -21  105.73   11.44
   1   1 -21  133.57   10.33
  -1  -1  21  101.26   11.42
   1   1 -20   -6.69    5.47
  -1  -1  20    5.63    5.32
   1   1 -19   93.51   15.26
  -1  -1  19   78.98    9.54
   1   1 -18   12.09   10.11
  -1  -1  18   10.42    5.99
   1   1 -17   74.29    8.84
  -1  -1  17   81.06    8.98
   1   1 -16    9.07    5.45
  -1  -1  16   17.16   10.08
   1   1 -15  166.24   11.26
  -1  -1  15  195.18   11.90
   1   1 -14    0.53    4.58
  -1  -1  14    5.86    4.71
   1   1 -13    9.29    4.51
  -1  -1  13   19.80    8.63
   1   1 -12  393.18   15.42
  -1  -1  12  408.93   16.63
   1   1 -11   44.22    5.34
  -1  -1  11   54.14    5.81
   1   1 -10  222.10   10.21
  -1  -1  10  253.30   10.58
   1   1  -9  546.35   18.19
  -1  -1   9  562.13   19.03
   1   1  -8   -2.74    3.49
  -1  -1   8    7.03    3.59
   1   1  -7  299.61   11.76
  -1  -1   7  318.31   11.98
   1   1  -6 1003.54   42.08
  -1  -1   6 1027.83   31.61
   1   1  -5 1334.52   39.52
  -1  -1   5 1308.15   39.22
   1   1  -4   -0.30    2.06
  -1  -1   4    1.64    2.10
   1   1  -3 1206.99   28.30
  -1  -1   3 1178.85   27.94
   1   1   1  207.03    3.23
  -1  -1  -1  206.95    3.64
  -1  -1  -1  208.31    3.30
   1   1   2   76.62    2.24
  -1  -1  -2   83.22    3.68
  -1  -1  -2   80.33    3.68
   1   1   3    3.81    3.08
   1   1   3    3.65    1.72
  -1  -1  -3    2.09    3.03
  -1  -1  -3    4.64    1.84
   1   1   4   35.26    2.95
   1   1   4   38.65    2.84
  -1  -1  -4   30.52    2.86
  -1  -1  -4   32.27    5.23
   1   1   5   51.02    3.71
  -1  -1  -5   57.53    6.77
  -1  -1  -5   55.63    6.03
   1   1   6   85.73    4.79
  -1  -1  -6   87.44    4.91
  -1  -1  -6   84.68    4.26
   1   1   7  964.72   26.61
  -1  -1  -7  913.42   24.45
  -1  -1  -7  902.05   26.51
   1   1   8 1612.63   51.59
  -1  -1  -8 1609.96   58.92
  -1  -1  -8 1589.74   53.16
   1   1   9 1230.21   37.55
  -1  -1  -9 1199.19   39.17
  -1  -1  -9 1189.44   35.03
   1   1  10  235.57    8.99
  -1  -1 -10  237.19    8.13
  -1  -1 -10  216.81    9.76
   1   1  11   26.48    4.24
  -1  -1 -11   27.47    4.74
  -1  -1 -11   19.36    3.74
   1   1  12   19.44    4.41
  -1  -1 -12   14.70    8.07
  -1  -1 -12   11.44    6.27
   1   1  13  175.07    9.27
  -1  -1 -13  160.40    9.84
  -1  -1 -13  172.12   12.84
   1   1  14  161.63    9.59
  -1  -1 -14  161.17   13.03
  -1  -1 -14  148.30   10.24
   1   1  15  112.43    8.74
  -1  -1 -15  107.34   14.62
  -1  -1 -15  114.24    7.29
   1   1  16   68.38    7.57
  -1  -1 -16   69.71    6.34
  -1  -1 -16   74.99    7.93
   1   1  17   17.27    5.60
  -1  -1 -17   10.65    5.80
  -1  -1 -17   19.18    4.62
   1   1  18   21.05   10.66
  -1  -1 -18   31.08   10.95
  -1  -1 -18   28.43    5.24
   1   1  19   10.61    8.50
  -1  -1 -19   -3.51    4.26
  -1  -1 -19    7.95    5.48
   1   1  20   -0.70    5.19
  -1  -1 -20    6.53    7.42
  -1  -1 -20   -6.25    5.62
   1   1  21    4.15    6.14
  -1  -1 -21   17.58    6.57
  -1  -1 -21   10.61    5.14
   1   1  22   24.57    6.94
  -1  -1 -22   10.63    7.42
  -1  -1 -22   22.49    5.80
   1   1  23   25.16    7.67
  -1  -1 -23   31.57    6.23
  -1  -1 -23   18.92    8.07
   1   1  24    8.11   11.18
  -1  -1 -24    8.54    7.49
  -1  -1 -24   11.37    5.68
  -1  -1 -25   13.28   13.07
   1   2 -26   60.89   11.30
  -1  -2  26   56.78   10.90
   1   2 -25    3.85   13.37
  -1  -2  25   12.07    7.43
   1   2 -24   88.80   10.18
   1   2 -24   48.38    8.98
  -1  -2  24   32.66    9.38
   1   2 -23   -0.42    7.06
   1   2 -23   39.53    8.15
  -1  -2  23   50.16   13.34
   1   2 -22    7.12    6.31
  -1  -2  22   -2.33    6.06
   1   2 -21   50.27    8.85
  -1  -2  21   55.47    8.87
   1   2 -20   32.65   12.09
  -1  -2  20   23.29    7.26
   1   2 -19   81.88    9.72
  -1  -2  19   86.28    9.80
   1   2 -18    6.82    6.03
  -1  -2  18    6.68    5.95
   1   2 -17  246.28   15.12
  -1  -2  17  250.16   14.98
   1   2 -16   27.84    6.74
  -1  -2  16   40.74   11.68
   1   2 -15    9.15    5.34
  -1  -2  15    7.26    5.51
   1   2 -14  126.56    9.25
  -1  -2  14  130.05    9.76
   1   2 -13  270.66   13.04
  -1  -2  13  316.00   21.30
   1   2 -12   88.28   11.67
  -1  -2  12   92.03    7.54
   1   2 -11   96.58   12.29
  -1  -2  11  125.66    7.95
   1   2 -10  334.91   20.68
  -1  -2  10  360.35   14.07
   1   2  -9  240.47   17.24
  -1  -2   9  287.44   11.22
   1   2  -8  669.99   22.05
  -1  -2   8  710.97   32.54
   1   2  -7  162.66    8.01
  -1  -2   7  154.06    8.51
   1   2  -6  251.20    9.59
  -1  -2   6  245.81    9.62
   1   2  -5   86.54    5.08
  -1  -2   5   91.34    9.12
   1   2  -4   49.93    5.55
  -1  -2   4   46.19    3.46
   1   2  -3    9.40    1.82
  -1  -2   3   11.38    1.94
   1   2  -2  942.27   19.46
  -1  -2   2  952.52   19.72
   1   2  -1  788.37   14.06
  -1  -2   1  768.17   13.98
   1   2   0  963.59   18.15
  -1  -2   0  969.13   18.23
   1   2   1  409.53    8.14
  -1  -2  -1  430.15    6.91
  -1  -2  -1  414.20    8.43
   1   2   2 1877.16   53.27
  -1  -2  -2 1871.30   53.48
  -1  -2  -2 1872.72   49.15
   1   2   3  566.33   11.54
   1   2   3  540.46   12.90
  -1  -2  -3  562.96   16.16
  -1  -2  -3  535.93   12.94
   1   2   4  105.77    3.70
   1   2   4  104.52    4.54
  -1  -2  -4  113.23    4.45
  -1  -2  -4  100.33    4.11
   1   2   5   73.13    4.05
   1   2   5   66.89    3.67
  -1  -2  -5   72.24    3.90
  -1  -2  -5   64.48    3.89
   1   2   6    4.17    3.91
   1   2   6   -2.07    2.50
  -1  -2  -6   -0.24    2.28
  -1  -2  -6    2.82    2.43
   1   2   7   30.95    3.13
  -1  -2  -7   26.84    3.13
  -1  -2  -7   35.45    6.11
   1   2   8  807.15   22.47
  -1  -2  -8  788.48   22.16
  -1  -2  -8  801.57   23.90
   1   2   9  341.98   10.51
  -1  -2  -9  325.34   10.22
  -1  -2  -9  321.51   11.25
   1   2  10  153.47    6.77
  -1  -2 -10  141.97    7.36
  -1  -2 -10  144.71   10.23
   1   2  11   19.06    3.96
  -1  -2 -11   16.43    6.16
  -1  -2 -11   15.04    7.34
   1   2  12   49.42    5.51
  -1  -2 -12   58.94    8.65
  -1  -2 -12   66.80    5.95
   1   2  13   14.11    4.28
  -1  -2 -13   10.10    4.80
  -1  -2 -13    5.19    6.70
   1   2  14   60.22    6.59
  -1  -2 -14   68.13   11.40
  -1  -2 -14   83.10    9.84
   1   2  15   -4.00    4.24
  -1  -2 -15    3.37    4.38
  -1  -2 -15    1.27    3.71
   1   2  16   62.76    7.19
  -1  -2 -16   69.61    6.30
  -1  -2 -16   75.49    7.62
   1   2  17   73.96   13.28
  -1  -2 -17   99.94    7.21
  -1  -2 -17   76.08   13.85
   1   2  18    7.81    5.07
  -1  -2 -18    9.26    4.62
  -1  -2 -18    6.72    5.47
   1   2  19   55.79    6.91
  -1  -2 -19   34.57    6.14
  -1  -2 -19   29.11    7.26
   1   2  20   38.74    6.80
  -1  -2 -20   25.63   12.05
  -1  -2 -20   31.41    6.08
   1   2  21    5.09    5.64
  -1  -2 -21   -2.13    6.11
  -1  -2 -21   13.01    5.12
   1   2  22    5.42    5.58
  -1  -2 -22   -6.50    8.10
  -1  -2 -22    2.86    5.99
   1   2  23    1.61   11.17
  -1  -2 -23   16.20    7.51
  -1  -2 -23   20.57    5.96
   1   2  24    9.50    6.10
  -1  -2 -24   -3.79   11.43
  -1  -2 -24    2.56    5.39
   1   3 -27    9.13    8.43
  -1  -3  27   -2.09   13.14
   1   3 -26   13.87   16.13
  -1  -3  26   34.97    9.23
   1   3 -25    2.34    7.32
  -1  -3  25    2.00    7.01
   1   3 -24  110.32   13.35
  -1  -3  24  117.87   12.45
   1   3 -23   13.64    7.37
  -1  -3  23    4.60   12.25
   1   3 -22  133.04   12.39
  -1  -3  22  118.31   12.19
   1   3 -21   26.11   12.08
  -1  -3  21   13.06    7.04
   1   3 -20   60.50    9.07
  -1  -3  20   59.96    8.89
   1   3 -19    1.98    5.90
  -1  -3  19    4.68    5.85
   1   3 -18  385.53   20.77
  -1  -3  18  400.19   21.15
   1   3 -17   28.83    7.39
  -1  -3  17   38.72    7.30
   1   3 -16  188.40   12.31
  -1  -3  16  186.91   20.30
   1   3 -15  172.69   11.59
  -1  -3  15  204.81   12.08
   1   3 -14   -1.56    7.89
  -1  -3  14    2.87    4.77
   1   3 -13  205.96   17.46
  -1  -3  13  193.52   11.16
   1   3 -12    1.90    4.14
  -1  -3  12    4.68    4.35
   1   3 -11   38.02    5.43
  -1  -3  11   42.51    5.70
   1   3 -10   -2.86    3.75
  -1  -3  10    1.70    6.62
   1   3  -9 1586.89   69.88
  -1  -3   9 1608.38   57.04
   1   3  -8  784.13   35.91
  -1  -3   8  818.30   26.85
   1   3  -7 1815.25   63.68
  -1  -3   7 1840.24   65.25
   1   3  -6    7.65    3.39
  -1  -3   6    4.26    3.60
   1   3  -5  362.86   16.72
  -1  -3   5  343.65   11.32
   1   3  -4  472.89   17.55
  -1  -3   4  484.85   12.79
   1   3  -3 2192.60   66.73
  -1  -3   3 2244.03   69.30
   1   3  -2  319.05    5.84
  -1  -3   2  304.70    5.97
   1   3  -1  536.37    8.86
  -1  -3   1  540.82    9.12
   1   3   0   58.28    3.15
   1   3   0   60.79    2.21
  -1  -3   0   63.12    1.43
   1   3   1  186.21    5.71
  -1  -3  -1  188.68    3.01
  -1  -3  -1  183.79    5.79
   1   3   2   19.89    2.77
  -1  -3  -2   17.93    2.82
  -1  -3  -2   22.09    1.44
   1   3   3  397.32   10.30
  -1  -3  -3  389.37   10.94
  -1  -3  -3  395.81   15.59
   1   3   4   90.07    3.04
   1   3   4   94.22    4.51
  -1  -3  -4   90.91    3.52
  -1  -3  -4   88.80    7.39
   1   3   5   80.93    4.38
   1   3   5   79.65    5.37
  -1  -3  -5   83.12    6.78
  -1  -3  -5   73.55    3.59
   1   3   6  724.15   19.62
   1   3   6  751.93   17.73
  -1  -3  -6  721.61   19.44
  -1  -3  -6  758.00   25.07
   1   3   7   20.25    4.77
   1   3   7   24.62    3.47
  -1  -3  -7   26.94    5.41
  -1  -3  -7   24.79    3.25
   1   3   8  156.82    5.74
  -1  -3  -8  142.36    6.28
  -1  -3  -8  160.32    6.32
   1   3   9   60.95    4.15
  -1  -3  -9   62.32    4.66
  -1  -3  -9   55.05    4.45
   1   3  10  105.93    5.74
  -1  -3 -10  120.33   10.19
  -1  -3 -10  114.73    5.98
   1   3  11   89.52    5.82
  -1  -3 -11   91.57    9.66
  -1  -3 -11   89.73    6.27
   1   3  12   84.97    5.99
  -1  -3 -12   78.79    9.97
  -1  -3 -12   72.80    6.53
   1   3  13   62.84    5.89
  -1  -3 -13   75.12    9.94
  -1  -3 -13   64.95    6.39
   1   3  14   15.42    4.40
  -1  -3 -14    6.41    4.61
  -1  -3 -14    4.89    7.29
   1   3  15   15.61    7.50
  -1  -3 -15    1.61    4.83
  -1  -3 -15   17.53    7.39
   1   3  16   39.24    9.46
  -1  -3 -16   38.80    9.36
  -1  -3 -16   35.85   10.38
   1   3  17   62.46    6.79
  -1  -3 -17   71.12    7.22
  -1  -3 -17   55.40   11.00
   1   3  18    8.48    4.96
  -1  -3 -18   11.59    4.80
  -1  -3 -18    6.12    5.35
   1   3  19   -4.53    4.56
  -1  -3 -19    0.63    4.37
  -1  -3 -19   14.19    8.40
   1   3  20   43.05    7.08
  -1  -3 -20   44.43    6.45
  -1  -3 -20   30.62    7.41
   1   3  21   29.80   11.17
  -1  -3 -21   28.31    6.31
  -1  -3 -21   33.04    7.31
   1   3  22    7.48    8.52
  -1  -3 -22    5.07    4.92
  -1  -3 -22   -8.15    5.80
   1   3  23   -1.28    5.51
  -1  -3 -23    2.27    5.34
  -1  -3 -23    6.13    6.16
   1   3  24    0.60    5.62
  -1  -3 -24    0.84    6.28
  -1  -3 -24    0.09    8.86
   1   4 -27   22.65    9.87
  -1  -4  27   18.47   15.85
   1   4 -26   21.27   15.70
  -1  -4  26   19.31    9.01
   1   4 -25   57.05   11.81
  -1  -4  25   71.20   11.04
   1   4 -24   -0.38    7.09
  -1  -4  24   -2.66    6.73
   1   4 -23  181.58   16.29
  -1  -4  23  246.36   26.86
   1   4 -22    4.06    6.74
  -1  -4  22   10.18    6.73
   1   4 -21   18.55   13.35
  -1  -4  21   32.40    7.87
   1   4 -20  123.76   12.43
  -1  -4  20  153.15   12.24
   1   4 -19   16.04    6.95
  -1  -4  19   18.13   11.82
   1   4 -18   44.40    7.74
  -1  -4  18   25.26    7.96
   1   4 -17  179.05   12.49
  -1  -4  17  175.94   12.91
   1   4 -16   33.48    7.11
  -1  -4  16   36.71    7.11
   1   4 -15   30.69   10.46
  -1  -4  15   19.00    6.51
   1   4 -14  234.13   19.91
  -1  -4  14  211.70   12.80
   1   4 -13    8.26    4.78
  -1  -4  13    5.74    4.80
   1   4 -12  111.81    8.01
  -1  -4  12  123.34   13.89
   1   4 -11   -3.28    3.77
  -1  -4  11    3.10    4.11
   1   4 -10  684.64   23.69
  -1  -4  10  719.46   25.35
   1   4  -9   -1.16    3.43
  -1  -4   9    8.07    6.22
   1   4  -8  954.98   40.92
  -1  -4   8  979.80   31.88
   1   4  -7   43.06    4.67
  -1  -4   7   47.19    4.84
   1   4  -6    9.79    3.31
  -1  -4   6    5.76    3.59
   1   4  -5 1634.71   60.69
  -1  -4   5 1624.62   52.13
   1   4  -4   86.85    6.41
  -1  -4   4   74.78    4.27
   1   4  -3  702.77   15.31
  -1  -4   3  732.57   16.66
   1   4  -2  133.40    2.94
  -1  -4   2  125.04    5.21
   1   4  -1  220.25    4.73
  -1  -4   1  221.84    3.66
   1   4   0 1769.03   41.17
   1   4   0 1689.35   51.08
  -1  -4   0 1760.98   43.81
   1   4   1 1807.23   55.95
  -1  -4  -1 1821.06   46.05
  -1  -4  -1 1838.66   57.11
   1   4   2   -0.85    2.52
  -1  -4  -2   -4.08    4.26
  -1  -4  -2    2.72    0.85
  -1  -4  -2    4.94    1.70
   1   4   3  800.14   21.26
  -1  -4  -3  793.31   21.11
  -1  -4  -3  804.83   19.72
   1   4   4   95.88    4.80
   1   4   4  112.58    2.78
  -1  -4  -4  101.69    7.89
  -1  -4  -4  100.95    3.22
   1   4   5  860.70   23.68
   1   4   5  867.46   18.95
  -1  -4  -5  848.76   23.04
  -1  -4  -5  856.35   20.66
   1   4   6  170.63    6.85
   1   4   6  150.83    6.12
  -1  -4  -6  147.79    6.17
  -1  -4  -6  146.58    7.92
   1   4   7  379.50    9.14
   1   4   7  355.96   11.33
  -1  -4  -7  376.01   16.41
  -1  -4  -7  370.55   10.02
   1   4   8   42.52    3.16
   1   4   8   53.56    4.43
  -1  -4  -8   46.82    4.08
  -1  -4  -8   34.60    6.07
   1   4   9  210.84   10.73
  -1  -4  -9  205.70    7.74
  -1  -4  -9  203.90    8.18
   1   4  10  180.09   11.45
  -1  -4 -10  186.35    8.08
  -1  -4 -10  207.01    8.48
   1   4  11  472.35   21.02
  -1  -4 -11  408.45   22.09
  -1  -4 -11  443.73   23.34
   1   4  12   98.86    9.42
  -1  -4 -12   77.41    6.35
  -1  -4 -12   83.17    6.21
   1   4  13    7.71    6.73
  -1  -4 -13   17.22    4.40
  -1  -4 -13   17.23    4.40
   1   4  14  272.97   11.42
  -1  -4 -14  265.59   18.61
  -1  -4 -14  243.92   11.94
   1   4  15  223.53   10.32
  -1  -4 -15  194.20   11.09
  -1  -4 -15  218.32   11.01
   1   4  16   86.12    6.87
  -1  -4 -16   76.62    7.20
  -1  -4 -16   71.39    7.51
   1   4  17   -7.08    4.29
  -1  -4 -17   -0.67    4.46
  -1  -4 -17   -2.23    4.71
   1   4  18    8.25    4.68
  -1  -4 -18    1.78    5.05
  -1  -4 -18   11.89    8.07
   1   4  19    2.11    4.98
  -1  -4 -19    1.53    8.32
  -1  -4 -19   13.08    5.25
   1   4  20    6.35    8.62
  -1  -4 -20    5.30    8.81
  -1  -4 -20   13.50    5.79
   1   4  21   18.93    5.84
  -1  -4 -21    6.03   10.97
  -1  -4 -21   22.07    6.03
   1   4  22   16.14    5.85
  -1  -4 -22   14.69    6.58
  -1  -4 -22    7.37    5.98
   1   4  23    1.73    5.47
  -1  -4 -23    2.75    6.15
  -1  -4 -23    3.70    5.59
   1   5 -27   40.82   19.25
  -1  -5  27   50.10   18.54
   1   5 -26   -9.18    7.76
  -1  -5  26   10.11    7.33
   1   5 -25  108.89   13.96
  -1  -5  25  107.59   13.10
   1   5 -24   27.09    9.05
  -1  -5  24   30.84    8.53
   1   5 -23   -3.13    7.05
  -1  -5  23   24.75   11.88
   1   5 -22   80.84   20.14
  -1  -5  22  113.65   11.82
   1   5 -21   91.97   10.73
  -1  -5  21   62.96   10.09
   1   5 -20    5.80    6.62
  -1  -5  20    6.73    6.32
   1   5 -19  254.31   16.70
  -1  -5  19  271.34   26.63
   1   5 -18   -0.53    6.18
  -1  -5  18   11.13    6.18
   1   5 -17  115.58   10.96
  -1  -5  17  147.57   11.18
   1   5 -16   54.05    7.83
  -1  -5  16   51.22    7.87
   1   5 -15   38.09   12.15
  -1  -5  15   61.54   12.96
   1   5 -14   42.57   11.39
  -1  -5  14   48.26    7.02
   1   5 -13   34.14    5.88
  -1  -5  13   27.79    5.99
   1   5 -12  240.84   11.69
  -1  -5  12  253.73   12.10
   1   5 -11   11.59    4.24
  -1  -5  11    0.77    7.80
   1   5 -10  200.15    9.72
  -1  -5  10  231.78   10.67
   1   5  -9  907.51   29.92
  -1  -5   9  965.27   31.93
   1   5  -8   27.46    6.83
  -1  -5   8   31.06    7.70
   1   5  -7   55.14    4.47
  -1  -5   7   59.29    4.93
   1   5  -6 2303.70   81.31
  -1  -5   6 2290.04   83.78
   1   5  -5  188.90    6.36
  -1  -5   5  201.29   11.32
   1   5  -4    8.48    3.66
  -1  -5   4    8.36    2.60
   1   5  -3  139.84    3.59
  -1  -5   3  145.09    4.27
   1   5  -2    6.73    1.91
  -1  -5   2    5.40    1.42
   1   5  -1    4.06    2.49
   1   5  -1    0.62    0.68
  -1  -5   1    0.35    1.44
   1   5   0  105.13    4.95
   1   5   0  110.05    1.98
  -1  -5   0  110.47    2.08
   1   5   1  395.17   11.06
  -1  -5  -1  400.13    5.81
  -1  -5  -1  380.87   11.09
  -1  -5  -1  390.34    5.00
   1   5   2 1000.49   28.47
  -1  -5  -2 1044.54   20.95
  -1  -5  -2 1036.06   22.08
  -1  -5  -2 1032.76   28.79
   1   5   3   12.79    4.78
  -1  -5  -3   14.46    2.90
  -1  -5  -3   12.47    2.02
   1   5   4  579.09   15.93
  -1  -5  -4  573.91   11.74
  -1  -5  -4  608.40   16.29
   1   5   5   13.93    3.16
   1   5   5   13.92    1.44
  -1  -5  -5   16.15    5.20
  -1  -5  -5    9.54    1.94
   1   5   6  367.38    7.69
   1   5   6  362.48   11.42
  -1  -5  -6  379.89   11.44
  -1  -5  -6  366.95   12.47
   1   5   7   80.08    8.14
   1   5   7   67.56    4.77
  -1  -5  -7   74.80    8.09
  -1  -5  -7   69.92    3.67
   1   5   8   40.26    4.32
   1   5   8   38.09    2.88
  -1  -5  -8   36.64    3.41
  -1  -5  -8   31.47    4.15
   1   5   9  289.38    8.51
   1   5   9  281.84   11.62
  -1  -5  -9  279.72   13.89
  -1  -5  -9  291.06   10.98
   1   5  10   10.55    2.90
  -1  -5 -10    5.66    3.27
  -1  -5 -10   10.13    6.71
   1   5  11  103.29    5.56
  -1  -5 -11  118.20    6.95
  -1  -5 -11   98.32    6.19
   1   5  12  216.45    8.79
  -1  -5 -12  229.33   10.58
  -1  -5 -12  196.89   14.59
   1   5  13   53.31    4.93
  -1  -5 -13   47.39    5.94
  -1  -5 -13   44.92    5.32
   1   5  14  161.73    8.00
  -1  -5 -14  137.70    8.37
  -1  -5 -14  157.39    9.30
   1   5  15  290.46   12.14
  -1  -5 -15  276.85   12.90
  -1  -5 -15  285.81   13.45
   1   5  16   68.42    6.08
  -1  -5 -16   55.03   10.64
  -1  -5 -16   55.82    6.88
   1   5  17   17.41    8.05
  -1  -5 -17   19.04    5.25
  -1  -5 -17   14.63    5.36
   1   5  18    4.91    7.04
  -1  -5 -18   -1.82    4.88
  -1  -5 -18    8.47    4.83
   1   5  19    2.54    4.45
  -1  -5 -19    5.76    4.99
  -1  -5 -19    6.28    8.28
   1   5  20   -6.37    4.77
  -1  -5 -20   10.46    5.19
  -1  -5 -20    7.36    5.20
   1   5  21   -1.04    4.88
  -1  -5 -21   -4.70    5.35
  -1  -5 -21   -1.80    5.25
   1   5  22   22.19    6.38
  -1  -5 -22   36.24   11.47
  -1  -5 -22   19.57    7.10
   1   6 -27    5.73   13.38
  -1  -6  27   -3.52   12.37
   1   6 -26  137.41   16.67
  -1  -6  26  145.07   15.65
   1   6 -25   -7.45    7.65
  -1  -6  25    8.78    7.30
   1   6 -24  110.73   13.60
  -1  -6  24  126.76   13.04
   1   6 -23   29.22    8.79
  -1  -6  23   22.85   13.96
   1   6 -22   45.91   15.64
  -1  -6  22   41.13    9.19
   1   6 -21   74.26   10.41
  -1  -6  21   75.59   10.52
   1   6 -20   46.43    8.69
  -1  -6  20   42.85    8.58
   1   6 -19   49.91    8.72
  -1  -6  19   55.57    8.44
   1   6 -18   79.39    9.79
  -1  -6  18   84.99   10.08
   1   6 -17  108.13   10.86
  -1  -6  17  153.70   11.19
   1   6 -16   14.82    6.56
  -1  -6  16   31.77    6.63
   1   6 -15    8.05    9.95
  -1  -6  15   19.75    5.88
   1   6 -14   98.43   14.19
  -1  -6  14  116.22   15.57
   1   6 -13  259.45   13.02
  -1  -6  13  258.04   13.58
   1   6 -12  277.31   12.25
  -1  -6  12  236.10   12.57
   1   6 -11 1609.29   60.78
  -1  -6  11 1661.05   62.35
   1   6 -10    8.43    3.87
  -1  -6  10    7.87    7.23
   1   6  -9    7.54    5.56
  -1  -6   9   -2.34    3.61
   1   6  -8 2178.71   80.55
  -1  -6   8 2292.78   87.70
   1   6  -7   22.84    3.38
  -1  -6   7   22.26    3.89
   1   6  -6   57.67    3.69
  -1  -6   6   62.14    7.17
   1   6  -5  249.24    6.68
  -1  -6   5  247.52    7.71
   1   6  -4   41.91    2.39
  -1  -6   4   45.61    3.11
   1   6  -3   44.34    3.11
  -1  -6   3   37.95    4.07
   1   6  -2  885.37   16.83
  -1  -6   2  905.33   21.84
   1   6  -1  205.03   11.36
   1   6  -1  209.23    3.42
  -1  -6   1  211.20    4.27
   1   6   0  498.38   13.63
  -1  -6   0  496.97    6.86
   1   6   1   60.98    3.96
  -1  -6  -1   53.47    0.70
  -1  -6  -1   57.20    0.77
   1   6   2  905.46   25.34
  -1  -6  -2  905.91   33.65
  -1  -6  -2  896.02   16.89
  -1  -6  -2  909.02   15.16
   1   6   3  131.80    5.80
  -1  -6  -3  131.03    5.63
  -1  -6  -3  132.82    1.95
  -1  -6  -3  129.47    3.52
   1   6   4  528.14   21.53
  -1  -6  -4  512.48    9.78
  -1  -6  -4  541.87   15.52
   1   6   5   91.93    5.29
  -1  -6  -5   98.90    4.72
  -1  -6  -5   93.43    5.26
   1   6   6   15.94    3.39
   1   6   6    7.84    1.52
  -1  -6  -6   12.97    3.23
  -1  -6  -6   20.69    3.33
   1   6   7   -3.91    3.10
   1   6   7    4.94    2.65
  -1  -6  -7   -0.08    1.99
  -1  -6  -7    4.19    3.12
   1   6   8  709.28   16.98
   1   6   8  708.94   23.05
  -1  -6  -8  677.03   18.56
  -1  -6  -8  705.34   23.06
   1   6   9  387.68   10.18
   1   6   9  414.69   23.53
  -1  -6  -9  395.30   21.84
  -1  -6  -9  380.85   16.39
   1   6  10  241.76   12.69
   1   6  10  266.38   11.83
  -1  -6 -10  272.81   11.38
  -1  -6 -10  247.26    9.14
   1   6  11   17.44    5.14
  -1  -6 -11    9.23    4.55
  -1  -6 -11   11.98    3.55
   1   6  12    0.50    4.79
  -1  -6 -12   -2.07    4.00
  -1  -6 -12    2.17    3.19
   1   6  13   72.89    8.90
  -1  -6 -13   89.66    7.04
  -1  -6 -13   62.66    9.81
   1   6  14   10.30    5.76
  -1  -6 -14   16.53    4.70
  -1  -6 -14    2.15    3.95
   1   6  15    1.75    5.65
  -1  -6 -15    4.66    3.88
  -1  -6 -15   -1.69    4.35
   1   6  16   45.07    4.75
  -1  -6 -16   25.46    5.53
  -1  -6 -16   33.76    6.25
   1   6  17    3.86    4.02
  -1  -6 -17    8.41    5.00
  -1  -6 -17   10.28    7.57
   1   6  18   -8.28    3.84
  -1  -6 -18    3.82    4.71
  -1  -6 -18    6.60    4.28
   1   6  19    2.05    4.14
  -1  -6 -19   13.56    5.05
  -1  -6 -19  -10.43    4.67
   1   6  20    3.14    4.85
  -1  -6 -20    8.57    5.81
  -1  -6 -20   11.56    5.41
   1   6  21   -1.72    8.08
  -1  -6 -21    4.96    5.78
  -1  -6 -21    8.30    9.15
   1   6  22    2.66    4.81
  -1  -6 -22  -12.44    5.64
  -1  -6 -22    9.34    5.39
   1   7 -27   33.24   11.26
  -1  -7  27   34.65   17.06
   1   7 -26   17.37    8.81
  -1  -7  26    6.61    8.42
   1   7 -25  121.71   14.68
  -1  -7  25  107.74   13.82
   1   7 -24   -8.12    7.43
  -1  -7  24   13.26    7.02
   1   7 -23   85.31   11.79
  -1  -7  23   95.95   11.48
   1   7 -22   42.23   16.42
  -1  -7  22   65.94   16.50
   1   7 -21   69.48    9.64
  -1  -7  21   47.78    9.76
   1   7 -20   92.84   10.78
  -1  -7  20   89.47   10.57
   1   7 -19   19.44    6.79
  -1  -7  19    8.79    6.85
   1   7 -18  269.94   16.52
  -1  -7  18  249.41   25.82
   1   7 -17    0.21    5.89
  -1  -7  17  -11.28    5.95
   1   7 -16  124.71   10.55
  -1  -7  16  136.47   10.93
   1   7 -15  186.04   20.95
  -1  -7  15  231.26   13.35
   1   7 -14   22.76    9.68
  -1  -7  14   16.25    5.87
   1   7 -13  217.87   18.07
  -1  -7  13  189.85   19.55
   1   7 -12  242.99   19.30
  -1  -7  12  273.60   13.07
   1   7 -11    5.10    6.66
  -1  -7  11    4.55    4.27
   1   7 -10  161.59   12.27
  -1  -7  10  141.51    8.19
   1   7  -9 1388.78   46.57
  -1  -7   9 1450.67   50.13
   1   7  -8   88.18    5.23
  -1  -7   8   74.99    9.24
   1   7  -7 2409.50   88.75
  -1  -7   7 2484.12  108.46
   1   7  -6  157.52    8.45
  -1  -7   6  166.36    6.29
   1   7  -5  539.80   12.31
  -1  -7   5  527.95   13.75
   1   7  -4   43.33    3.43
  -1  -7   4   42.32    2.72
   1   7  -3 1075.55   23.16
  -1  -7   3 1072.45   25.16
   1   7  -2  563.55    9.09
   1   7  -2  554.54   15.69
  -1  -7   2  576.24   12.39
   1   7  -1 1713.90   56.04
   1   7  -1 1773.00   40.55
  -1  -7   1 1797.48   43.78
   1   7   0  123.43    5.73
   1   7   1  828.13   23.62
   1   7   2  277.87    9.36
  -1  -7  -2  299.27    9.68
   1   7   3 1875.20   64.36
  -1  -7  -3 1862.06   46.46
  -1  -7  -3 1928.71   66.24
  -1  -7  -3 1889.47   46.64
   1   7   4  107.99    5.48
  -1  -7  -4   93.03    3.08
  -1  -7  -4   90.78    8.90
   1   7   5   18.64    3.67
  -1  -7  -5   16.45    1.54
  -1  -7  -5   23.76    3.67
   1   7   6  297.23   10.90
  -1  -7  -6  277.61    6.51
  -1  -7  -6  288.83   10.82
   1   7   7    0.46    3.84
  -1  -7  -7   10.79    3.77
  -1  -7  -7    6.70    2.05
   1   7   8   13.87    7.39
   1   7   8   15.79    2.01
  -1  -7  -8   15.79    4.27
  -1  -7  -8   11.49    4.23
   1   7   9  435.97   16.83
   1   7   9  427.14   14.60
  -1  -7  -9  449.78   16.75
  -1  -7  -9  423.85   16.99
   1   7  10   28.13    5.25
   1   7  10   20.30    2.71
  -1  -7 -10   23.43    4.87
  -1  -7 -10   15.45    5.46
   1   7  11   23.86    3.10
   1   7  11   30.81    6.03
  -1  -7 -11   22.78    3.73
  -1  -7 -11   33.74    5.22
   1   7  12  270.17    9.04
  -1  -7 -12  294.52   13.20
  -1  -7 -12  262.34   10.17
   1   7  13   37.20    3.87
  -1  -7 -13   34.33    4.44
  -1  -7 -13   27.36    9.86
   1   7  14   17.26    3.67
  -1  -7 -14   13.77    9.04
  -1  -7 -14   21.10    6.87
   1   7  15   30.87    4.14
  -1  -7 -15   21.73    4.78
  -1  -7 -15   38.09   10.06
   1   7  16   16.83    4.17
  -1  -7 -16   21.65    5.77
  -1  -7 -16   18.26    4.61
   1   7  17    1.00    3.71
  -1  -7 -17   14.97    5.24
  -1  -7 -17    1.12    4.28
   1   7  18   10.07    6.91
  -1  -7 -18   -2.16    4.75
  -1  -7 -18   17.58    5.67
   1   7  19   18.52    8.02
  -1  -7 -19   30.24   10.57
  -1  -7 -19    3.32    8.91
   1   7  20    9.40    4.68
  -1  -7 -20   12.51   10.21
  -1  -7 -20    2.67    5.17
   1   7  21   31.81    6.06
  -1  -7 -21   22.48    6.68
  -1  -7 -21   14.85   12.27
   1   8 -27   61.38   13.76
  -1  -8  27   87.13   12.74
   1   8 -26   30.66    9.76
  -1  -8  26    2.31   15.69
   1   8 -25   35.89   10.05
  -1  -8  25   34.27    9.65
   1   8 -24   48.50   10.39
  -1  -8  24   40.04    9.91
   1   8 -23   43.72    9.45
  -1  -8  23   36.63    9.02
   1   8 -22   89.83   18.44
  -1  -8  22   69.52   17.41
   1   8 -21   15.84    7.97
  -1  -8  21   31.85    7.91
   1   8 -20  185.58   14.64
  -1  -8  20  191.42   14.91
   1   8 -19    6.13    6.49
  -1  -8  19   15.19    6.52
   1   8 -18    7.08    6.56
  -1  -8  18   26.81    6.62
   1   8 -17  283.54   16.54
  -1  -8  17  306.65   26.39
   1   8 -16    8.46    5.87
  -1  -8  16   14.48    6.07
   1   8 -15   -0.75    5.06
  -1  -8  15    7.47    5.28
   1   8 -14  605.54   37.26
  -1  -8  14  631.26   26.88
   1   8 -13   72.06   12.26
  -1  -8  13   82.32    7.77
   1   8 -12  450.67   27.46
  -1  -8  12  479.83   18.92
   1   8 -11   28.10    8.06
  -1  -8  11   23.25    8.37
   1   8 -10  434.66   15.23
  -1  -8  10  470.03   24.95
   1   8  -9    0.74    2.93
  -1  -8   9   -0.73    3.23
   1   8  -8  747.18   22.02
  -1  -8   8  776.96   23.85
   1   8  -7   31.74    5.22
  -1  -8   7   28.82    3.58
   1   8  -6  882.15   22.68
  -1  -8   6  919.15   24.77
   1   8  -5    5.20    1.67
  -1  -8   5    2.83    2.09
   1   8  -4  699.91   14.52
  -1  -8   4  737.15   20.48
   1   8  -3  163.61    2.98
  -1  -8   3  169.06    3.48
   1   8  -2  741.46   21.82
   1   8  -2  757.57   14.15
  -1  -8   2  747.26   13.17
   1   8  -1   46.50    0.67
   1   8  -1   56.01    6.55
  -1  -8   1   40.22    0.42
   1   8   0  119.21    9.52
   1   8   1   73.58    7.98
   1   8   2  326.61   16.39
  -1  -8  -2  325.10   11.10
   1   8   3  157.01    7.39
  -1  -8  -3  178.63    7.72
   1   8   4  356.82   12.10
  -1  -8  -4  370.64   12.63
  -1  -8  -4  344.75    5.11
  -1  -8  -4  346.54    5.52
   1   8   5  125.38    7.24
  -1  -8  -5  143.12   11.81
  -1  -8  -5  129.23    3.57
   1   8   6   53.33    5.14
  -1  -8  -6   38.47    1.87
  -1  -8  -6   41.49    5.14
   1   8   7  321.55   19.91
  -1  -8  -7  279.08   12.21
  -1  -8  -7  291.49    6.82
   1   8   8   14.23    4.69
  -1  -8  -8   19.24    4.51
  -1  -8  -8   14.52    3.73
   1   8   9    9.38    4.49
  -1  -8  -9    7.36    4.30
  -1  -8  -9    4.05    3.98
   1   8  10   20.05   10.40
   1   8  10   42.47    2.91
  -1  -8 -10   48.79    5.82
  -1  -8 -10   43.64    3.51
   1   8  11  223.52    6.84
   1   8  11  243.70   13.02
  -1  -8 -11  204.67    7.89
  -1  -8 -11  235.59   18.50
   1   8  12    0.25    2.33
  -1  -8 -12   -1.70    2.80
  -1  -8 -12    7.82    4.34
   1   8  13   17.23    3.06
  -1  -8 -13    9.85    3.68
  -1  -8 -13   12.14    5.42
   1   8  14   61.89    4.47
  -1  -8 -14   70.85    7.24
  -1  -8 -14   41.11    5.26
   1   8  15   -3.08    3.07
  -1  -8 -15   -4.22    6.09
  -1  -8 -15   -0.15    4.92
   1   8  16   17.77    4.07
  -1  -8 -16   18.10    7.52
  -1  -8 -16   28.99    6.14
   1   8  17   17.26    4.04
  -1  -8 -17    7.78    4.70
  -1  -8 -17   14.65    5.96
   1   8  18    5.46    3.87
  -1  -8 -18    3.87    4.45
  -1  -8 -18    0.22    5.47
   1   8  19    2.33    4.13
  -1  -8 -19   -5.55    5.82
  -1  -8 -19   10.15    4.79
   1   8  20   64.65    6.96
  -1  -8 -20   90.13    9.40
  -1  -8 -20   40.60   12.73
   1   9 -26   10.32    9.20
  -1  -9  26   19.73   14.19
   1   9 -25   39.53   10.21
  -1  -9  25   26.90    9.74
   1   9 -24   39.01    9.89
  -1  -9  24   43.78    9.73
   1   9 -23   43.12    9.53
  -1  -9  23   43.60    9.28
   1   9 -22   26.80   15.28
  -1  -9  22   42.51    8.74
   1   9 -21  183.71   15.50
  -1  -9  21  230.29   24.18
   1   9 -20   17.08    7.59
  -1  -9  20   26.03    7.69
   1   9 -19  368.17   21.33
  -1  -9  19  397.46   21.88
   1   9 -18   -4.46    5.43
  -1  -9  18    4.38    5.36
   1   9 -17   74.00    9.07
  -1  -9  17   87.87    9.41
   1   9 -16  133.24   10.18
  -1  -9  16  105.52   10.28
   1   9 -15  159.23   10.93
  -1  -9  15  147.50   18.67
   1   9 -14    1.01    4.38
  -1  -9  14   -1.31    4.75
   1   9 -13  307.40   14.10
  -1  -9  13  317.37   15.36
   1   9 -12   45.92    5.81
  -1  -9  12   55.20    6.41
   1   9 -11  103.17    7.17
  -1  -9  11  120.62    7.74
   1   9 -10  116.28    6.43
  -1  -9  10  105.28    6.94
   1   9  -9  107.13    5.79
  -1  -9   9  116.56    6.38
   1   9  -8    7.65    4.34
  -1  -9   8   -1.38    2.84
   1   9  -7  140.54    5.31
  -1  -9   7  158.42    5.90
   1   9  -6  425.15   13.64
  -1  -9   6  409.24   10.63
   1   9  -5   14.74    2.88
  -1  -9   5   13.07    3.46
   1   9  -4  212.51    4.21
  -1  -9   4  226.83    4.78
   1   9  -3  452.75    7.47
   1   9  -3  465.97   14.42
  -1  -9   3  451.17    7.84
   1   9  -2    4.08    2.90
   1   9  -2    1.97    0.76
  -1  -9   2    0.94    0.81
   1   9  -1  192.27    7.74
   1   9   0  433.31   14.03
   1   9   1   -2.60    3.15
   1   9   2   21.14    6.88
   1   9   3   47.01    5.03
  -1  -9  -3   54.81    5.14
   1   9   4    5.41    3.69
  -1  -9  -4   -1.96    6.36
   1   9   5   33.01    5.07
  -1  -9  -5   32.28    0.78
  -1  -9  -5   29.62    1.04
  -1  -9  -5   37.99    4.91
   1   9   6  173.30    9.68
  -1  -9  -6  173.93    2.85
  -1  -9  -6  203.90   14.69
  -1  -9  -6  189.09    4.46
   1   9   7   10.11    4.19
  -1  -9  -7    2.45    2.08
  -1  -9  -7    2.30    4.08
   1   9   8   59.87    6.61
  -1  -9  -8   62.11    6.39
  -1  -9  -8   54.37    4.13
   1   9   9  110.26    8.22
  -1  -9  -9   90.17    3.87
  -1  -9  -9   98.15   12.77
   1   9  10    4.64    4.78
  -1  -9 -10    6.32    2.34
  -1  -9 -10    2.55    4.69
   1   9  11   26.71    6.98
  -1  -9 -11   50.36    3.64
  -1  -9 -11   57.25    6.68
   1   9  12   90.28    9.16
  -1  -9 -12   73.72    4.76
  -1  -9 -12   83.97    7.94
  -1  -9 -13   28.85    5.89
  -1  -9 -13   14.81    3.61
  -1  -9 -14    3.42    5.31
  -1  -9 -14    6.07    3.33
  -1  -9 -15  109.54    9.65
  -1  -9 -15   98.83   10.65
  -1  -9 -16   16.39   10.07
  -1  -9 -16   11.95    6.99
  -1  -9 -17   25.95   10.71
  -1  -9 -17   13.51    4.69
  -1  -9 -18   -1.40    4.17
  -1  -9 -18   -1.09    9.54
  -1  -9 -19   23.21   11.82
  -1  -9 -19   15.87    5.39
   1  10 -26   79.73   14.53
  -1 -10  26  119.39   13.65
   1  10 -25    7.19    8.12
  -1 -10  25    4.81   13.24
   1  10 -24   85.64   13.36
  -1 -10  24  112.27   12.59
   1  10 -23   36.14   10.04
  -1 -10  23   72.65   10.06
   1  10 -22   26.11   14.09
  -1 -10  22   29.05    8.26
   1  10 -21   33.79   14.22
  -1 -10  21   37.25    8.29
   1  10 -20  157.16   13.90
  -1 -10  20  207.09   22.30
   1  10 -19    7.83    6.56
  -1 -10  19   30.05   11.57
   1  10 -18  244.20   15.58
  -1 -10  18  250.76   16.02
   1  10 -17   20.69    6.37
  -1 -10  17   15.07    6.54
   1  10 -16   84.57    9.34
  -1 -10  16  118.52    9.73
   1  10 -15   96.47    8.37
  -1 -10  15   71.59    8.47
   1  10 -14   29.04    5.74
  -1 -10  14   28.17    6.15
   1  10 -13  307.95   14.19
  -1 -10  13  316.24   14.92
   1  10 -12   26.01    4.76
  -1 -10  12   15.35    8.79
   1  10 -11  637.11   22.14
  -1 -10  11  629.42   32.41
   1  10 -10   26.36    4.17
  -1 -10  10   28.91    7.62
   1  10  -9   21.42    5.92
  -1 -10   9   20.75    6.64
   1  10  -8  189.49    6.79
  -1 -10   8  195.21    7.36
   1  10  -7   99.60    4.28
  -1 -10   7  101.19    4.59
   1  10  -6    3.48    1.80
  -1 -10   6    2.15    2.04
   1  10  -5  891.37   20.74
  -1 -10   5  924.69   26.30
   1  10  -4   12.57    2.08
   1  10  -4   14.46    3.80
  -1 -10   4   14.88    2.29
   1  10  -3  183.54   13.65
   1  10  -3  191.48    3.90
  -1 -10   3  198.93    3.12
   1  10  -2  352.01    4.22
   1  10  -2  377.00   18.30
   1  10  -1   34.66    4.61
   1  10   0  112.21    6.78
   1  10   1   78.26    5.97
   1  10   2   98.72    6.89
   1  10   3  137.15   13.11
   1  10   4  159.83    9.11
  -1 -10  -4  178.95    9.27
   1  10   5   14.34    4.85
  -1 -10  -5   22.36    8.08
   1  10   6   -0.11    4.28
  -1 -10  -6   -3.13    4.12
  -1 -10  -6    2.80    0.68
  -1 -10  -6    0.97    0.58
   1  10   7   39.19    5.85
  -1 -10  -7   35.69    1.74
  -1 -10  -7   32.20    1.99
  -1 -10  -7   41.14    5.75
   1  10   8  269.07   13.16
  -1 -10  -8  233.91    6.64
  -1 -10  -8  246.11   12.70
   1  10   9   76.42   12.54
  -1 -10  -9   86.82    7.49
  -1 -10  -9   66.38    2.73
   1  10  10  293.59   15.17
  -1 -10 -10  302.47   15.11
  -1 -10 -10  281.31   10.60
   1  10  11   36.32    6.81
  -1 -10 -11   34.31    5.04
  -1 -10 -11   26.98    6.34
   1  10  12   18.59    6.07
  -1 -10 -12    2.35    4.65
  -1 -10 -12    9.13    9.11
  -1 -10 -13   47.88    4.29
  -1 -10 -13   34.89    7.36
  -1 -10 -14   16.16    6.21
  -1 -10 -14   23.43    6.35
  -1 -10 -15   -3.33    5.53
  -1 -10 -15   -2.58    5.77
  -1 -10 -16   11.71    7.01
  -1 -10 -16   22.19    6.89
  -1 -10 -17    9.80    7.05
  -1 -10 -17   10.96    6.33
  -1 -10 -18   -0.41    4.06
  -1 -10 -18  -10.24    6.33
   1  11 -26    2.68    7.64
  -1 -11  26   -0.47    7.47
   1  11 -25  170.36   17.25
  -1 -11  25  175.65   16.72
   1  11 -24    6.35    7.42
  -1 -11  24   -5.61   12.39
   1  11 -23   69.18   10.49
  -1 -11  23   43.47   10.12
   1  11 -22   39.44    9.24
  -1 -11  22   46.07    9.17
   1  11 -21   21.82   11.58
  -1 -11  21    4.64    6.83
   1  11 -20   53.02   14.11
  -1 -11  20   40.22    8.50
   1  11 -19   49.46    8.49
  -1 -11  19   48.17    8.43
   1  11 -18   46.70    7.91
  -1 -11  18   36.34   12.87
   1  11 -17   82.46    8.78
  -1 -11  17   82.91   15.55
   1  11 -16   36.56    6.82
  -1 -11  16   38.98    7.06
   1  11 -15   80.28    7.96
  -1 -11  15   81.27    8.50
   1  11 -14   59.76    6.63
  -1 -11  14   60.03    7.52
   1  11 -13   49.53    5.88
  -1 -11  13   45.98    6.44
   1  11 -12  357.04   14.67
  -1 -11  12  369.25   15.39
   1  11 -11   87.96   10.88
  -1 -11  11  114.75    7.36
   1  11 -10  342.22   12.23
  -1 -11  10  368.85   13.45
   1  11  -9   -2.93    2.80
  -1 -11   9   -0.05    3.08
   1  11  -8   -0.54    4.19
  -1 -11   8    4.37    4.36
   1  11  -7  427.80   11.01
  -1 -11   7  435.95   11.63
   1  11  -6    3.95    1.78
  -1 -11   6    4.80    3.24
   1  11  -5  101.19    2.85
  -1 -11   5   98.84    3.04
   1  11  -4  153.23    2.95
   1  11  -4  145.85    8.52
  -1 -11   4  160.29    4.42
   1  11  -3  191.21    9.27
   1  11  -3  194.71    3.35
   1  11  -2   14.76    4.28
   1  11  -1  291.32   12.34
   1  11   0   -0.86    6.39
   1  11   1  317.40   13.19
   1  11   2  131.13    8.47
   1  11   3  403.28   16.72
   1  11   4  176.21   10.12
  -1 -11  -4  167.48    9.94
   1  11   5   85.03    7.69
  -1 -11  -5   82.59    7.66
   1  11   6   53.80    6.85
  -1 -11  -6   58.17   11.44
   1  11   7   52.49    6.73
  -1 -11  -7   46.47    6.61
   1  11   8   -3.25    4.67
  -1 -11  -8   -0.16    0.99
  -1 -11  -8    0.06    4.45
  -1 -11  -8   -0.36    1.14
   1  11   9  246.27   19.49
  -1 -11  -9  202.04    5.47
  -1 -11  -9  186.87    3.68
  -1 -11  -9  215.78   11.95
   1  11  10   -4.82    5.03
  -1 -11 -10    2.84    2.37
  -1 -11 -10   -5.57    8.27
   1  11  11  119.40   15.59
  -1 -11 -11   99.55    9.02
  -1 -11 -11   85.90    3.46
   1  11  12   91.12    9.81
  -1 -11 -12   78.29    8.77
  -1 -11 -12   72.25    3.79
  -1 -11 -13    9.64    5.70
  -1 -11 -13    4.47    4.25
  -1 -11 -14   47.62    7.42
  -1 -11 -14   59.40    8.54
  -1 -11 -15    1.23    5.27
  -1 -11 -15    6.67    5.95
  -1 -11 -16   28.67    7.59
  -1 -11 -17    1.19    6.25
   1  12 -25    5.91    7.48
  -1 -12  25   -7.46    7.31
   1  12 -24   76.96   12.73
  -1 -12  24  100.90   12.29
   1  12 -23    7.56    7.25
  -1 -12  23    1.11   11.85
   1  12 -22   67.59   10.72
  -1 -12  22   88.45   17.47
   1  12 -21    4.90    6.45
  -1 -12  21    2.67    6.53
   1  12 -20   34.37    7.95
  -1 -12  20   36.43    8.25
   1  12 -19   46.09   13.41
  -1 -12  19   44.29    8.24
   1  12 -18   37.65   11.39
  -1 -12  18   24.23    7.16
   1  12 -17   84.96   14.47
  -1 -12  17   86.79    9.33
   1  12 -16   83.40   13.81
  -1 -12  16   90.96    8.83
   1  12 -15   -2.65    7.60
  -1 -12  15   -2.11    4.74
   1  12 -14  546.40   32.08
  -1 -12  14  555.13   23.21
   1  12 -13   76.23   11.27
  -1 -12  13   87.65    7.32
   1  12 -12  231.06   10.77
  -1 -12  12  260.07   11.53
   1  12 -11   45.65    4.87
  -1 -12  11   49.79    5.25
   1  12 -10   -2.25    2.96
  -1 -12  10    6.02    3.14
   1  12  -9   37.32    6.30
  -1 -12   9   44.59    4.06
   1  12  -8  308.45    9.03
  -1 -12   8  325.60   13.94
   1  12  -7   47.26    4.80
  -1 -12   7   51.58    3.14
   1  12  -6  519.65   15.17
  -1 -12   6  540.96   15.79
   1  12  -5    5.68    4.50
   1  12  -5   10.11    1.36
  -1 -12   5    7.91    2.23
   1  12  -4  522.18   10.60
   1  12  -4  522.10   19.77
   1  12  -3   14.35    7.93
   1  12  -2  362.96   15.13
   1  12  -1    4.24    4.25
   1  12   0  101.89    7.66
   1  12   1    4.70    4.41
   1  12   2  278.86   13.35
   1  12   3  174.01   10.48
   1  12   4  406.10   27.27
   1  12   5    9.53    5.09
  -1 -12  -5   12.55    5.14
   1  12   6   28.63    6.27
  -1 -12  -6   32.37    6.23
   1  12   7  147.40   10.44
  -1 -12  -7  135.43   10.35
   1  12   8   -2.48    4.86
  -1 -12  -8    2.32    4.77
   1  12   9   33.91   11.20
  -1 -12  -9   24.78    6.51
   1  12  10  128.40   10.41
  -1 -12 -10  104.38    2.02
  -1 -12 -10  146.42    9.81
  -1 -12 -10  100.27    3.18
   1  12  11   11.79   10.37
  -1 -12 -11   11.00    2.30
  -1 -12 -11   18.74    5.72
  -1 -12 -11    6.54    2.00
   1  12  12  -12.20    6.06
  -1 -12 -12    3.61    1.39
  -1 -12 -12   -0.96    1.56
  -1 -12 -12   11.37    9.00
   1  12  13   30.75    9.01
  -1 -12 -13   56.69   13.13
  -1 -12 -14   -6.74    6.23
  -1 -12 -15   22.49    7.59
  -1 -12 -16   11.66    7.02
   1  13 -25   19.95    7.68
  -1 -13  25  -15.81    7.32
   1  13 -24   20.95    8.35
  -1 -13  24    8.99    8.19
   1  13 -23   91.24   11.89
  -1 -13  23   74.87   11.70
   1  13 -22   15.94    6.88
  -1 -13  22   -3.19    6.84
   1  13 -21  137.87   13.07
  -1 -13  21  166.33   21.68
   1  13 -20   15.25    6.89
  -1 -13  20   21.24   12.05
   1  13 -19  159.84   12.71
  -1 -13  19  167.55   13.48
   1  13 -18    1.28    5.86
  -1 -13  18   19.33    6.10
   1  13 -17   73.42    8.03
  -1 -13  17   72.72    8.88
   1  13 -16   37.47    6.21
  -1 -13  16   33.64    6.74
   1  13 -15  189.66   11.15
  -1 -13  15  207.23   11.93
   1  13 -14   75.44    6.72
  -1 -13  14   62.66    7.22
   1  13 -13  640.82   25.08
  -1 -13  13  765.30   27.51
   1  13 -12   88.90    6.53
  -1 -13  12  103.01    6.83
   1  13 -11  266.73   10.70
  -1 -13  11  292.12   16.72
   1  13 -10    0.48    5.06
  -1 -13  10    9.58    3.11
   1  13  -9   89.69    4.73
  -1 -13   9   95.06    4.89
   1  13  -8   17.86    4.35
  -1 -13   8   19.27    4.48
   1  13  -7  122.49    6.47
  -1 -13   7  138.58    4.32
   1  13  -6   17.25    2.86
   1  13  -6   18.44    5.22
  -1 -13   6   14.22    1.65
   1  13  -5  181.67    4.95
   1  13  -5  205.09   10.67
   1  13  -4    3.13    0.99
   1  13  -4    5.88    4.29
   1  13  -3  355.13   15.87
   1  13  -2    5.57    4.60
   1  13  -1  155.71    9.69
   1  13   0  215.38   11.78
   1  13   1   13.61    5.20
   1  13   2   61.14    7.03
   1  13   3  205.63   11.73
   1  13   4   18.80    9.52
   1  13   5  130.95    9.74
   1  13   6   25.16    6.37
   1  13   7   10.40    5.55
  -1 -13  -7    4.64    5.43
   1  13   8   56.73    8.16
  -1 -13  -8   53.74    8.07
   1  13   9   72.83    9.42
  -1 -13  -9   93.93    9.44
   1  13  10   11.03    6.40
  -1 -13 -10   10.90   10.07
   1  13  11   73.14   15.96
  -1 -13 -11   67.13    8.81
   1  13  12   -2.94    6.52
  -1 -13 -12   -1.07    5.93
   1  13  13   56.42    9.82
  -1 -13 -13   34.88    8.27
  -1 -13 -14    4.42    6.58
  -1 -13 -15   45.44    9.04
   1  14 -24   41.36   10.01
  -1 -14  24   35.25    9.73
   1  14 -23   26.11    8.23
  -1 -14  23   10.44    8.24
   1  14 -22   56.27   10.28
  -1 -14  22   75.77   10.45
   1  14 -21   -5.55    6.17
  -1 -14  21    7.74    6.18
   1  14 -20  190.87   14.25
  -1 -14  20  201.62   15.16
   1  14 -19   48.64    8.49
  -1 -14  19   68.89    9.01
   1  14 -18  304.43   17.95
  -1 -14  18  354.33   19.27
   1  14 -17   -1.16    4.88
  -1 -14  17    5.51    5.21
   1  14 -16   46.95    6.95
  -1 -14  16   62.12    7.24
   1  14 -15   17.58    5.61
  -1 -14  15   42.39    5.84
   1  14 -14   92.68    7.48
  -1 -14  14  111.02    7.55
   1  14 -13    8.94    4.19
  -1 -14  13   13.88    4.27
   1  14 -12  304.59   17.84
  -1 -14  12  331.46   12.82
   1  14 -11    6.45    3.08
  -1 -14  11    1.70    3.12
   1  14 -10  126.18    5.97
  -1 -14  10  144.19    9.11
   1  14  -9   20.82    3.03
  -1 -14   9   35.64    3.03
   1  14  -8   58.73    5.51
  -1 -14   8   76.03    5.21
   1  14  -7   73.08    7.58
   1  14  -7   65.37    4.56
  -1 -14   7   73.91    4.45
   1  14  -6    0.64    1.23
   1  14  -6   -2.88    4.57
   1  14  -5  276.32   13.38
   1  14  -5  254.76    5.48
   1  14  -4   21.28    5.65
   1  14  -3   38.88   10.64
   1  14  -2  192.85   11.40
   1  14  -1   15.16    5.41
   1  14   0   76.36    7.65
   1  14   1  105.24    9.06
   1  14   2   20.68    9.53
   1  14   3   21.34    5.85
   1  14   4  120.32   10.23
   1  14   5    7.91    5.49
   1  14   6   79.47    9.13
   1  14   7   10.28    6.09
   1  14   8   98.98   10.40
  -1 -14  -8   92.18    9.89
   1  14   9   -8.68   10.31
  -1 -14  -9    7.47    5.83
   1  14  10  150.08   13.50
  -1 -14 -10  150.78   12.74
   1  14  11   -1.90   11.63
  -1 -14 -11   11.25    6.67
   1  14  12   74.19   10.85
  -1 -14 -12   53.06   16.74
   1  14  13  -10.05    8.01
  -1 -14 -13   -6.07   11.58
  -1 -14 -14   59.42   10.34
   1  15 -23   24.44   13.30
  -1 -15  23    7.37   13.82
   1  15 -22   30.94   14.92
  -1 -15  22   44.95    9.34
   1  15 -21   12.41    7.12
  -1 -15  21   15.77    7.26
   1  15 -20    9.67    6.31
  -1 -15  20    8.00    6.63
   1  15 -19  161.98   13.15
  -1 -15  19  192.45   13.86
   1  15 -18   28.16    6.12
  -1 -15  18    2.31    6.35
   1  15 -17  115.17    9.81
  -1 -15  17  139.69   10.41
   1  15 -16   12.40    8.95
  -1 -15  16   19.74    5.60
   1  15 -15   10.81    8.30
  -1 -15  15   21.20    5.26
   1  15 -14   35.48    8.96
  -1 -15  14   49.40    9.30
   1  15 -13   22.98    4.25
  -1 -15  13   14.48    7.02
   1  15 -12   65.04    5.15
  -1 -15  12   66.63    5.26
   1  15 -11   16.70    6.20
  -1 -15  11   37.75    3.83
   1  15 -10   54.22    4.06
  -1 -15  10   66.07    6.42
   1  15  -9   96.75    6.45
  -1 -15   9   88.97    4.04
   1  15  -8    6.22    3.35
   1  15  -8    6.39    5.36
  -1 -15   8    9.19    1.94
   1  15  -7   96.46    4.65
   1  15  -7   89.94    8.71
   1  15  -6   60.84    7.05
   1  15  -6   56.82    2.84
   1  15  -5   -1.24    4.60
   1  15  -5   -0.17    0.66
   1  15  -5    1.12    0.67
   1  15  -4  184.98   11.62
   1  15  -3    9.86    5.20
   1  15  -2    4.99    8.44
   1  15  -1  181.50   11.63
   1  15   0   10.47    5.49
   1  15   1   61.39    7.91
   1  15   2   16.29    5.75
   1  15   3  111.21    9.90
   1  15   4    3.50    5.51
   1  15   5  134.13   11.22
   1  15   6    5.02    5.89
   1  15   7   34.76   13.10
   1  15   8    4.44    6.31
   1  15   9  101.64   19.25
   1  15  10    8.04    7.20
  -1 -15 -10    5.80    6.72
   1  15  11   78.53   19.32
  -1 -15 -11   85.45   11.06
   1  15  12  -13.29    8.07
  -1 -15 -12   -5.03    7.36
   1  16 -22  -12.30    6.49
  -1 -16  22    4.63    7.03
   1  16 -21   46.86    8.19
  -1 -16  21   30.94    8.82
   1  16 -20    2.53    5.84
  -1 -16  20    4.07    6.15
   1  16 -19   23.27    7.25
  -1 -16  19   46.20    7.72
   1  16 -18   50.62    7.06
  -1 -16  18   36.11    7.53
   1  16 -17   -5.49    4.56
  -1 -16  17    4.61    4.77
   1  16 -16   84.50    7.64
  -1 -16  16   88.91    7.94
   1  16 -15   -1.10    4.36
  -1 -16  15   13.09    4.38
   1  16 -14   74.04    6.49
  -1 -16  14   79.93    6.43
   1  16 -13   14.56    6.33
  -1 -16  13    7.70    3.79
   1  16 -12   20.88    3.84
  -1 -16  12   23.35    6.04
   1  16 -11   52.30    4.24
  -1 -16  11   52.53    3.99
   1  16 -10   30.69    6.60
   1  16 -10   23.98    3.10
  -1 -16  10   25.28    4.75
   1  16  -9   21.75    5.83
   1  16  -9   13.31    3.83
  -1 -16   9    8.62    2.25
   1  16  -8  140.01    6.25
   1  16  -8  137.16   10.88
   1  16  -7   10.04    1.43
   1  16  -7   17.05    5.53
   1  16  -6  127.37    2.99
   1  16  -6  123.09    2.14
   1  16  -6  152.67   10.40
   1  16  -5   -2.10    5.03
   1  16  -4   36.47    6.80
   1  16  -3   15.67    5.83
   1  16  -2   73.37    8.35
   1  16  -1   16.17    5.89
   1  16   0   73.38    8.74
   1  16   1   12.92   10.28
   1  16   2   54.80    8.16
   1  16   4  122.02   11.33
   1  16   5   -0.93    9.65
   1  16   6   15.22    6.97
   1  16   7   33.23   14.07
   1  16   8   17.53    7.57
   1  16   9   13.80   13.13
   1  16  10   23.22    8.61
   1  17 -21    9.76    6.79
  -1 -17  21   14.91    7.34
   1  17 -20   22.61    6.74
  -1 -17  20    6.35    6.94
   1  17 -19   10.08    6.22
  -1 -17  19   21.52    6.57
   1  17 -18    7.50    5.23
  -1 -17  18    2.76    5.51
   1  17 -17   27.16    6.02
  -1 -17  17   26.74    5.99
   1  17 -16    0.29    4.41
  -1 -17  16   -6.18    7.23
   1  17 -15  107.55   13.01
  -1 -17  15  130.60   12.43
   1  17 -14   17.92    4.45
  -1 -17  14   13.93    4.16
   1  17 -13  211.42    9.74
  -1 -17  13  227.53    9.31
   1  17 -12   32.81    6.23
  -1 -17  12   11.32    5.71
   1  17 -11   62.35    4.53
   1  17 -11   89.90    9.09
  -1 -17  11   67.27    4.11
   1  17 -10   12.32    4.31
   1  17 -10   13.51    6.48
   1  17  -9   46.37    7.67
   1  17  -9   41.69    4.53
   1  17  -8   -4.27    5.09
   1  17  -8    0.08    1.40
   1  17  -7  112.06    3.43
   1  17  -7  106.50    2.28
   1  17  -6   28.83    6.95
   1  17  -5  130.07   11.08
   1  17  -4    1.09    5.38
   1  17  -3   70.42    8.69
   1  17  -2    2.10    5.51
   1  17  -1   31.57    7.25
   1  17   0   29.78    7.33
   1  17   1    0.06    5.52
   1  17   2   84.53    9.84
   1  17   3   25.16    7.54
   1  17   4    2.61    6.21
   1  17   5   47.64    9.23
   1  17   6    5.45    6.81
   1  17   7  -14.88    7.93
   1  17   8   44.05    9.89
   1  17   9    1.87    7.34
   1  18 -20   64.76   13.89
  -1 -18  20   45.67    8.58
   1  18 -19   -6.22    9.70
  -1 -18  19   -8.07    5.76
   1  18 -18   49.26   11.49
  -1 -18  18   37.01    6.79
   1  18 -17   -6.11    4.86
  -1 -18  17   -3.54    4.72
   1  18 -16   12.28    5.09
  -1 -18  16   17.03    4.73
   1  18 -15    8.84    4.28
  -1 -18  15    4.71    6.64
   1  18 -14  120.65    7.71
  -1 -18  14  130.63   11.30
   1  18 -13   33.97    4.65
  -1 -18  13   41.14    4.25
   1  18 -12  159.36    7.46
   1  18 -12  206.42   14.37
   1  18 -11   29.26    3.44
   1  18 -11   55.25    8.09
   1  18 -10   56.86    3.45
   1  18 -10   75.53    9.13
   1  18  -9    6.18    1.60
   1  18  -9    3.37    6.07
   1  18  -8   23.89    7.10
   1  18  -7    1.93    5.69
   1  18  -6   36.75   12.83
   1  18  -5   -3.64    5.90
   1  18  -4    6.14   10.55
   1  18  -3   -9.92    6.28
   1  18  -2   24.48   12.52
   1  18  -1   -6.88    6.18
   1  18   0   16.64   11.87
   1  18   1   88.04   10.66
   1  18   2   -8.29   11.28
   1  18   3   37.80    8.94
   1  18   4   31.60   14.16
   1  18   5  -10.81    7.61
   1  18   6   18.94    8.23
   1  18   7    3.68    7.50
   1  19 -18    1.23    4.98
  -1 -19  18   -8.03    7.90
   1  19 -17   36.00    6.74
  -1 -19  17   59.18    6.30
   1  19 -16    9.79    7.18
  -1 -19  16   -0.39    3.98
   1  19 -15    4.47    4.13
  -1 -19  15    5.29    3.81
   1  19 -14    2.31    3.60
   1  19 -14    4.58    6.78
   1  19 -13   55.91    8.82
   1  19 -13   20.34    6.73
   1  19 -12    1.95   11.11
   1  19 -11   86.63   10.84
   1  19 -10    7.33    6.49
   1  19  -9   62.11    9.39
   1  19  -8    6.30    6.38
   1  19  -7   22.10   12.13
   1  19  -6   35.27    8.05
   1  19  -5    4.39   10.72
   1  19  -4   32.31    7.93
   1  19  -3   21.31    7.58
   1  19  -2   -3.17    6.50
   1  19  -1   60.72    9.58
   1  19   0   -6.42    6.91
   1  19   1    5.99    6.91
   1  19   2   11.17    7.47
   1  19   3   15.28    8.07
   1  19   4    8.48    7.63
   1  20 -16   12.80    4.12
   1  20 -11   -1.31   10.71
   1  20 -10   34.69    8.86
   1  20  -9   -8.52    7.19
   1  20  -8   62.91   16.84
   1  20  -7    4.14    6.82
   1  20  -6   39.27   15.16
   1  20  -5    1.09    6.61
   1  20  -4   13.28    7.43
   1  20  -3    6.79    7.19
   1  20  -2   54.27   10.15
   1  20  -1   -6.92    7.34
   1  20   0   69.99   11.18
   1  20   1    3.50   12.21
   1  21  -6   20.65    8.67
   1  21  -5   38.59    9.72
   1  21  -4   -5.24    7.54
  -2  21   0   -0.81    6.63
  -2  21  -1    2.27    6.57
  -2  20   4   -2.92    7.23
  -2  20   3   -5.69    7.23
  -2  20   2   27.04    8.49
  -2  20   1    8.94   11.89
  -2  20   0   17.99    7.42
  -2  20  -1   16.45   11.98
  -2  20  -2    0.73    5.70
  -2  20  -3    3.46    5.92
  -2  20  -4    4.04    5.76
  -2  20  -5   -9.13    6.06
  -2  20  -6    5.04    9.51
  -2  20 -11    9.22    5.28
  -2  20 -11   -0.51    3.33
  -2  20 -12    2.86    6.25
  -2  20 -12    5.39    6.12
  -2  20 -13   16.87    4.81
  -2  20 -13   19.92    4.89
  -2  20 -14   15.27    4.94
  -2  20 -15    6.61    4.99
  -2  19   6   -4.42    7.16
  -2  19   5    2.37    6.84
  -2  19   4   27.62   14.48
  -2  19   3    1.74    6.27
  -2  19   2   14.08    7.01
  -2  19   1   16.24    7.00
  -2  19   0   -6.19    6.21
  -2  19  -1   15.67    6.50
  -2  19  -2   14.92    6.13
  -2  19  -3    1.00    8.93
  -2  19  -4   20.06    6.37
  -2  19  -5   -1.28    8.58
  -2  19  -6   32.24    6.59
  -2  19  -7    4.87    5.15
  -2  19  -8    7.72    2.52
  -2  19  -8    3.97    2.49
  -2  19  -8   10.16    5.31
  -2  19  -9    5.89    2.84
  -2  19  -9    1.69    2.77
  -2  19  -9    5.47    5.20
  -2  19 -10   -0.07    3.13
  -2  19 -10   11.15    4.90
  -2  19 -10    0.05    3.03
  -2  19 -11   12.58    6.67
  -2  19 -11   15.81    3.90
  -2  19 -11   19.62    5.93
  -2  19 -12   -9.90    8.41
  -2  19 -12   -2.39    6.34
  -2  19 -12   -1.13    3.73
  -2  19 -13   -3.63    7.06
  -2  19 -14    6.29    7.79
  -2  19 -15    1.75    4.70
  -2  19 -16    4.16    5.24
  -2  19 -17   -0.77    5.32
  -2  19 -18  -10.37    6.24
  -2  18   9   27.56   16.11
  -2  18   8    6.33    7.42
  -2  18   7   -2.88    7.01
  -2  18   6    7.07    7.07
  -2  18   5   19.78    7.72
  -2  18   4   16.00    7.17
  -2  18   3   55.39    9.06
  -2  18   2    4.93    9.99
  -2  18   1   43.31    7.76
  -2  18   0  -15.90   10.38
  -2  18  -1    9.72    5.73
  -2  18  -2    2.53    8.55
  -2  18  -3    0.33    4.75
  -2  18  -4    8.78    5.34
  -2  18  -5    4.31    1.46
  -2  18  -5   -1.65    4.96
  -2  18  -5    1.10    2.47
  -2  18  -6    7.84    3.29
  -2  18  -6    7.41    3.43
  -2  18  -6   16.75    5.22
  -2  18  -7   11.42    4.23
  -2  18  -7    3.98    5.37
  -2  18  -7   15.27    2.48
  -2  18  -8   -2.97    2.60
  -2  18  -8   -1.28    2.44
  -2  18  -8    1.90    4.73
  -2  18  -9    4.66    2.94
  -2  18  -9   -1.00    4.67
  -2  18  -9   -0.05    2.79
  -2  18 -10   50.18    4.86
  -2  18 -10   42.36    4.64
  -2  18 -10   61.73    6.79
  -2  18 -11   18.85    4.12
  -2  18 -11   26.71    8.48
  -2  18 -11    1.52    3.82
  -2  18 -12   70.48    6.76
  -2  18 -12  102.03    7.98
  -2  18 -13   31.88    5.46
  -2  18 -13   21.88   10.26
  -2  18 -14   23.07    5.42
  -2  18 -14   22.61    5.85
  -2  18 -15    7.38    5.09
  -2  18 -16    5.59    5.46
  -2  18 -17    2.38    5.51
  -2  18 -18    3.61    9.76
  -2  18 -19   17.18   12.03
   2 -17 -11   -1.73    7.04
  -2  17  11   11.51    8.18
   2 -17 -10   -4.41    7.25
  -2  17  10   23.35    8.13
   2 -17  -9   -2.93    6.53
  -2  17   9   -5.59   11.85
   2 -17  -8   29.68    7.77
  -2  17   8   26.78    8.62
  -2  17   7    3.81   11.14
  -2  17   6    1.48    6.19
  -2  17   5   23.35    7.43
  -2  17   4   14.99    6.47
  -2  17   3    7.59    6.15
  -2  17   2   18.46    6.29
  -2  17   1    7.49    5.63
  -2  17   0    4.77    5.18
  -2  17  -1    5.00    4.93
  -2  17  -2    4.62    4.91
  -2  17  -3   11.49    5.20
  -2  17  -3   10.15    1.76
  -2  17  -3   13.39    1.24
  -2  17  -4   21.71    5.93
  -2  17  -4   36.80    2.08
  -2  17  -4   24.33    1.84
  -2  17  -5  120.86    3.95
  -2  17  -5  150.93    9.10
  -2  17  -5  108.70    6.64
  -2  17  -6   37.20    5.54
  -2  17  -6   49.03    6.46
  -2  17  -6   50.24    4.76
  -2  17  -7   97.37    4.56
  -2  17  -7  105.29    8.38
  -2  17  -7   95.49    5.17
  -2  17  -8    3.09    2.55
  -2  17  -8    0.62    2.99
  -2  17  -8    1.03    4.40
  -2  17  -9   12.29    3.21
  -2  17  -9   11.68    4.82
  -2  17  -9    2.79    3.59
  -2  17 -10   -1.86    3.64
  -2  17 -10   -2.09    4.24
  -2  17 -11   36.98    6.14
  -2  17 -11   50.93    5.62
  -2  17 -12   17.81    4.85
  -2  17 -12    8.45    8.58
  -2  17 -13   65.13   11.55
  -2  17 -13   66.32    7.15
  -2  17 -14   10.27    9.60
  -2  17 -14   24.73    5.28
  -2  17 -15   30.36    6.46
  -2  17 -16   14.11    6.05
  -2  17 -17    7.35    5.99
  -2  17 -18    5.91    6.08
  -2  17 -19   10.11    6.82
  -2  17 -20   10.96   11.95
   2 -16 -12   11.66    7.46
   2 -16 -11    9.64    6.39
  -2  16  11   -6.99    7.66
   2 -16 -10   38.69    8.12
  -2  16  10   21.75    9.07
   2 -16  -9   17.50   11.49
  -2  16   9    8.71   12.42
   2 -16  -8   12.31    6.58
  -2  16   8   14.39    6.95
   2 -16  -7   14.00    6.22
  -2  16   7    6.81   11.56
   2 -16  -6   70.18    8.25
  -2  16   6   55.68    9.09
  -2  16   5   11.08   10.75
  -2  16   4   56.77    8.05
  -2  16   3    2.51    5.23
  -2  16   2  134.32   10.04
  -2  16   1   59.62   12.41
  -2  16   0   87.86    8.13
  -2  16  -1    8.83    8.47
  -2  16  -2   -0.70    1.65
  -2  16  -2    2.34    1.42
  -2  16  -2   -1.84    4.43
  -2  16  -3   10.56    1.68
  -2  16  -3   12.88    2.28
  -2  16  -3   17.97    8.10
  -2  16  -4   14.36    2.87
  -2  16  -4   11.03    3.43
  -2  16  -4    5.37    4.70
  -2  16  -5   16.25    8.26
  -2  16  -5   15.28    4.34
  -2  16  -5   18.18    3.43
  -2  16  -6  149.53    8.70
  -2  16  -6  125.28    4.80
  -2  16  -6  139.15    8.70
  -2  16  -7   25.81    5.06
  -2  16  -7   18.94    2.93
  -2  16  -7   21.62    3.39
  -2  16  -8   67.07    8.52
  -2  16  -8   74.31    4.59
  -2  16  -8   81.29    6.87
  -2  16  -9   -7.26    4.08
  -2  16  -9   -0.18    5.91
  -2  16 -10   10.84    4.36
  -2  16 -10    3.24    6.74
  -2  16 -11   22.01    8.06
  -2  16 -11   21.13    5.07
  -2  16 -12    3.54    4.24
  -2  16 -12    3.20    4.16
  -2  16 -13   12.92    5.14
  -2  16 -14    3.30    4.84
  -2  16 -15    5.58    5.35
  -2  16 -16   37.10    7.24
  -2  16 -17    3.92    9.55
  -2  16 -18    3.87    5.90
  -2  16 -19   18.51    7.28
  -2  16 -20    9.37    7.03
  -2  16 -21   13.71    7.85
   2 -15 -14   28.17    8.58
   2 -15 -13  -10.94    7.27
   2 -15 -12    6.29   11.03
   2 -15 -11   84.77   10.06
  -2  15  11  101.15   12.27
   2 -15 -10    2.28    5.93
  -2  15  10    6.02    6.79
   2 -15  -9   81.53    9.46
  -2  15   9   88.07   17.15
   2 -15  -8    5.58    5.19
  -2  15   8   -7.22    5.68
   2 -15  -7   74.86   14.89
  -2  15   7   86.82   15.90
   2 -15  -6   -0.64    5.41
  -2  15   6   10.41    5.67
   2 -15  -5   35.23    6.78
  -2  15   5   30.50   11.57
  -2  15   4   74.86    8.39
  -2  15   3    9.92    8.95
  -2  15   2    7.05    4.98
  -2  15   1  137.05   15.53
  -2  15   0   10.89    4.81
  -2  15   0   11.46    0.87
  -2  15   0    8.75    0.62
  -2  15  -1   43.24    2.08
  -2  15  -1   41.78    1.61
  -2  15  -1   46.06    6.14
  -2  15  -2   91.62    4.50
  -2  15  -2   89.48    3.64
  -2  15  -2  100.60    7.47
  -2  15  -3   64.15    2.39
  -2  15  -3   75.60    6.63
  -2  15  -3   54.71    4.68
  -2  15  -4  199.76    6.16
  -2  15  -4  238.11   16.96
  -2  15  -4  209.73    5.32
  -2  15  -5    4.19    3.44
  -2  15  -5   16.18    4.47
  -2  15  -5   13.40    2.65
  -2  15  -6   63.69   10.17
  -2  15  -6   58.44    3.51
  -2  15  -6   68.51    6.80
  -2  15  -7   11.73    2.79
  -2  15  -7   19.40    4.30
  -2  15  -7    8.28    5.48
  -2  15  -8    1.24    3.65
  -2  15  -8    3.89    5.28
  -2  15  -9   11.63    3.93
  -2  15  -9    4.09    3.72
  -2  15 -10   -8.28    4.02
  -2  15 -10   -4.66    4.16
  -2  15 -11   10.57    4.19
  -2  15 -11    8.18    4.49
  -2  15 -12   57.93    6.56
  -2  15 -13   29.45    9.72
  -2  15 -14  110.68   15.30
  -2  15 -15    3.64    5.10
  -2  15 -16    2.87    5.36
  -2  15 -17   86.50    9.81
  -2  15 -18   21.82   11.96
  -2  15 -19   37.94    8.11
   2 -15  20    3.19    6.63
  -2  15 -20  -13.14    6.68
   2 -15  21    8.88    7.31
  -2  15 -21   12.04    7.38
   2 -15  22   -9.27    7.03
  -2  15 -22    5.52    6.89
   2 -14 -15   10.19    7.44
   2 -14 -14    5.15    6.69
   2 -14 -13   12.69    7.05
   2 -14 -12   40.96    8.40
   2 -14 -11   13.15    6.17
  -2  14  11    4.54    7.43
   2 -14 -10   96.56    8.36
   2 -14 -10   49.63    1.68
  -2  14  10   88.93    9.37
   2 -14  -9   -3.06    8.39
   2 -14  -9   -0.05    0.69
  -2  14   9    0.53    9.38
  -2  14   9    0.86    1.12
   2 -14  -8   82.32    7.90
  -2  14   8   95.81    9.07
  -2  14   8   62.89    1.47
   2 -14  -7    5.54    5.10
  -2  14   7    3.38    9.42
   2 -14  -6  110.89    8.92
  -2  14   6  102.81    9.75
   2 -14  -5   80.85    7.97
  -2  14   5   56.98   13.42
   2 -14  -4   25.32    5.60
  -2  14   4   17.08    5.89
  -2  14   3  187.03   11.16
  -2  14   2    4.66    4.69
  -2  14   1   68.01    6.98
  -2  14   1   67.70    1.27
  -2  14   1   64.58    2.12
  -2  14   0   52.04    2.24
  -2  14   0   57.56    6.32
  -2  14   0   51.53    2.69
  -2  14  -1    0.70    4.14
  -2  14  -1    2.62    1.77
  -2  14  -1    1.85    2.23
  -2  14  -2   40.61    8.69
  -2  14  -2   25.60    2.15
  -2  14  -2   30.47    1.75
  -2  14  -3  216.21    5.93
  -2  14  -3  244.19   11.00
  -2  14  -3  219.37    5.25
  -2  14  -4  104.33    4.29
  -2  14  -4  104.42    3.65
  -2  14  -4   97.84    7.25
  -2  14  -5  379.84   13.44
  -2  14  -5  362.87   15.12
  -2  14  -5  398.15   14.97
  -2  14  -6    3.90    3.72
  -2  14  -6    2.09    2.23
  -2  14  -6    2.74    4.63
  -2  14  -7   76.81    6.09
  -2  14  -7   77.68    5.19
  -2  14  -8   -0.12    3.10
  -2  14  -8    0.81    3.47
  -2  14  -9   21.19    4.47
  -2  14  -9   22.28    4.35
  -2  14 -10  108.99    7.38
  -2  14 -11   58.48   10.25
  -2  14 -12  109.84    8.45
  -2  14 -13   10.74    5.07
  -2  14 -14    1.62    4.88
  -2  14 -15   59.74   13.11
   2 -14  16   34.66    6.28
  -2  14 -16   21.19    6.94
   2 -14  17    9.59    5.85
  -2  14 -17   15.73    6.37
   2 -14  18  145.87   12.02
  -2  14 -18  140.35   12.26
   2 -14  19   23.38    7.05
  -2  14 -19   13.33    7.59
   2 -14  20   54.85    9.34
  -2  14 -20   58.11    9.37
   2 -14  21    2.22    7.03
  -2  14 -21   11.02    7.22
   2 -14  22    9.95    7.82
  -2  14 -22   11.76    7.89
   2 -14  23  -12.98    8.64
  -2  14 -23  -15.36    8.66
   2 -13 -17   72.75   11.17
   2 -13 -16   -2.22    6.62
   2 -13 -15   30.24    8.28
   2 -13 -14   22.19    7.49
   2 -13 -13   27.53    6.52
   2 -13 -13    9.00    2.36
   2 -13 -12   23.35    3.75
   2 -13 -12   47.06   11.47
  -2  13  12   16.12    2.19
   2 -13 -11   14.71    3.24
   2 -13 -11   31.37   10.86
  -2  13  11   34.09    7.71
  -2  13  11   18.44    1.96
   2 -13 -10   97.82    9.17
   2 -13 -10   83.57    4.28
  -2  13  10  107.17   10.30
  -2  13  10   79.36    4.46
   2 -13  -9    2.65    1.99
   2 -13  -9   -0.62    5.04
  -2  13   9   11.36    9.37
  -2  13   9    2.03    1.41
   2 -13  -8   31.55    6.46
   2 -13  -8   33.94    2.37
  -2  13   8   31.68    2.75
  -2  13   8   39.70    6.90
   2 -13  -7  140.49   15.01
   2 -13  -7  110.95    2.31
  -2  13   7  127.38    2.71
  -2  13   7  142.43   16.09
   2 -13  -6    6.45    4.39
  -2  13   6    1.50    0.90
  -2  13   6   -8.32    4.89
   2 -13  -5   79.92    7.40
  -2  13   5   84.18    1.82
  -2  13   5   93.41   13.49
   2 -13  -4    9.31    8.88
  -2  13   4   18.07    1.15
  -2  13   4   18.66    5.52
  -2  13   4   19.05    1.58
   2 -13  -3   21.68    5.11
  -2  13   3   22.42    5.28
  -2  13   3   17.23    0.79
  -2  13   3   17.54    1.58
  -2  13   2  361.07    7.04
  -2  13   2  343.62    5.47
  -2  13   2  367.88   15.98
  -2  13   1    1.32    4.09
  -2  13   1    3.96    1.50
  -2  13   1    2.69    0.95
  -2  13   0   17.14    8.02
  -2  13   0   23.42    2.08
  -2  13   0   13.89    2.35
  -2  13  -1  203.47    4.22
  -2  13  -1  193.31    4.48
  -2  13  -1  202.77    9.81
  -2  13  -2    0.72    2.25
  -2  13  -2    1.84    2.65
  -2  13  -2    0.01    3.62
  -2  13  -3  126.79   12.13
  -2  13  -3  126.75    4.30
  -2  13  -3  121.71    5.47
  -2  13  -4   18.28    2.65
  -2  13  -4   25.44    2.29
  -2  13  -4   29.02    4.38
  -2  13  -5  120.04    6.92
  -2  13  -5  118.44    7.07
  -2  13  -5  118.72    7.83
  -2  13  -6   48.94    7.85
  -2  13  -6   32.20    3.21
  -2  13  -6   53.11    3.86
  -2  13  -7   13.78    3.77
  -2  13  -7    9.46    3.30
  -2  13  -8   79.08    5.80
  -2  13  -8   69.44    5.46
  -2  13  -9   56.01    9.21
  -2  13 -10    6.08    4.09
  -2  13 -11  246.35   12.45
  -2  13 -12  142.31   15.48
  -2  13 -13  273.46   14.24
   2 -13  14    5.51    4.18
  -2  13 -14   -7.06    4.72
   2 -13  15   76.22    8.03
  -2  13 -15   68.00    8.51
   2 -13  16   23.82    6.17
  -2  13 -16   24.75   11.25
   2 -13  17   32.36    6.96
  -2  13 -17   28.24    7.47
   2 -13  18   11.31    6.20
  -2  13 -18   10.44    6.70
   2 -13  19   43.17    7.98
  -2  13 -19   32.64    8.61
   2 -13  20    5.03    6.16
  -2  13 -20  -11.42   10.77
   2 -13  21   43.72    9.00
  -2  13 -21   40.67    9.40
   2 -13  22   23.50    7.92
  -2  13 -22    4.50    8.14
   2 -13  23   48.95    9.91
  -2  13 -23   27.44   10.26
   2 -13  24    3.41    7.50
  -2  13 -24   -9.74   12.82
   2 -12 -18   20.65   13.80
   2 -12 -17    2.38   12.04
   2 -12 -17   10.54    3.92
   2 -12 -16   20.46   11.98
   2 -12 -16   13.86    6.06
  -2  12  16   10.62    4.84
   2 -12 -15   20.44    6.13
   2 -12 -15    7.56   12.15
  -2  12  15   21.98    3.12
   2 -12 -14   14.13    3.19
   2 -12 -14   22.48    6.69
  -2  12  14   11.72    3.09
   2 -12 -13   40.09    7.09
   2 -12 -13   22.28    5.25
  -2  12  13   25.23    5.40
   2 -12 -12   73.01    7.67
   2 -12 -12   39.55    3.30
  -2  12  12   46.29    3.48
   2 -12 -11   61.20    5.18
   2 -12 -11   61.42    7.94
  -2  12  11   60.83    5.56
   2 -12 -10   20.16    5.67
   2 -12 -10   10.84    3.29
  -2  12  10   14.20    2.29
  -2  12  10    4.71    6.48
   2 -12  -9   90.32    4.66
   2 -12  -9   99.19    8.49
  -2  12   9   85.31   15.46
  -2  12   9   95.29    5.60
   2 -12  -8   20.47    5.61
   2 -12  -8   10.36    2.66
  -2  12   8   26.90    2.07
  -2  12   8   21.29    6.02
   2 -12  -7    6.57    5.16
   2 -12  -7   10.02    1.39
  -2  12   7   15.24    9.43
  -2  12   7   20.21    1.78
   2 -12  -6  270.62    6.69
   2 -12  -6  308.04   13.70
  -2  12   6  290.28   14.46
  -2  12   6  274.56    6.01
   2 -12  -5  175.05    9.91
  -2  12   5  164.57   16.77
  -2  12   5  169.85    5.26
   2 -12  -4  515.85   19.77
  -2  12   4  523.94   21.19
  -2  12   4  499.04    9.54
   2 -12  -3    3.40    6.77
  -2  12   3    3.41    4.03
  -2  12   3   -0.51    0.94
   2 -12  -2   65.64    6.18
  -2  12   2   70.16    2.78
  -2  12   2   69.73    6.25
  -2  12   2   61.47    2.55
  -2  12   1   29.64    1.44
  -2  12   1   24.07    4.97
  -2  12   1   34.30    1.48
  -2  12   0  386.04    7.44
  -2  12   0  384.61    7.40
  -2  12   0  418.78   15.15
  -2  12  -1   14.75    4.30
  -2  12  -1   16.00    2.91
  -2  12  -1   21.87    2.60
  -2  12  -2  528.93   17.50
  -2  12  -2  484.28   13.46
  -2  12  -2  495.50   11.14
  -2  12  -3    0.22    1.83
  -2  12  -3    1.34    2.63
  -2  12  -3    1.46    3.31
  -2  12  -4  751.51   32.92
  -2  12  -4  717.75   19.00
  -2  12  -4  748.79   18.87
  -2  12  -5   90.41    4.66
  -2  12  -5  106.13    4.20
  -2  12  -5  105.27    6.17
  -2  12  -6  575.55   16.77
  -2  12  -6  593.65   18.83
  -2  12  -7    4.67    4.88
  -2  12  -7    1.33    3.16
  -2  12  -8   37.95    4.55
  -2  12  -9   72.62    5.93
  -2  12 -10   51.36    9.33
  -2  12 -11    7.81    4.55
  -2  12 -12  134.56    9.56
   2 -12  13   41.19    5.93
  -2  12 -13   49.26    6.86
   2 -12  14  200.35   11.05
  -2  12 -14  169.83   11.94
   2 -12  15    2.34    4.89
  -2  12 -15    9.46    5.55
   2 -12  16  181.72   11.85
  -2  12 -16  168.44   12.73
   2 -12  17   -1.10    9.43
  -2  12 -17   13.20   10.38
   2 -12  18   27.52   11.32
  -2  12 -18   18.29    7.28
   2 -12  19   30.84   13.62
  -2  12 -19   42.82    8.82
   2 -12  20    5.88   12.04
  -2  12 -20   20.67    7.73
   2 -12  21   13.61   12.56
  -2  12 -21   15.27   13.12
   2 -12  22   39.78   15.87
  -2  12 -22   41.90    9.93
   2 -12  23   20.65    7.90
  -2  12 -23   -4.98    8.11
   2 -12  24   21.94    9.78
  -2  12 -24   35.38   10.27
   2 -11 -19   -7.88    6.73
   2 -11 -19    2.22    4.60
  -2  11  19   -3.66    3.62
   2 -11 -18   25.59    5.57
   2 -11 -18   35.72    8.36
  -2  11  18   33.53    7.97
   2 -11 -17   14.99    4.94
   2 -11 -17   38.28    7.62
  -2  11  17   28.46    4.37
   2 -11 -16   22.09    7.25
   2 -11 -16   24.22    4.54
  -2  11  16   24.36    4.11
   2 -11 -15   13.98    6.32
   2 -11 -15    7.76    6.87
  -2  11  15   21.15    3.79
   2 -11 -14   68.22    4.92
   2 -11 -14   80.52    8.86
  -2  11  14   66.19    4.94
   2 -11 -13   35.88    3.91
   2 -11 -13   50.28    7.64
  -2  11  13   61.16    6.54
   2 -11 -12   -2.26    5.26
   2 -11 -12    7.49    4.08
  -2  11  12    2.47    2.65
   2 -11 -11  269.72   14.01
   2 -11 -11  242.89    7.53
  -2  11  11  274.26   12.19
   2 -11 -10    8.87    8.34
   2 -11 -10    8.23    2.04
  -2  11  10    8.13    5.64
  -2  11  10    0.46    2.33
   2 -11  -9  199.81    7.88
   2 -11  -9  205.55   11.55
  -2  11   9  191.80    6.19
  -2  11   9  211.67   13.09
   2 -11  -8   18.08    4.91
   2 -11  -8   10.10    2.91
  -2  11   8    9.23    3.70
  -2  11   8    9.32    5.37
   2 -11  -7  131.24    9.07
   2 -11  -7  133.93    3.55
  -2  11   7  159.50    6.62
  -2  11   7  132.75    9.77
   2 -11  -6   59.23    6.76
   2 -11  -6   69.93    3.52
  -2  11   6   67.71    4.41
  -2  11   6   61.40    7.09
   2 -11  -5 1410.25   53.07
   2 -11  -5 1291.86   33.10
  -2  11   5 1455.00   70.30
  -2  11   5 1358.20   35.40
   2 -11  -4  117.18   12.82
  -2  11   4  141.74    8.30
  -2  11   4  127.76    4.47
   2 -11  -3  687.52   24.19
  -2  11   3  694.72   16.33
  -2  11   3  703.78   24.83
   2 -11  -2   26.01    4.38
  -2  11   2   15.78    1.29
  -2  11   2   17.01    4.41
   2 -11  -1  866.46   28.54
  -2  11   1  888.32   21.46
  -2  11   1  857.61   28.81
  -2  11   1  826.23   17.19
  -2  11   0  101.34    6.38
  -2  11   0   97.27    4.03
  -2  11   0  107.32    2.74
  -2  11  -1  763.06   31.78
  -2  11  -1  695.61   18.71
  -2  11  -1  743.44   19.19
  -2  11  -2   10.19    3.67
  -2  11  -2   16.32    1.93
  -2  11  -2   15.94    2.81
  -2  11  -3   85.22    3.20
  -2  11  -3   82.04    5.42
  -2  11  -3   90.11    3.51
  -2  11  -4   88.03    6.36
  -2  11  -4  107.19    5.56
  -2  11  -4  103.07    6.04
  -2  11  -5  559.46   15.35
  -2  11  -5  581.90   17.30
  -2  11  -6   33.33    6.32
  -2  11  -6   21.04    5.81
  -2  11  -7  439.77   14.14
  -2  11  -8   23.24    4.03
  -2  11  -9    2.26    3.64
  -2  11 -10  177.20    9.31
   2 -11  11   17.56    4.34
  -2  11 -11   16.58    8.23
   2 -11  12   34.36    5.25
  -2  11 -12   27.71    6.04
   2 -11  13    9.93    4.60
  -2  11 -13    5.45    5.32
   2 -11  14  102.67    7.94
  -2  11 -14   75.00    8.97
   2 -11  15  178.75   17.11
  -2  11 -15  140.82   11.59
   2 -11  16    2.39    4.95
  -2  11 -16   -1.34    5.51
   2 -11  17  248.08   15.21
  -2  11 -17  256.03   16.43
   2 -11  18   10.17    6.16
  -2  11 -18    8.13   11.31
   2 -11  19   46.20    8.79
  -2  11 -19   53.57    9.36
   2 -11  20   52.96    9.38
  -2  11 -20   58.25   10.11
   2 -11  21   -2.84    6.41
  -2  11 -21   -0.14    6.97
   2 -11  22    0.96    7.89
  -2  11 -22   28.69    8.28
  -2  11 -23   65.14   11.91
  -2  11 -24   23.26    9.81
   2 -10 -20    2.87    5.51
   2 -10 -20   -1.97    6.74
  -2  10  20    9.09    7.40
   2 -10 -19   24.41    6.50
   2 -10 -19   30.40    8.12
  -2  10  19   27.14    5.26
   2 -10 -18   32.94    8.05
   2 -10 -18   29.95    6.05
  -2  10  18   36.15    5.18
   2 -10 -17   10.10    4.31
   2 -10 -17    8.78    6.25
  -2  10  17   -1.34    6.65
   2 -10 -16  140.10   11.75
   2 -10 -16  124.91    7.98
  -2  10  16  141.29    7.72
   2 -10 -15   19.07    6.40
   2 -10 -15   15.90    6.52
  -2  10  15    9.65    6.28
   2 -10 -14   59.56    8.15
   2 -10 -14   65.53    4.96
  -2  10  14   65.10    5.08
   2 -10 -13   27.17   12.72
   2 -10 -13   49.98    4.39
  -2  10  13   63.54    7.12
   2 -10 -12  201.74   11.14
   2 -10 -12  206.26   19.82
  -2  10  12  198.74    7.84
   2 -10 -11   26.97    5.29
   2 -10 -11    8.83    2.66
  -2  10  11   18.27    5.05
   2 -10 -10  560.30   20.04
   2 -10 -10  601.16   24.07
  -2  10  10  611.84   26.57
  -2  10  10  567.68   16.90
   2 -10  -9    5.72    4.36
   2 -10  -9    3.89    1.94
  -2  10   9    1.12    2.40
  -2  10   9    1.95    5.14
   2 -10  -8   92.58    7.17
   2 -10  -8   79.09    3.14
  -2  10   8   80.70    6.12
  -2  10   8   84.60    7.80
   2 -10  -7    6.81    1.60
   2 -10  -7   -2.99    4.23
  -2  10   7    0.01    4.56
  -2  10   7    3.26    3.35
   2 -10  -6  614.29   16.56
   2 -10  -6  628.78   22.95
  -2  10   6  646.58   18.71
  -2  10   6  649.66   24.24
   2 -10  -5    3.45    1.28
   2 -10  -5    7.02    6.46
  -2  10   5    1.46    1.47
  -2  10   5   -2.60    4.09
   2 -10  -4  371.99    9.30
   2 -10  -4  389.03   14.49
  -2  10   4  398.21   14.77
  -2  10   4  397.47   10.09
   2 -10  -3   61.21    1.99
   2 -10  -3   84.46    9.14
  -2  10   3   72.34    3.28
  -2  10   3   82.32    5.66
   2 -10  -2  221.62    8.93
  -2  10   2  220.37    4.29
  -2  10   2  210.10    9.20
   2 -10  -1    2.52    3.10
  -2  10   1    0.50    1.91
  -2  10   1    1.54    3.05
  -2  10   0  954.16   21.80
  -2  10   0  984.93   29.99
  -2  10   0  943.50   20.71
  -2  10  -1    4.38    1.34
  -2  10  -1    2.14    2.77
  -2  10  -1    0.58    1.33
  -2  10  -2   48.40    2.30
  -2  10  -2   48.82    6.53
  -2  10  -2   39.17    2.27
  -2  10  -3  307.76   13.96
  -2  10  -3  305.13    7.28
  -2  10  -3  294.77    7.23
  -2  10  -4    1.59    4.40
  -2  10  -4    1.59    2.00
  -2  10  -4    2.34    1.91
  -2  10  -5  861.17   28.95
  -2  10  -5  861.67   24.38
  -2  10  -6   56.67    3.95
  -2  10  -6   63.68    4.18
  -2  10  -7   26.20    6.10
  -2  10  -8  192.23    8.37
  -2  10  -9   97.64    6.53
   2 -10  10   18.98    4.31
  -2  10 -10   26.14    4.77
   2 -10  11  108.22    7.26
  -2  10 -11  104.01    8.02
   2 -10  12   11.97    4.51
  -2  10 -12   12.42    8.61
   2 -10  13   51.81   10.60
  -2  10 -13   47.64    7.15
   2 -10  14    3.59    4.87
  -2  10 -14   12.75    5.59
   2 -10  15  156.32   11.11
  -2  10 -15  166.87   19.68
   2 -10  16  144.58   11.00
  -2  10 -16  143.52   12.05
   2 -10  17   37.27    7.56
  -2  10 -17   42.58    8.35
   2 -10  18  472.17   24.80
  -2  10 -18  473.95   40.25
   2 -10  19   30.59    7.88
  -2  10 -19   37.26    8.48
   2 -10  20  100.42   11.63
  -2  10 -20  118.86   12.41
   2 -10  21   25.02    7.91
  -2  10 -21   22.51    8.73
   2 -10  22   21.20    8.18
  -2  10 -22   16.43   14.35
   2 -10  23    1.57    6.95
  -2  10 -23   -2.06    7.27
   2 -10  24   21.28   10.23
  -2  10 -24   54.77   10.94
   2  -9 -21   69.52    9.93
   2  -9 -21   38.59    8.67
  -2   9  21   60.63    7.30
   2  -9 -20   36.17    8.22
   2  -9 -20   20.07    6.97
  -2   9  20   33.99    5.74
   2  -9 -19   15.41    7.10
   2  -9 -19   15.60    5.96
  -2   9  19   15.87    7.91
   2  -9 -18   33.72    7.45
   2  -9 -18   20.59    6.03
  -2   9  18   26.69    5.15
   2  -9 -17  121.77   10.94
   2  -9 -17  121.73    8.76
  -2   9  17  111.57    7.76
   2  -9 -16    2.00    5.44
   2  -9 -16    2.03    6.36
  -2   9  16    0.39    6.10
   2  -9 -15  204.36   12.49
   2  -9 -15  157.06   13.45
  -2   9  15  171.74    8.69
   2  -9 -14   55.39    7.46
   2  -9 -14   50.10    4.93
  -2   9  14   54.18    8.46
   2  -9 -13   34.78    6.67
   2  -9 -13   43.47    4.08
  -2   9  13   31.18    4.38
   2  -9 -12  118.40    8.94
   2  -9 -12  108.88    9.37
  -2   9  12  140.68   10.23
   2  -9 -11  119.26    9.74
   2  -9 -11  140.87    5.83
  -2   9  11  148.30    6.64
   2  -9 -10   63.07    7.47
   2  -9 -10   92.19    6.33
  -2   9  10   69.57    4.64
   2  -9  -9    4.01    2.15
   2  -9  -9   11.51    4.35
  -2   9   9    6.69    4.46
  -2   9   9   13.14    5.18
   2  -9  -8  234.57   11.10
   2  -9  -8  230.93    6.18
  -2   9   8  265.76   10.81
  -2   9   8  245.10   12.92
   2  -9  -7   81.72    6.34
   2  -9  -7   73.65    3.00
  -2   9   7   69.91    6.92
  -2   9   7   81.87    5.63
   2  -9  -6   18.89    1.84
   2  -9  -6   23.88    4.42
  -2   9   6   29.59    7.88
  -2   9   6   25.42    3.59
   2  -9  -5  575.45   15.11
   2  -9  -5  614.76   20.19
  -2   9   5  599.93   13.12
  -2   9   5  609.61   20.76
   2  -9  -4  167.29    3.70
   2  -9  -4  172.87    7.83
  -2   9   4  165.28    5.62
  -2   9   4  173.54    7.94
   2  -9  -3   10.51    1.29
   2  -9  -3    4.58    3.40
  -2   9   3    8.77    2.26
  -2   9   3   10.48    5.89
   2  -9  -2  824.70   33.20
  -2   9   2  883.20   18.82
  -2   9   2  863.62   26.39
   2  -9  -1    4.94    2.80
  -2   9   1    3.98    2.01
  -2   9   1   -0.17    2.75
   2  -9   0   43.17    3.73
  -2   9   0   35.50    3.81
  -2   9   0   42.00    1.90
  -2   9  -1  588.71   12.22
  -2   9  -1  614.22   13.04
  -2   9  -1  612.12   16.80
  -2   9  -2  136.12    3.84
  -2   9  -2  130.89    5.70
  -2   9  -2  150.01    5.56
  -2   9  -3   38.68    4.00
  -2   9  -3   31.11    3.21
  -2   9  -3   32.74    2.42
  -2   9  -4  823.99   21.85
  -2   9  -4  796.18   20.06
  -2   9  -5   44.21    3.32
  -2   9  -5   49.58    3.32
  -2   9  -6  292.47   13.24
  -2   9  -7   85.81    5.00
  -2   9  -8  209.51   13.64
   2  -9   9  243.06    9.56
  -2   9  -9  230.01   10.11
   2  -9  10   20.66    4.34
  -2   9 -10   21.06    7.87
   2  -9  11  548.60   28.05
  -2   9 -11  497.07   20.17
   2  -9  12   45.47    5.71
  -2   9 -12   28.95    6.13
   2  -9  13  163.93   10.18
  -2   9 -13  167.79   11.54
   2  -9  14   39.79    6.32
  -2   9 -14   33.61    7.24
   2  -9  15   -1.58    5.11
  -2   9 -15   -7.58    5.97
   2  -9  16  118.09   10.00
  -2   9 -16  112.05   11.16
   2  -9  17  140.00   11.65
  -2   9 -17  160.90   12.83
   2  -9  18   20.36    7.15
  -2   9 -18   27.94    7.83
   2  -9  19  322.47   19.59
  -2   9 -19  346.02   21.02
   2  -9  20    8.02    6.68
  -2   9 -20   13.98    7.50
   2  -9  21   96.84   11.49
  -2   9 -21  104.10   12.64
   2  -9  22    6.02    7.11
  -2   9 -22    8.48   13.06
   2  -9  23   68.48   11.19
  -2   9 -23   65.03   11.89
   2  -9  24   20.36    9.36
  -2   9 -24   26.56    9.89
   2  -9  25    7.74    8.45
  -2   9 -25   15.56    9.56
   2  -8 -22  106.86   11.48
   2  -8 -22  101.39   12.55
  -2   8  22  131.78    9.92
   2  -8 -21   10.51    5.82
   2  -8 -21    5.57    6.62
  -2   8  21   -0.51    4.97
   2  -8 -20   39.77   11.78
   2  -8 -20   33.09    8.16
  -2   8  20   31.49   10.21
   2  -8 -19   79.24    9.91
   2  -8 -19   75.71   14.28
  -2   8  19   89.33    7.77
   2  -8 -18   15.38    9.00
   2  -8 -18    8.53    6.49
  -2   8  18   18.51    4.76
   2  -8 -17   30.89   10.09
   2  -8 -17   44.00    7.39
  -2   8  17   35.72    5.52
   2  -8 -16  102.16    9.23
   2  -8 -16   89.48    7.40
  -2   8  16   88.52    6.87
   2  -8 -15   67.73    8.68
   2  -8 -15   89.35    6.74
  -2   8  15  106.71   10.69
   2  -8 -14   21.64    5.30
   2  -8 -14   10.17    3.77
  -2   8  14    6.72    3.90
   2  -8 -13  214.04    9.03
   2  -8 -13  223.44   12.75
  -2   8  13  236.11   15.44
   2  -8 -12   25.80    6.24
   2  -8 -12   31.36    5.98
  -2   8  12   32.44    4.38
   2  -8 -11   88.45    4.93
   2  -8 -11   87.29    7.93
  -2   8  11  108.95    5.64
   2  -8 -10    3.10    4.16
   2  -8 -10    0.83    2.39
  -2   8  10    4.88    4.83
   2  -8  -9  792.56   28.59
   2  -8  -9  758.55   20.82
  -2   8   9  799.79   22.91
   2  -8  -8   63.91    6.43
   2  -8  -8   82.76    3.36
  -2   8   8   69.49    3.99
  -2   8   8   72.32    7.27
   2  -8  -7  485.46   17.00
   2  -8  -7  464.50   14.71
  -2   8   7  475.16   17.58
  -2   8   7  499.94   12.31
   2  -8  -6  364.30    8.21
   2  -8  -6  402.03   20.38
  -2   8   6  397.74    9.17
  -2   8   6  387.98   14.34
   2  -8  -5   -3.49    3.14
   2  -8  -5    1.92    1.37
  -2   8   5   -0.92    3.25
  -2   8   5    2.19    1.50
   2  -8  -4  427.45   20.01
   2  -8  -4  443.78    8.82
  -2   8   4  454.03   20.88
  -2   8   4  454.66   11.91
   2  -8  -3  406.82   10.29
   2  -8  -3  414.39   12.82
  -2   8   3  409.58   10.42
  -2   8   3  393.38   12.69
   2  -8  -2   29.17    3.53
   2  -8  -2   36.58    1.77
  -2   8   2   30.21    1.74
  -2   8   2   27.67    3.62
   2  -8  -1  552.74   14.99
  -2   8   1  562.84   15.48
  -2   8   1  552.08   11.21
   2  -8   0  272.98    8.13
  -2   8   0  253.07    8.02
  -2   8   0  272.43    7.92
  -2   8  -1  433.08    8.96
  -2   8  -1  419.14   11.40
  -2   8  -2 1276.85   38.42
  -2   8  -2 1344.86   35.16
  -2   8  -2 1314.72   37.53
  -2   8  -3  178.75    5.13
  -2   8  -3  202.04    5.46
  -2   8  -3  193.63    5.90
  -2   8  -4 1246.44   41.04
  -2   8  -4 1270.00   42.10
  -2   8  -5   34.01    3.09
  -2   8  -6  654.55   18.05
  -2   8  -7  153.43    6.60
   2  -8   8  134.17    5.95
  -2   8  -8   98.20    6.16
   2  -8   9  340.03   11.72
  -2   8  -9  302.78   11.96
   2  -8  10  178.13   13.62
  -2   8 -10  171.32    9.07
   2  -8  11   68.71    6.49
  -2   8 -11   78.03    6.93
   2  -8  12  967.25   35.21
  -2   8 -12  924.12   36.71
   2  -8  13   39.55    6.12
  -2   8 -13   42.19   11.85
   2  -8  14   35.34    6.24
  -2   8 -14   31.24    7.05
   2  -8  15  160.06   10.86
  -2   8 -15  145.67   12.16
   2  -8  16    5.75    5.39
  -2   8 -16    2.98   10.17
   2  -8  17  148.63   11.56
  -2   8 -17  148.04   12.57
   2  -8  18   78.25    8.99
  -2   8 -18   54.93    9.97
   2  -8  19   32.62    7.80
  -2   8 -19   23.28   13.88
   2  -8  20   73.90   10.20
  -2   8 -20   83.69   11.32
   2  -8  21   42.43    8.36
  -2   8 -21   20.81    9.11
   2  -8  22  165.66   14.18
  -2   8 -22  102.53   25.64
   2  -8  23   15.07    8.39
  -2   8 -23   25.71    9.17
   2  -8  24   33.26    9.82
  -2   8 -24   29.75   10.38
   2  -8  25   33.25    9.70
  -2   8 -25   14.91   10.56
   2  -7 -22    3.61    6.68
   2  -7 -22    4.88    7.35
  -2   7  22   32.54    5.95
   2  -7 -21   83.74    9.69
   2  -7 -21   86.72   16.77
  -2   7  21   74.82    8.47
   2  -7 -20   24.33    6.74
   2  -7 -20   27.99   12.20
  -2   7  20   18.78    5.87
   2  -7 -19   12.92    6.05
   2  -7 -19   20.92    6.66
  -2   7  19   15.94    8.83
   2  -7 -18  136.04    9.82
   2  -7 -18  107.14   10.66
  -2   7  18  140.22    8.98
   2  -7 -17   17.32    6.18
   2  -7 -17   15.31    5.43
  -2   7  17   18.37    4.88
   2  -7 -16   79.48    7.43
   2  -7 -16   92.88    8.70
  -2   7  16   71.89   11.36
   2  -7 -15   26.61    6.15
   2  -7 -15   23.44    4.79
  -2   7  15   18.76    4.90
   2  -7 -14  317.25   15.19
   2  -7 -14  286.59   12.54
  -2   7  14  355.95   20.31
   2  -7 -13   15.62    6.21
   2  -7 -13    9.78    5.33
  -2   7  13   13.06    4.22
   2  -7 -12    9.99    5.24
   2  -7 -12   21.08    3.48
  -2   7  12    9.74    6.81
   2  -7 -11  393.66   12.51
   2  -7 -11  394.09   25.31
  -2   7  11  422.60   14.20
   2  -7 -10   17.38    4.74
   2  -7 -10   18.86    7.82
  -2   7  10    7.88    3.33
   2  -7  -9   49.93    3.45
   2  -7  -9   42.69    5.42
  -2   7   9   50.63    3.85
   2  -7  -8  692.62   23.01
   2  -7  -8  659.62   17.10
  -2   7   8  696.10   24.33
  -2   7   8  677.62   25.01
   2  -7  -7   93.45    5.48
   2  -7  -7   90.94    5.92
  -2   7   7  103.22    6.37
  -2   7   7   98.75    6.72
   2  -7  -6   -1.01    2.82
   2  -7  -6    4.70    3.04
  -2   7   6    4.89    1.80
  -2   7   6    0.99    3.32
   2  -7  -5 2127.39   75.68
   2  -7  -5 2022.06   63.03
  -2   7   5 2091.47   64.68
  -2   7   5 2048.01   88.31
   2  -7  -4  513.28   13.77
   2  -7  -4  542.64   15.12
  -2   7   4  516.68   15.95
  -2   7   4  523.91   10.95
   2  -7  -3 1721.02   48.36
   2  -7  -3 1771.29   57.77
  -2   7   3 1771.97   49.36
  -2   7   3 1747.95   58.19
   2  -7  -2   11.90    1.56
   2  -7  -2   11.43    2.82
  -2   7   2   10.89    1.57
  -2   7   2   10.39    2.85
   2  -7  -1  462.46   12.43
   2  -7  -1  471.36    9.63
  -2   7   1  482.02    9.53
  -2   7   1  459.60   12.46
   2  -7   0   14.63    2.52
  -2   7   0   13.48    2.52
  -2   7   0    9.68    1.67
  -2   7  -1 1395.70   39.35
  -2   7  -1 1419.56   37.21
  -2   7  -2  336.82    7.69
  -2   7  -2  351.30   12.56
  -2   7  -2  374.10    8.44
  -2   7  -3 1709.85   49.89
  -2   7  -3 1741.04   50.38
  -2   7  -4  274.34    6.76
  -2   7  -4  272.41    7.30
  -2   7  -5 2145.01   72.15
  -2   7  -6  255.03    8.32
  -2   7  -7 1597.79   62.94
   2  -7   8  136.51    6.20
  -2   7  -8  119.31    6.43
   2  -7   9   14.61    6.27
  -2   7  -9   17.69    6.83
   2  -7  10  677.28   22.75
  -2   7 -10  662.16   23.17
   2  -7  11  111.43    7.83
  -2   7 -11  147.17   13.89
   2  -7  12   20.66    5.03
  -2   7 -12   15.59    5.52
   2  -7  13  559.75   22.23
  -2   7 -13  510.06   34.79
   2  -7  14   23.90    5.75
  -2   7 -14   15.28    6.53
   2  -7  15   -6.16    8.59
  -2   7 -15    8.11    5.81
   2  -7  16  171.05   19.45
  -2   7 -16  170.09   21.42
   2  -7  17   49.62   12.46
  -2   7 -17   30.26    8.24
   2  -7  18   85.74   10.06
  -2   7 -18  107.07   11.23
   2  -7  19    0.96    5.95
  -2   7 -19    1.10   10.30
   2  -7  20  173.64   13.73
  -2   7 -20  132.39   14.70
   2  -7  21   49.95    9.36
  -2   7 -21   62.30   10.34
   2  -7  22   31.19    8.86
  -2   7 -22   39.80   15.76
   2  -7  23  128.99   14.31
  -2   7 -23  151.02   15.35
   2  -7  24  -13.20    7.96
  -2   7 -24   -3.06    8.58
   2  -7  25  128.93   14.97
   2  -6 -23   50.14    8.78
   2  -6 -23   49.26    9.00
  -2   6  23   37.20    7.68
   2  -6 -22   64.37    9.63
   2  -6 -22   47.32   15.36
  -2   6  22   69.65    8.60
   2  -6 -21    6.93    6.24
   2  -6 -21    3.05    9.93
  -2   6  21    6.46    5.42
   2  -6 -20   93.99    9.46
   2  -6 -20   72.57   14.72
  -2   6  20   65.80    7.97
   2  -6 -19   58.13    7.58
   2  -6 -19   41.87   11.88
  -2   6  19   32.57    6.71
   2  -6 -18   94.20    9.26
   2  -6 -18   91.68    8.73
  -2   6  18   95.83    8.13
   2  -6 -17  -16.55    8.53
   2  -6 -17    4.99    4.56
  -2   6  17   -9.07    7.39
   2  -6 -16  245.37   19.31
   2  -6 -16  247.53   22.19
  -2   6  16  247.21   12.27
   2  -6 -15   33.42    8.91
   2  -6 -15   40.92   10.84
  -2   6  15   30.56    8.98
   2  -6 -14  157.18   15.86
   2  -6 -14  126.15   12.85
  -2   6  14  135.49    8.64
   2  -6 -13   20.29    4.19
   2  -6 -13   22.74    9.45
  -2   6  13   24.94    7.82
   2  -6 -12  516.42   17.28
   2  -6 -12  561.24   31.61
  -2   6  12  542.05   19.19
   2  -6 -11  165.24    6.94
   2  -6 -11  170.92   15.16
  -2   6  11  165.61    7.94
   2  -6 -10 1333.13   48.26
   2  -6 -10 1289.06   50.49
  -2   6  10 1374.18   45.20
   2  -6  -9    6.70    3.89
   2  -6  -9    4.91    2.60
  -2   6   9   16.66    2.99
   2  -6  -8  238.90    7.02
   2  -6  -8  254.76    9.95
  -2   6   8  248.48    7.73
   2  -6  -7  469.53   15.41
   2  -6  -7  504.57   16.07
  -2   6   7  500.93   12.28
  -2   6   7  496.05   17.08
   2  -6  -6  861.16   25.90
   2  -6  -6  868.09   26.20
  -2   6   6  886.86   21.97
  -2   6   6  895.32   27.77
   2  -6  -5  302.01    6.87
   2  -6  -5  312.80    9.87
  -2   6   5  301.77    7.05
  -2   6   5  303.51   10.34
   2  -6  -4 3599.14  155.70
   2  -6  -4 3612.09  143.80
  -2   6   4 3588.84  155.69
  -2   6   4 3734.53  157.59
   2  -6  -3  435.03    9.03
   2  -6  -3  445.06   17.47
  -2   6   3  433.19   12.06
  -2   6   3  457.76   17.86
   2  -6  -2 1117.86   30.51
   2  -6  -2 1115.52   26.66
  -2   6   2 1133.85   38.75
  -2   6   2 1110.16   26.24
   2  -6  -1  178.47    4.30
   2  -6  -1  182.40    8.92
  -2   6   1  172.40    9.11
  -2   6   1  172.87    4.25
   2  -6   0 1192.06   31.54
  -2   6   0 1216.20   30.13
  -2   6   0 1229.13   32.47
  -2   6  -1  546.79   12.21
  -2   6  -1  551.12   12.77
  -2   6  -2  970.63   23.92
  -2   6  -2  924.09   22.33
  -2   6  -3  166.83    8.03
  -2   6  -3  178.73    4.67
  -2   6  -4  904.49   23.29
  -2   6  -5   25.44    3.07
  -2   6  -6 2810.76  121.53
   2  -6   7   43.39    4.08
  -2   6  -7   41.17    4.11
   2  -6   8  643.25   19.13
  -2   6  -8  602.33   19.32
   2  -6   9  875.58   27.78
  -2   6  -9  837.75   37.11
   2  -6  10    3.28    3.46
  -2   6 -10    1.34    3.68
   2  -6  11  396.49   15.26
  -2   6 -11  355.86   23.17
   2  -6  12  111.86    7.77
  -2   6 -12   96.19    8.56
   2  -6  13   29.90   10.16
  -2   6 -13   36.44    6.59
   2  -6  14  289.61   23.30
  -2   6 -14  270.90   15.66
   2  -6  15   10.70    9.69
  -2   6 -15    7.19    6.18
   2  -6  16  113.57   16.83
  -2   6 -16  113.00   18.46
   2  -6  17   -2.34   10.73
  -2   6 -17   16.71    6.68
   2  -6  18  217.36   23.59
  -2   6 -18  243.91   16.81
   2  -6  19   35.47   11.93
  -2   6 -19    8.97   13.06
   2  -6  20  107.30   11.47
  -2   6 -20  109.15   12.63
   2  -6  21   91.03   11.13
  -2   6 -21   98.49   12.64
   2  -6  22   89.92   10.80
  -2   6 -22   49.20   19.34
   2  -6  23    3.32    6.77
  -2   6 -23   -0.51    7.21
   2  -6  24  222.69   18.94
  -2   6 -24  230.98   19.98
   2  -6  25    0.34    7.84
  -2   6 -25   -7.01    5.15
   2  -5 -24   21.61   13.94
   2  -5 -24   33.41    8.49
  -2   5  24   32.39    7.51
   2  -5 -23   56.93   15.02
   2  -5 -23   52.01    8.98
  -2   5  23   42.06   13.71
   2  -5 -22   -6.80    9.83
   2  -5 -22   -7.14    5.67
  -2   5  22    7.36    5.30
   2  -5 -21  117.98   11.46
   2  -5 -21  139.13   11.69
  -2   5  21  121.12   10.34
   2  -5 -20    2.31    5.86
   2  -5 -20   12.40    6.12
  -2   5  20   11.08    5.46
   2  -5 -19  127.91   10.63
   2  -5 -19  143.15   11.30
  -2   5  19  140.24   10.15
   2  -5 -18   -6.91    5.03
   2  -5 -18    2.28    4.85
  -2   5  18   -3.51    7.65
   2  -5 -17  525.74   22.66
   2  -5 -17  517.09   23.20
  -2   5  17  529.38   22.69
   2  -5 -16   64.32    8.06
   2  -5 -16   90.60    7.43
  -2   5  16   88.15    7.48
   2  -5 -15  457.23   21.02
   2  -5 -15  506.69   20.06
  -2   5  15  507.37   20.37
   2  -5 -14   14.70    4.38
   2  -5 -14    6.84    5.03
  -2   5  14   15.28    4.79
   2  -5 -13  231.60   11.92
   2  -5 -13  225.93   10.11
  -2   5  13  243.84   11.05
   2  -5 -12   -0.26    3.15
   2  -5 -12    0.86    4.06
  -2   5  12    0.63    3.58
   2  -5 -11 1062.62   44.50
   2  -5 -11 1079.39   39.13
  -2   5  11 1136.49   37.46
   2  -5 -10   51.31    3.95
   2  -5 -10   53.57    5.33
  -2   5  10   40.04    4.33
   2  -5  -9  640.22   20.92
   2  -5  -9  649.62   17.94
  -2   5   9  670.04   25.32
   2  -5  -8  100.21    4.35
   2  -5  -8  102.16    6.00
  -2   5   8  106.12    4.73
   2  -5  -7  483.39   14.89
   2  -5  -7  486.88   12.03
  -2   5   7  477.16   17.15
   2  -5  -6   65.39    7.72
   2  -5  -6   75.17    5.29
  -2   5   6   64.80    3.30
   2  -5  -5  897.32   21.89
   2  -5  -5  911.02   25.83
  -2   5   5  944.45   22.74
  -2   5   5  921.22   27.19
   2  -5  -4   21.08    2.03
   2  -5  -4   20.28    5.06
  -2   5   4   19.58    3.20
  -2   5   4   23.11    2.14
   2  -5  -3  357.30    7.80
   2  -5  -3  355.89    9.69
  -2   5   3  360.90    8.01
  -2   5   3  350.65   10.07
   2  -5  -2  273.32    7.58
   2  -5  -2  253.17    5.91
  -2   5   2  258.49    7.64
  -2   5   2  264.93    5.95
   2  -5  -1  264.60   10.99
   2  -5  -1  278.49    6.36
  -2   5   1  277.83    7.61
  -2   5   1  281.59    9.28
   2  -5   0   16.23    2.23
   2  -5   0   16.25    2.09
  -2   5   0   15.33    2.07
  -2   5   0   15.80    2.35
   2  -5   1  752.21   17.10
  -2   5  -1  758.98   17.22
  -2   5  -1  797.14   18.68
  -2   5  -2   21.22    2.04
  -2   5  -2   25.32    2.65
  -2   5  -3  527.57   13.02
  -2   5  -3  521.50   10.73
  -2   5  -4  931.37   24.67
  -2   5  -5  450.95   12.34
  -2   5  -6    0.91    2.62
   2  -5   7 3150.13  126.10
  -2   5  -7 2919.02  119.46
   2  -5   8   30.61    6.81
  -2   5  -8   29.79    4.17
   2  -5   9  806.79   24.94
  -2   5  -9  755.50   24.72
   2  -5  10   49.15    5.05
  -2   5 -10   54.92    5.43
   2  -5  11  334.11   13.43
  -2   5 -11  325.81   21.46
   2  -5  12   16.34    8.35
  -2   5 -12   16.47    5.18
   2  -5  13  557.81   33.87
  -2   5 -13  533.21   22.86
   2  -5  14   79.32    8.22
  -2   5 -14   73.00    8.86
   2  -5  15  145.56   11.30
  -2   5 -15  154.47   11.98
   2  -5  16    4.48    5.59
  -2   5 -16    4.10   10.28
   2  -5  17  301.46   26.75
  -2   5 -17  293.46   18.15
   2  -5  18   42.08   13.16
  -2   5 -18   37.17    8.42
   2  -5  19  574.70   41.27
  -2   5 -19  546.99   29.20
   2  -5  20    3.47    5.85
  -2   5 -20   -0.23    6.62
   2  -5  21   73.79   10.81
  -2   5 -21  104.06   11.92
   2  -5  22   33.63    8.76
  -2   5 -22   43.49    9.32
   2  -5  23   98.24   12.23
  -2   5 -23  101.13   13.07
  -2   5 -23   98.97    8.31
   2  -5  24    4.07    7.23
  -2   5 -24    0.61    7.78
   2  -5  25  145.48   14.87
  -2   5 -25  142.31   27.56
   2  -4 -24   54.80    9.38
   2  -4 -24   43.24    9.22
  -2   4  24   38.09   14.27
   2  -4 -23   13.94    6.06
   2  -4 -23   -6.42    6.28
  -2   4  23    1.32    5.92
   2  -4 -22  197.65   14.07
   2  -4 -22  187.03   13.91
  -2   4  22  176.00   13.12
   2  -4 -21   -9.89    5.68
   2  -4 -21    9.22    9.69
  -2   4  21   -0.71    9.37
   2  -4 -20  142.00   17.68
  -2   4  20  115.03   10.18
   2  -4 -19   37.67    7.52
   2  -4 -19   48.04   12.34
  -2   4  19   56.52    7.17
   2  -4 -18  169.33   18.49
   2  -4 -18  175.90   11.97
  -2   4  18  186.49   11.75
   2  -4 -17    3.89    5.08
   2  -4 -17    1.47    4.96
  -2   4  17    7.42    4.80
   2  -4 -16  474.77   20.45
   2  -4 -16  479.53   20.94
  -2   4  16  486.86   31.84
   2  -4 -15    0.96    4.44
   2  -4 -15   -0.10    4.25
  -2   4  15   -3.71    4.44
   2  -4 -14  146.12   10.00
   2  -4 -14  169.24   14.73
  -2   4  14  190.72   15.77
   2  -4 -13  171.57   14.17
   2  -4 -13  179.08    9.96
  -2   4  13  172.74    9.55
   2  -4 -12  161.10    7.73
   2  -4 -12  143.87    8.84
  -2   4  12  147.02    8.40
   2  -4 -11  113.41    7.19
   2  -4 -11   96.88    5.99
  -2   4  11  106.20    6.60
   2  -4 -10  329.36   12.15
   2  -4 -10  325.68   10.52
  -2   4  10  331.36   11.21
   2  -4  -9  265.45    8.62
   2  -4  -9  272.52   10.31
  -2   4   9  296.68    9.27
   2  -4  -8   19.49    3.70
   2  -4  -8   21.54    2.88
  -2   4   8   17.53    3.06
   2  -4  -7 1789.73   60.22
   2  -4  -7 1770.00   55.48
  -2   4   7 1782.18   55.84
   2  -4  -6   66.24    3.43
   2  -4  -6   75.81    4.58
  -2   4   6   66.71    3.43
   2  -4  -5  204.99    5.72
   2  -4  -5  197.48    7.01
  -2   4   5  203.33    5.91
   2  -4  -4  482.03   13.37
   2  -4  -4  483.29   11.34
  -2   4   4  497.52   11.72
  -2   4   4  510.78   14.70
   2  -4  -3  708.65   16.40
   2  -4  -3  693.83   18.17
  -2   4   3  714.28   16.65
  -2   4   3  714.53   18.70
   2  -4  -2   10.75    2.01
   2  -4  -2   14.19    2.42
  -2   4   2    9.78    2.60
  -2   4   2    7.63    3.47
   2  -4  -1 1096.10   26.89
   2  -4  -1 1073.18   26.68
  -2   4   1 1080.58   26.49
  -2   4   1 1074.84   27.05
   2  -4   0  518.70   16.75
   2  -4   0  540.40   11.30
  -2   4   0  540.78   15.52
  -2   4   0  531.52   12.28
   2  -4   1  214.21    4.59
  -2   4  -1  219.56    7.09
  -2   4  -1  230.79    9.75
  -2   4  -2 2711.80   95.93
  -2   4  -2 2616.64   82.06
  -2   4  -3   26.38    2.98
  -2   4  -4  573.48   15.19
  -2   4  -5   29.83    3.48
   2  -4   6 1082.33   31.17
  -2   4  -6 1019.79   30.06
   2  -4   7   30.54    3.82
  -2   4  -7   33.30    3.92
   2  -4   8 2066.12   73.08
  -2   4  -8 1967.93   71.52
   2  -4   9   10.82    3.71
  -2   4  -9   13.21    3.79
   2  -4  10  842.15   27.44
  -2   4 -10  826.42   27.94
   2  -4  11   45.81    8.65
  -2   4 -11   29.02    9.06
   2  -4  12 1420.78   68.62
  -2   4 -12 1301.33   51.17
   2  -4  13   48.69    6.54
  -2   4 -13   42.39    6.89
   2  -4  14  483.40   21.35
  -2   4 -14  503.67   23.23
   2  -4  15  218.18   13.40
  -2   4 -15  213.63   14.07
   2  -4  16   37.54    7.06
  -2   4 -16   28.97    7.56
   2  -4  17    9.44    6.00
  -2   4 -17    5.94    6.39
   2  -4  18  429.50   34.24
  -2   4 -18  417.51   23.77
   2  -4  19    7.54    9.33
  -2   4 -19   -3.09    6.08
   2  -4  20  161.99   12.50
  -2   4 -20  130.22   13.88
   2  -4  21   29.60    7.66
  -2   4 -21    3.57   14.40
  -2   4 -21   28.10    5.22
   2  -4  22   84.38   10.59
  -2   4 -22   73.29   11.41
   2  -4  23   40.38    9.05
  -2   4 -23   34.09    5.92
  -2   4 -23   48.95    9.73
   2  -4  24   45.10    9.66
  -2   4 -24   45.20   10.76
  -2   4 -24   43.99    6.43
   2  -4  25   50.33   10.99
  -2   4 -25   60.90   11.81
   2  -3 -25    7.98    7.91
   2  -3 -25   24.43    7.64
  -2   3  25   16.88   12.15
   2  -3 -24   41.85   13.88
   2  -3 -24   24.41   13.83
  -2   3  24   27.15    8.10
   2  -3 -23   59.33    9.11
   2  -3 -23   49.24   15.37
  -2   3  23   53.23    8.92
   2  -3 -22   -4.04    5.92
   2  -3 -22   -0.23    5.79
  -2   3  22   -2.61    9.38
   2  -3 -21  141.16   12.27
   2  -3 -21  151.44   12.09
  -2   3  21  151.52   11.84
   2  -3 -20   42.27    7.78
   2  -3 -20   44.01    7.36
  -2   3  20   47.88    7.49
   2  -3 -19   34.58    7.17
   2  -3 -19   33.85   11.49
  -2   3  19   48.55   11.87
   2  -3 -18  159.33   10.70
   2  -3 -18  134.76   10.62
  -2   3  18  158.95   11.17
   2  -3 -17   25.09    5.83
   2  -3 -17   17.50    5.77
  -2   3  17   19.76    5.84
   2  -3 -16  129.33    9.67
   2  -3 -16  130.25    9.91
  -2   3  16  150.11   10.22
   2  -3 -15   60.24    6.75
   2  -3 -15   63.28    6.85
  -2   3  15   66.88    7.36
   2  -3 -14  202.79   11.09
   2  -3 -14  215.93   11.13
  -2   3  14  222.76   11.58
   2  -3 -13    9.76    4.13
   2  -3 -13    2.92    4.35
  -2   3  13    6.06    4.42
   2  -3 -12  214.00   10.65
   2  -3 -12  231.14   10.28
  -2   3  12  254.79   10.86
   2  -3 -11  472.30   23.72
   2  -3 -11  440.61   21.84
  -2   3  11  440.19   23.11
   2  -3 -10   30.14    7.46
   2  -3 -10   20.56    3.77
  -2   3  10   33.92    4.01
   2  -3  -9  103.15   10.35
   2  -3  -9  104.89    5.25
  -2   3   9  102.50    5.56
   2  -3  -8 2138.50   85.41
   2  -3  -8 2199.03   94.33
  -2   3   8 2159.45   75.60
   2  -3  -7   86.77    8.78
   2  -3  -7  111.39    4.57
  -2   3   7   90.60    4.66
   2  -3  -6 1461.72   45.83
   2  -3  -6 1483.30   43.87
  -2   3   6 1555.80   45.60
   2  -3  -5  687.22   19.42
   2  -3  -5  718.42   17.87
  -2   3   5  720.83   24.17
   2  -3  -4   19.96    4.57
   2  -3  -4   17.89    3.26
  -2   3   4   30.58    2.81
   2  -3  -3  807.42   21.04
   2  -3  -3  813.32   19.64
  -2   3   3  820.49   19.93
   2  -3  -2 1171.13   29.86
   2  -3  -2 1142.50   28.95
  -2   3   2 1166.99   30.79
  -2   3   2 1139.47   35.82
   2  -3  -1    6.20    3.74
   2  -3  -1    6.37    1.70
  -2   3   1    6.94    1.86
  -2   3   1    7.52    2.12
   2  -3   0  332.31    8.08
   2  -3   0  324.99    5.92
  -2   3   0  327.08    8.12
  -2   3   0  324.84    6.18
   2  -3   1  945.02   20.80
  -2   3  -1  937.47   20.74
  -2   3  -1  950.63   24.32
  -2   3  -2    4.61    1.41
  -2   3  -2   -0.18    2.36
  -2   3  -4    5.47    2.72
  -2   3  -5 1930.48   63.91
   2  -3   6  203.16    7.55
  -2   3  -6  192.68    7.58
   2  -3   7 2381.16   85.83
  -2   3  -7 2300.62   84.51
   2  -3   8    3.58    3.20
  -2   3  -8    2.46    3.27
   2  -3   9  468.95   15.43
  -2   3  -9  474.02   15.96
   2  -3  10  166.25    8.20
  -2   3 -10  170.60    8.60
   2  -3  11  568.06   28.35
  -2   3 -11  553.82   29.33
   2  -3  12    9.05    7.57
  -2   3 -12    4.28    4.52
   2  -3  13 1026.87   39.09
  -2   3 -13  994.17   55.67
   2  -3  14   57.26    7.60
  -2   3 -14   72.24    8.24
   2  -3  15   62.98    7.88
  -2   3 -15   67.98    8.56
   2  -3  16  553.41   25.41
  -2   3 -16  554.20   26.55
   2  -3  17    8.32    5.69
  -2   3 -17    0.12    3.80
  -2   3 -17    7.02    5.94
   2  -3  18  177.96   19.03
  -2   3 -18  139.16    8.04
  -2   3 -18  147.47   20.58
   2  -3  19   32.14   12.25
  -2   3 -19   40.66    5.19
  -2   3 -19   31.37    8.35
   2  -3  20   48.73    8.66
  -2   3 -20   75.20    9.96
   2  -3  21   27.43    7.60
  -2   3 -21   23.79    4.98
  -2   3 -21   29.40   13.81
   2  -3  22   87.10   10.09
  -2   3 -22   76.53    6.86
  -2   3 -22   54.83   11.09
   2  -3  23   51.05    8.99
  -2   3 -23   59.35    9.86
  -2   3 -23   30.64    6.12
   2  -3  24   53.99    9.44
  -2   3 -24   18.75   17.12
  -2   3 -24   37.41    6.43
   2  -3  25   31.47    9.11
  -2   3 -25   31.71   10.24
  -2   3 -25   25.74    6.33
   2  -2 -25   77.30   19.70
   2  -2 -25   95.72   11.48
  -2   2  25   83.44   18.96
   2  -2 -24   -9.52    6.00
   2  -2 -24    1.80    6.46
  -2   2  24   10.41    6.14
   2  -2 -23   73.45   11.00
   2  -2 -23   91.57   10.24
  -2   2  23  101.10   10.36
   2  -2 -22   27.52   11.69
   2  -2 -22    7.75    7.60
  -2   2  22   39.06    7.35
   2  -2 -21   22.54    6.40
   2  -2 -21   17.52    7.06
  -2   2  21   18.54    6.76
   2  -2 -20  150.97   11.01
   2  -2 -20  131.84   11.44
  -2   2  20  137.42   11.27
   2  -2 -19   46.89    7.74
   2  -2 -19   67.76    8.15
  -2   2  19   85.24    8.47
   2  -2 -18   35.85   10.67
   2  -2 -18   30.43    6.53
  -2   2  18   29.85    6.71
   2  -2 -17   70.72   13.52
   2  -2 -17   81.87    8.36
  -2   2  17  100.56   14.66
   2  -2 -16  146.69   10.37
   2  -2 -16  131.10   16.26
  -2   2  16  154.46   11.15
   2  -2 -15   87.32   13.21
   2  -2 -15   94.24    8.30
  -2   2  15   88.43   14.06
   2  -2 -14   39.48    5.85
   2  -2 -14   32.09    9.49
  -2   2  14   34.51    6.15
   2  -2 -13  169.03    9.40
   2  -2 -13  171.79   10.05
  -2   2  13  180.40   10.14
   2  -2 -12  396.37   14.50
  -2   2  12  405.39   15.73
   2  -2 -11   73.59    5.46
  -2   2  11   67.77    9.43
   2  -2 -10 1517.66   52.30
  -2   2  10 1582.83   53.55
   2  -2  -9    3.33    5.05
  -2   2   9    4.64    3.21
   2  -2  -8  418.90   12.67
  -2   2   8  446.93   12.92
   2  -2  -7 1154.49   33.37
  -2   2   7 1168.96   33.80
   2  -2  -6  220.30   11.54
  -2   2   6  234.69    7.75
   2  -2  -5   25.36    5.23
  -2   2   5   27.90    5.55
   2  -2  -4 2921.11  108.96
  -2   2   4 3038.23  112.37
   2  -2  -3  783.39   25.84
  -2   2   3  796.55   19.76
   2  -2  -2 2715.28   95.05
   2  -2  -2 2816.75   95.08
  -2   2   2 2749.48  106.52
   2  -2  -1    1.32    1.29
   2  -2  -1    2.91    2.03
  -2   2   1    1.75    2.01
   2  -2   0  916.98   18.92
   2  -2   0  902.74   22.25
  -2   2   0  895.57   21.79
   2  -2   1  112.97    1.26
  -2   2  -1  115.11    4.53
  -2   2  -1  121.57    2.03
  -2   2  -2 2417.38   63.62
  -2   2  -4  911.35   24.68
  -2   2  -5   99.92    5.17
   2  -2   6 2308.33   81.82
  -2   2  -6 2229.31   79.41
   2  -2   7  181.66   11.04
  -2   2  -7  159.17    7.15
   2  -2   8  555.60   16.59
  -2   2  -8  529.29   17.03
   2  -2   9  819.34   24.91
  -2   2  -9  751.27   34.05
   2  -2  10   29.52    4.40
  -2   2 -10   38.24    4.73
   2  -2  11  633.38   30.22
  -2   2 -11  600.57   21.97
   2  -2  12  540.62   28.61
  -2   2 -12  465.98   19.45
   2  -2  13    0.93    4.41
  -2   2 -13   -3.51    4.95
  -2   2 -13   -1.29    3.02
   2  -2  14  657.65   27.20
  -2   2 -14  654.66   28.76
  -2   2 -14  656.61   20.98
   2  -2  15  218.38   12.99
  -2   2 -15  216.41    9.22
  -2   2 -15  220.21   22.57
   2  -2  16   28.38    7.00
  -2   2 -16   37.52    4.68
  -2   2 -16   32.72    7.53
   2  -2  17  182.72   20.21
  -2   2 -17  177.11   13.91
  -2   2 -17  198.42   13.83
   2  -2  18   11.93    9.23
  -2   2 -18    7.50    6.10
  -2   2 -18    6.36    3.72
   2  -2  19   89.58    9.08
  -2   2 -19   74.75    6.44
  -2   2 -19   87.41   10.24
   2  -2  20   15.82    6.25
  -2   2 -20    6.77    7.08
  -2   2 -20    8.81    4.43
   2  -2  21   90.53   10.54
  -2   2 -21  125.30   11.78
  -2   2 -21   92.74   12.09
   2  -2  22   30.98    7.19
  -2   2 -22   13.62    8.13
  -2   2 -22   19.05    5.22
   2  -2  23   34.47    7.89
  -2   2 -23   20.25    5.56
  -2   2 -23   22.14    8.76
   2  -2  24  148.53   13.76
  -2   2 -24  136.84   10.03
  -2   2 -24  117.86   14.94
   2  -2  25    2.18   12.14
  -2   2 -25    9.84    8.06
  -2   2 -25   -1.24    8.46
   2  -1 -26    7.34    7.99
   2  -1 -26    9.28    7.28
  -2   1  26    7.61   12.13
   2  -1 -25    0.42   11.51
   2  -1 -25    0.99    7.46
  -2   1  25   13.39    7.13
   2  -1 -24   99.38   11.83
   2  -1 -24   81.01   11.00
  -2   1  24  110.22   11.34
   2  -1 -23    3.90    6.10
   2  -1 -23    8.97    6.71
  -2   1  23   13.41   10.93
   2  -1 -22   82.39    9.03
   2  -1 -22   64.25    9.83
  -2   1  22   65.88    9.60
   2  -1 -21  113.68   18.93
   2  -1 -21  148.63   19.86
  -2   1  21  147.71   11.81
   2  -1 -20   -5.62    9.05
   2  -1 -20    4.79    5.38
  -2   1  20   -2.47    9.02
   2  -1 -19  216.19   13.95
   2  -1 -19  227.21   13.52
  -2   1  19  188.77   14.01
   2  -1 -18   -2.60    5.09
   2  -1 -18    1.99    4.99
  -2   1  18    2.12    5.14
   2  -1 -17  608.54   27.70
  -2   1  17  636.39   28.65
   2  -1 -16  144.16   10.96
  -2   1  16  194.19   11.97
   2  -1 -15  691.39   28.16
  -2   1  15  734.08   43.31
   2  -1 -14    5.33    4.58
  -2   1  14    4.34    4.99
   2  -1 -13  172.53    9.32
  -2   1  13  157.59   16.11
   2  -1 -12   -3.93    6.37
  -2   1  12   -2.84    4.02
   2  -1 -11 1593.72   69.22
  -2   1  11 1578.31   56.26
   2  -1 -10 1173.24   39.31
  -2   1  10 1254.59   40.80
   2  -1  -9 4613.23  229.53
  -2   1   9 4527.53  225.56
   2  -1  -8   48.79    7.27
  -2   1   8   58.18    4.48
   2  -1  -7 1131.02   33.42
  -2   1   7 1133.14   33.76
   2  -1  -6  383.84   11.35
  -2   1   6  373.84   11.32
   2  -1  -5 1315.72   38.32
  -2   1   5 1349.79   39.60
   2  -1  -4    0.59    2.36
  -2   1   4   -1.39    2.35
   2  -1  -3  963.60   24.57
  -2   1   3  954.77   24.52
   2  -1  -2    8.38    2.12
  -2   1   2    3.72    2.20
   2  -1  -1   10.27    3.83
  -2   1   1   12.92    2.17
   2  -1   0   14.68    2.31
  -2   1   0   19.52    2.34
   2  -1   1  890.70   22.12
  -2   1  -1  935.46   29.32
  -2   1  -2  903.34   13.79
  -2   1  -2  658.62   19.04
  -2   1  -3  240.66    4.62
  -2   1  -4 1671.84   51.78
  -2   1  -4 1796.44   49.40
  -2   1  -5  188.66    6.79
  -2   1  -5  168.63    3.98
   2  -1   6   31.21    3.55
  -2   1  -6   25.52    3.62
  -2   1  -6   25.50    3.67
   2  -1   7 1945.29   64.88
  -2   1  -7 1871.71   63.79
  -2   1  -7 1931.96   57.22
   2  -1   8  120.93    6.02
  -2   1  -8  120.38    4.33
  -2   1  -8  114.25    6.40
   2  -1   9  604.83   18.88
  -2   1  -9  600.56   15.07
  -2   1  -9  590.30   19.27
   2  -1  10  463.06   15.49
  -2   1 -10  463.34   15.93
  -2   1 -10  477.63   12.62
   2  -1  11   59.34    8.91
  -2   1 -11   54.77    5.84
  -2   1 -11   51.50    6.52
   2  -1  12  117.94   13.40
  -2   1 -12  122.30    8.56
  -2   1 -12  140.69    9.54
   2  -1  13  825.97   42.05
  -2   1 -13  748.30   22.76
  -2   1 -13  773.16   30.84
   2  -1  14    5.84    8.55
  -2   1 -14   10.63    3.50
  -2   1 -14    8.48    5.73
   2  -1  15  575.90   35.04
  -2   1 -15  511.78   24.34
  -2   1 -15  556.95   18.16
   2  -1  16   15.48    9.53
  -2   1 -16   10.64    3.84
  -2   1 -16   16.82    6.24
   2  -1  17  156.02   17.67
  -2   1 -17  146.45   20.04
  -2   1 -17  172.68   12.98
   2  -1  18    2.53    4.85
  -2   1 -18   -1.61    5.83
  -2   1 -18   -3.16    5.51
   2  -1  19  111.94   10.84
  -2   1 -19  134.68    8.02
  -2   1 -19  168.12   12.22
   2  -1  20   24.10    7.01
  -2   1 -20   47.24   13.15
  -2   1 -20   29.57    5.25
   2  -1  21   29.23    7.60
  -2   1 -21   39.47    8.43
  -2   1 -21   36.68    5.58
   2  -1  22   48.09    8.18
  -2   1 -22   28.99    8.98
  -2   1 -22   38.88   10.02
   2  -1  23  134.37   12.88
  -2   1 -23  138.64    9.52
  -2   1 -23  168.89   23.60
   2  -1  24   -8.67   11.73
  -2   1 -24   17.15    5.20
  -2   1 -24   -1.33    7.93
  -2   1 -25  163.38   16.62
   2   0 -26   89.02   11.81
   2   0 -26  111.40   13.21
  -2   0  26   80.50   21.12
   2   0 -25   10.06    6.20
   2   0 -25   -3.09    6.86
  -2   0  25   -6.26    6.75
   2   0 -24   62.94   10.16
   2   0 -24   27.28   15.57
  -2   0  24   58.16    9.59
   2   0 -23   21.34    7.40
   2   0 -23   17.65   12.89
  -2   0  23   16.46   12.82
   2   0 -22  164.22   20.17
   2   0 -22  116.98   11.93
  -2   0  22  132.32   11.98
   2   0 -21   -5.92    6.12
   2   0 -21   -0.35    6.07
  -2   0  21   -5.30    6.08
   2   0 -20  235.47   15.25
  -2   0  20  258.57   25.19
   2   0 -19    6.63    5.75
  -2   0  19  -17.21    5.87
   2   0 -18  432.76   21.64
  -2   0  18  448.54   22.15
   2   0 -17  146.35   11.39
  -2   0  17  161.56   12.18
   2   0 -16 1357.41   59.37
  -2   0  16 1529.14   65.31
   2   0 -15  456.70   20.34
  -2   0  15  495.16   32.84
   2   0 -14  689.22   27.05
  -2   0  14  736.12   28.89
   2   0 -13   10.49    4.38
  -2   0  13    5.08    8.23
   2   0 -12  178.75    8.78
  -2   0  12  154.17    9.06
   2   0 -11   35.30    5.00
  -2   0  11   56.45    5.13
   2   0 -10 2330.61  106.74
  -2   0  10 2338.42   90.65
   2   0  -9  168.92    7.92
  -2   0   9  186.60    8.04
   2   0  -8 2244.98   82.98
  -2   0   8 2325.69   84.44
   2   0  -7   78.86    5.15
  -2   0   7   84.37    5.28
   2   0  -6  628.17   24.61
  -2   0   6  603.08   17.68
   2   0  -5  106.07    8.41
  -2   0   5  100.04    5.32
   2   0  -4 1995.69   63.95
  -2   0   4 2024.07   64.98
   2   0  -3  492.60   17.14
  -2   0   3  471.28   11.88
   2   0  -2  432.84   10.32
  -2   0   2  438.05   10.32
   2   0  -1  841.38   19.96
  -2   0   1  837.68   19.75
   2   0   0  543.96   12.41
  -2   0   0  548.08   12.36
   2   0   1   86.67    1.54
   2   0   1   95.90    3.76
  -2   0  -1   93.50    3.74
   2   0   2 1802.85   47.49
  -2   0  -2 1808.17   54.55
  -2   0  -2 1815.49   44.30
   2   0   3  439.84   10.29
  -2   0  -3  444.02   10.06
  -2   0  -4  125.85    5.14
  -2   0  -4  139.86    5.25
  -2   0  -5  726.62   19.97
  -2   0  -5  720.73   19.22
   2   0   6  693.25   18.72
  -2   0  -6  664.23   18.26
  -2   0  -6  673.61   15.05
   2   0   7  291.46    8.88
  -2   0  -7  271.59    6.87
  -2   0  -7  268.66    9.03
   2   0   8 2987.97  119.36
  -2   0  -8 2986.38  111.18
  -2   0  -8 2898.81  118.03
   2   0   9  291.75    9.92
  -2   0  -9  285.63   10.45
  -2   0  -9  269.92    7.85
   2   0  10 1012.90   31.78
  -2   0 -10  988.45   27.39
  -2   0 -10  929.64   41.83
   2   0  11   14.02    4.03
  -2   0 -11   20.92    4.41
  -2   0 -11   16.04    3.10
   2   0  12  817.58   28.41
  -2   0 -12  811.02   24.62
  -2   0 -12  859.95   44.18
   2   0  13    9.26    8.32
  -2   0 -13   26.26    5.67
  -2   0 -13   22.81    3.90
   2   0  14 1475.53   75.21
  -2   0 -14 1506.57   52.38
  -2   0 -14 1479.13   81.06
   2   0  15   31.27   10.53
  -2   0 -15   47.62    7.21
  -2   0 -15   41.76    4.81
   2   0  16  323.40   14.99
  -2   0 -16  312.16   17.03
  -2   0 -16  319.10   12.67
   2   0  17   -5.09    4.43
  -2   0 -17    4.26    3.53
  -2   0 -17   -2.27    5.05
   2   0  18  500.95   22.74
  -2   0 -18  478.41   24.43
  -2   0 -18  482.15   26.72
   2   0  19   55.92    7.80
  -2   0 -19   66.27   14.61
  -2   0 -19   48.37    9.73
   2   0  20  206.21   13.84
  -2   0 -20  200.94   14.74
  -2   0 -20  204.58   11.05
   2   0  21   37.15    7.07
  -2   0 -21   19.86    5.49
  -2   0 -21   35.53    7.90
   2   0  22   31.98    7.55
  -2   0 -22   22.86   13.59
  -2   0 -22   -4.48   13.76
  -2   0 -22   30.54    5.74
   2   0  23   46.23   14.39
  -2   0 -23   42.04    9.55
  -2   0 -23   45.44   11.04
   2   0  24  118.49   20.31
  -2   0 -24  115.78   14.02
  -2   0 -24  121.13   15.74
   2   1 -26   14.13    8.13
  -2  -1  26    2.75    7.91
   2   1 -25   99.23   12.54
  -2  -1  25   92.64   12.27
   2   1 -24    6.07   11.77
   2   1 -24   -0.08    6.93
  -2  -1  24  -13.51    6.82
   2   1 -23  128.64   13.81
   2   1 -23  114.66   13.04
  -2  -1  23  187.30   13.37
   2   1 -22    5.66    6.26
  -2  -1  22   -9.48    6.12
   2   1 -21  212.24   15.32
  -2  -1  21  216.19   15.57
   2   1 -20   34.43    7.54
  -2  -1  20   30.14    7.77
   2   1 -19   25.99    7.05
  -2  -1  19   29.84    7.26
   2   1 -18  121.07   10.92
  -2  -1  18  135.70   11.12
   2   1 -17  141.92   11.48
  -2  -1  17  177.47   12.55
   2   1 -16   40.25    7.03
  -2  -1  16   46.78    7.72
   2   1 -15  633.81   26.89
  -2  -1  15  712.42   42.22
   2   1 -14   74.59    7.13
  -2  -1  14   63.64    7.78
   2   1 -13  206.22   10.92
  -2  -1  13  275.39   18.78
   2   1 -12   54.44    5.85
  -2  -1  12   69.63    6.25
   2   1 -11  203.33    9.47
  -2  -1  11  214.06   15.42
   2   1 -10   28.29    4.46
  -2  -1  10   29.44    4.58
   2   1  -9 1327.66   55.35
  -2  -1   9 1318.80   43.96
   2   1  -8  371.30   12.26
  -2  -1   8  362.67   12.27
   2   1  -7  408.93   19.57
  -2  -1   7  416.34   20.57
   2   1  -6  511.85   14.84
  -2  -1   6  517.95   22.52
   2   1  -5 1470.93   44.33
  -2  -1   5 1453.67   44.50
   2   1  -4    8.11    4.80
  -2  -1   4   13.52    2.91
   2   1  -3  268.18    7.59
  -2  -1   3  273.99    7.48
   2   1  -2  461.61   10.85
  -2  -1   2  459.83   10.84
   2   1  -1    9.17    2.05
  -2  -1   1    8.86    2.05
   2   1   0  243.89    6.12
  -2  -1   0  254.37    6.25
   2   1   1 1241.86   31.27
   2   1   1 1170.51   26.10
  -2  -1  -1 1237.24   31.18
   2   1   2  152.24    5.54
  -2  -1  -2  147.22    4.83
  -2  -1  -2  150.97    5.67
   2   1   3 2477.06   77.83
  -2  -1  -3 2502.82   77.99
  -2  -1  -3 2427.01   80.87
   2   1   4    7.83    1.87
  -2  -1  -4    4.13    3.19
  -2  -1  -4    9.06    2.31
   2   1   5  760.98   23.31
  -2  -1  -5  762.68   17.46
  -2  -1  -5  785.98   26.37
  -2  -1  -6   70.15    4.22
  -2  -1  -6   84.95    5.43
   2   1   7 2778.87  103.05
  -2  -1  -7 2708.22   96.83
  -2  -1  -7 2619.30  100.43
   2   1   8  811.87   29.51
  -2  -1  -8  731.36   29.94
  -2  -1  -8  781.79   26.17
   2   1   9 1878.59   64.54
  -2  -1  -9 1808.34   63.97
  -2  -1  -9 1882.32   60.81
   2   1  10   10.62    3.47
  -2  -1 -10   17.40    3.89
  -2  -1 -10    9.07    2.83
   2   1  11  796.01   25.88
  -2  -1 -11  805.28   23.46
  -2  -1 -11  759.74   27.25
   2   1  12   26.30    4.68
  -2  -1 -12   28.04    4.00
  -2  -1 -12   38.84    5.65
   2   1  13 1451.95   54.55
  -2  -1 -13 1472.50   50.58
  -2  -1 -13 1436.01   57.91
   2   1  14   26.13    5.24
  -2  -1 -14   28.59    4.38
  -2  -1 -14   24.47    5.95
   2   1  15  200.21   10.29
  -2  -1 -15  158.03    8.75
  -2  -1 -15  177.02   11.52
   2   1  16   44.60    6.36
  -2  -1 -16   46.85    5.15
  -2  -1 -16   47.24    7.04
   2   1  17  234.03   12.03
  -2  -1 -17  187.11   12.95
  -2  -1 -17  196.35    9.91
   2   1  18   -1.15    4.81
  -2  -1 -18   -2.19    3.97
  -2  -1 -18   -3.76    5.34
   2   1  19  275.82   14.99
  -2  -1 -19  243.90   12.53
  -2  -1 -19  273.40   16.21
   2   1  20   -2.18    5.30
  -2  -1 -20    8.06    5.63
  -2  -1 -20   -2.01    6.97
   2   1  21   61.70    8.23
  -2  -1 -21   42.48   14.82
  -2  -1 -21   54.15    6.63
   2   1  22  107.40   16.82
  -2  -1 -22   89.32    8.27
  -2  -1 -22   99.58   11.46
   2   1  23   31.38   13.02
  -2  -1 -23   30.97    6.47
  -2  -1 -23   32.87    8.84
   2   1  24   32.33    8.19
  -2  -1 -24   29.57   15.01
  -2  -1 -24   25.55    6.59
   2   2 -27    4.53    8.17
  -2  -2  27    7.12   12.82
   2   2 -26    0.03    7.67
  -2  -2  26    5.10    7.37
   2   2 -25   33.71   16.38
  -2  -2  25   39.03    9.45
   2   2 -24   13.39    6.91
  -2  -2  24  -10.01    6.66
   2   2 -23   31.04    9.43
  -2  -2  23   61.82    9.24
   2   2 -22   96.34   12.06
  -2  -2  22  132.92   11.98
   2   2 -21   13.61    6.83
  -2  -2  21   12.10    6.89
   2   2 -20   76.73    9.05
  -2  -2  20   59.74    9.47
   2   2 -19  196.70   13.54
  -2  -2  19  195.50   14.50
   2   2 -18   44.45    7.81
  -2  -2  18   42.85    7.87
   2   2 -17  363.47   29.60
  -2  -2  17  417.07   21.37
   2   2 -16   28.03   11.23
  -2  -2  16   36.68    7.37
   2   2 -15   -6.82    8.62
  -2  -2  15   -2.41    9.32
   2   2 -14  101.59   12.53
  -2  -2  14   68.57    8.28
   2   2 -13   95.87   12.43
  -2  -2  13  102.59    8.12
   2   2 -12  156.75    8.57
  -2  -2  12  146.19    8.99
   2   2 -11    4.85    3.62
  -2  -2  11   -3.16    3.79
   2   2 -10  921.39   30.47
  -2  -2  10  923.52   30.96
   2   2  -9    8.23    3.43
  -2  -2   9    0.25    3.50
   2   2  -8  517.82   16.08
  -2  -2   8  510.26   16.11
   2   2  -7  758.66   22.30
  -2  -2   7  718.81   22.38
   2   2  -6  182.87    7.14
  -2  -2   6  179.38    7.39
   2   2  -5   15.66    3.10
  -2  -2   5   16.39    3.22
   2   2  -4 1482.72   43.29
  -2  -2   4 1511.44   44.39
   2   2  -3 1631.30   47.36
  -2  -2   3 1665.92   57.55
   2   2  -2 1602.52   44.20
  -2  -2   2 1591.04   44.48
   2   2  -1    8.11    1.89
  -2  -2   1    5.63    1.99
   2   2   0  491.43   10.67
  -2  -2   0  499.81   10.83
   2   2   1   90.64    5.42
  -2  -2  -1   95.49    3.33
   2   2   2 1376.55   36.16
  -2  -2  -2 1456.85   37.89
  -2  -2  -2 1432.78   37.91
   2   2   3    9.99    2.20
  -2  -2  -3   18.60    2.19
  -2  -2  -3   13.96    2.15
   2   2   4  371.24    8.81
  -2  -2  -4  366.79    9.01
  -2  -2  -4  375.55   12.59
   2   2   5  101.43    3.95
  -2  -2  -5   96.01    4.12
  -2  -2  -5  111.32    6.17
   2   2   6  335.54    8.74
  -2  -2  -6  342.82    9.30
  -2  -2  -6  351.91    8.82
   2   2   7   33.37    3.18
   2   2   7   31.12    3.20
  -2  -2  -7   29.40    2.93
  -2  -2  -7   37.84    3.45
   2   2   8 1108.33   31.61
  -2  -2  -8 1088.12   30.41
  -2  -2  -8 1056.72   32.29
   2   2   9   25.47    5.86
  -2  -2  -9   25.03    3.26
  -2  -2  -9   25.50    6.68
   2   2  10  124.85    5.97
  -2  -2 -10  100.57    6.45
  -2  -2 -10  106.95    5.41
   2   2  11  308.98   11.47
  -2  -2 -11  291.62   10.45
  -2  -2 -11  303.36   12.71
   2   2  12  303.96   11.78
  -2  -2 -12  289.63   10.80
  -2  -2 -12  272.92   13.34
   2   2  13    5.20    3.73
  -2  -2 -13    2.94    3.28
  -2  -2 -13   -5.81    4.25
   2   2  14  383.64   15.30
  -2  -2 -14  363.70   16.75
  -2  -2 -14  371.80   14.06
   2   2  15   10.30    4.54
  -2  -2 -15    8.19    3.89
  -2  -2 -15    2.47    8.45
   2   2  16   42.46    5.93
  -2  -2 -16   43.80    5.24
  -2  -2 -16   37.59    6.70
   2   2  17  204.20   10.64
  -2  -2 -17  171.68    9.39
  -2  -2 -17  146.18   11.82
   2   2  18   55.19    7.23
  -2  -2 -18   56.12    8.00
  -2  -2 -18   69.32    6.26
   2   2  19   37.78    6.46
  -2  -2 -19   21.99    7.37
  -2  -2 -19   42.94    5.80
   2   2  20   65.29   12.46
  -2  -2 -20   49.14    6.54
  -2  -2 -20   65.11   13.89
   2   2  21   51.10   14.17
  -2  -2 -21   75.63    7.54
  -2  -2 -21   66.56    9.46
   2   2  22   14.19    6.46
  -2  -2 -22   21.60    9.23
  -2  -2 -22   11.86    7.18
   2   2  23  102.34    9.73
  -2  -2 -23   65.05    8.17
  -2  -2 -23   56.92   17.91
   2   3 -27    5.53    8.22
  -2  -3  27    0.35   12.75
   2   3 -26   39.76   15.14
  -2  -3  26    8.77    8.63
   2   3 -25    3.87    7.63
  -2  -3  25    2.91    7.33
   2   3 -24  130.93   14.15
  -2  -3  24  127.81   13.38
   2   3 -23   22.80    7.89
  -2  -3  23   14.24    7.94
   2   3 -22  106.67   12.00
  -2  -3  22  106.66   11.85
   2   3 -21   89.50   10.16
  -2  -3  21   72.43   10.20
   2   3 -20    9.35    5.94
  -2  -3  20   -1.83    6.30
   2   3 -19   34.01   13.58
  -2  -3  19   55.74    8.72
   2   3 -18   89.41   16.16
  -2  -3  18   89.30    9.94
   2   3 -17   16.28    6.34
  -2  -3  17   19.43    6.89
   2   3 -16   57.40    8.09
  -2  -3  16   77.07    8.84
   2   3 -15   72.01    8.01
  -2  -3  15   68.66   14.13
   2   3 -14   13.21    5.42
  -2  -3  14   19.59    5.82
   2   3 -13  120.57   13.89
  -2  -3  13  128.31    9.02
   2   3 -12   36.91    8.52
  -2  -3  12   32.02    5.39
   2   3 -11  757.15   26.56
  -2  -3  11  839.80   28.10
   2   3 -10 1061.95   36.38
  -2  -3  10 1125.84   37.17
   2   3  -9 2823.11  115.58
  -2  -3   9 2855.70  117.47
   2   3  -8  305.80   16.46
  -2  -3   8  323.71   11.31
   2   3  -7  380.62   11.85
  -2  -3   7  366.50   12.03
   2   3  -6  141.21    5.76
  -2  -3   6  121.40    5.86
   2   3  -5  512.90   13.73
  -2  -3   5  529.80   14.49
   2   3  -4  390.25   10.12
  -2  -3   4  404.95   10.61
   2   3  -3 2852.04  101.46
  -2  -3   3 2861.74  102.13
   2   3  -2   15.60    2.05
  -2  -3   2   12.17    2.08
   2   3  -1 1147.03   27.46
  -2  -3   1 1157.01   27.68
   2   3   0   56.43    3.30
   2   3   0   63.74    2.50
  -2  -3   0   66.80    2.61
   2   3   1  470.44   11.13
  -2  -3  -1  469.57    9.60
   2   3   2   19.91    2.51
  -2  -3  -2   20.04    2.65
  -2  -3  -2   20.17    3.31
   2   3   3  168.18    8.12
  -2  -3  -3  165.19    6.59
  -2  -3  -3  166.65    4.34
  -2  -3  -3  170.47    8.05
   2   3   4 1285.88   35.17
  -2  -3  -4 1292.71   42.12
  -2  -3  -4 1288.14   33.05
   2   3   5  218.83    6.58
  -2  -3  -5  230.66   10.05
  -2  -3  -5  234.23    9.32
   2   3   6  444.42   11.94
  -2  -3  -6  450.95   11.89
  -2  -3  -6  463.06   11.79
   2   3   7  415.07   11.85
  -2  -3  -7  433.11   11.64
  -2  -3  -7  442.37   17.00
   2   3   8    7.52    2.79
   2   3   8    0.44    2.44
  -2  -3  -8    3.77    2.56
  -2  -3  -8   -3.64    2.66
   2   3   9  220.17    7.75
  -2  -3  -9  224.88    8.61
  -2  -3  -9  233.80    8.00
   2   3  10  787.80   31.26
  -2  -3 -10  777.41   23.47
  -2  -3 -10  760.61   34.92
   2   3  11   57.15    7.54
  -2  -3 -11   42.85    4.54
  -2  -3 -11   48.96    5.43
   2   3  12  484.20   16.49
  -2  -3 -12  467.49   18.00
  -2  -3 -12  486.60   16.23
   2   3  13  209.05    9.58
  -2  -3 -13  211.75    9.53
  -2  -3 -13  217.26   11.02
   2   3  14   -4.86    3.58
  -2  -3 -14   -2.19    7.08
  -2  -3 -14    6.27    3.56
   2   3  15  139.29    8.38
  -2  -3 -15  131.17   12.83
  -2  -3 -15  127.64    9.50
   2   3  16  115.84    7.75
  -2  -3 -16   99.71    7.27
  -2  -3 -16   86.00    8.60
   2   3  17   22.96    5.61
  -2  -3 -17   30.67    5.29
  -2  -3 -17   31.86    6.04
   2   3  18   70.53   12.42
  -2  -3 -18   77.18    6.99
  -2  -3 -18   76.38    8.48
   2   3  19  109.08   13.87
  -2  -3 -19   96.62   15.49
  -2  -3 -19   86.67    7.97
   2   3  20   29.60    6.66
  -2  -3 -20   39.72    7.30
  -2  -3 -20   29.74    6.10
   2   3  21   33.42    7.02
  -2  -3 -21   29.32    7.85
  -2  -3 -21   38.89    6.32
   2   3  22   76.38    8.86
  -2  -3 -22   51.97   16.16
  -2  -3 -22   66.82    7.92
   2   3  23   29.90    8.05
  -2  -3 -23   46.25    7.15
  -2  -3 -23   39.21    8.81
   2   4 -27   10.30   15.36
  -2  -4  27   16.30   14.34
   2   4 -26   49.18   11.15
  -2  -4  26   44.65   10.87
   2   4 -25   -0.36    7.59
  -2  -4  25    3.66    7.13
   2   4 -24   -6.81    7.17
  -2  -4  24    0.27    6.92
   2   4 -23   87.45   11.19
  -2  -4  23   70.70   11.37
   2   4 -22   10.01    7.20
  -2  -4  22   14.85    7.27
   2   4 -21   29.94    7.28
  -2  -4  21   10.15    7.46
   2   4 -20  158.34   19.66
  -2  -4  20  126.19   12.68
   2   4 -19   32.05   12.55
  -2  -4  19   27.15    7.64
   2   4 -18  248.49   16.16
  -2  -4  18  254.66   16.22
   2   4 -17   30.73    7.29
  -2  -4  17   55.29   12.99
   2   4 -16  444.99   21.33
  -2  -4  16  467.53   23.44
   2   4 -15   74.14    7.89
  -2  -4  15   72.93    8.80
   2   4 -14  292.47   14.62
  -2  -4  14  281.29   15.12
   2   4 -13   60.24    6.70
  -2  -4  13   69.28    7.17
   2   4 -12   47.65    9.32
  -2  -4  12   48.65   10.19
   2   4 -11    3.89    3.76
  -2  -4  11    6.01    4.00
   2   4 -10  999.21   33.18
  -2  -4  10 1069.40   47.01
   2   4  -9 1569.74   54.38
  -2  -4   9 1612.08   56.02
   2   4  -8 2651.69  118.87
  -2  -4   8 2751.04  107.66
   2   4  -7  257.17    8.68
  -2  -4   7  255.35    9.11
   2   4  -6  531.40   14.43
  -2  -4   6  542.61   15.46
   2   4  -5   78.85    4.05
  -2  -4   5   83.04    4.38
   2   4  -4  420.82   10.25
  -2  -4   4  421.33   10.65
   2   4  -3  251.61    6.19
  -2  -4   3  248.31    6.34
   2   4  -2  169.58    6.48
  -2  -4   2  173.47    4.39
   2   4  -1  448.86    8.86
  -2  -4   1  458.40    9.14
   2   4   0  405.89   10.70
   2   4   0  412.57   10.53
  -2  -4   0  431.50   10.72
   2   4   1   41.95    3.06
  -2  -4  -1   35.79    1.85
   2   4   2  350.63    9.25
  -2  -4  -2  368.99    9.30
  -2  -4  -2  351.51    9.49
   2   4   3  366.33    9.36
  -2  -4  -3  349.71    9.59
  -2  -4  -3  346.36    9.30
  -2  -4  -3  354.27    6.94
   2   4   4  461.52   16.84
  -2  -4  -4  463.66   12.15
  -2  -4  -4  456.64    9.80
   2   4   5 1823.12   68.84
  -2  -4  -5 1837.22   59.28
  -2  -4  -5 1846.36   54.90
   2   4   6  116.74    5.27
  -2  -4  -6  122.84    8.23
  -2  -4  -6  114.95    4.29
   2   4   7  170.12   10.23
  -2  -4  -7  159.69    5.78
  -2  -4  -7  169.58    6.44
   2   4   8  661.28   26.64
  -2  -4  -8  657.56   19.23
  -2  -4  -8  648.43   18.60
   2   4   9    9.24    2.88
   2   4   9   14.49    3.79
  -2  -4  -9   10.89    3.40
  -2  -4  -9   13.72    5.96
   2   4  10  178.85    6.95
  -2  -4 -10  158.98    7.79
  -2  -4 -10  162.76    8.07
   2   4  11  276.92    9.61
  -2  -4 -11  261.79   10.60
  -2  -4 -11  227.81   10.55
   2   4  12  137.26    7.08
  -2  -4 -12  137.66   12.43
  -2  -4 -12  145.98    8.26
   2   4  13   57.83    5.02
  -2  -4 -13   42.88    9.81
  -2  -4 -13   40.81    8.99
   2   4  14  233.58   15.60
  -2  -4 -14  223.21   16.61
  -2  -4 -14  220.56   11.32
   2   4  15    0.37    6.37
  -2  -4 -15    4.66    4.01
  -2  -4 -15    7.92    7.53
   2   4  16  154.00    9.20
  -2  -4 -16  173.04    9.63
  -2  -4 -16  165.07   10.13
   2   4  17   24.13    4.86
  -2  -4 -17    9.22    5.48
  -2  -4 -17   10.71    4.93
   2   4  18  202.80   11.56
  -2  -4 -18  219.88   20.41
  -2  -4 -18  217.20   18.54
   2   4  19    7.01    4.81
  -2  -4 -19    3.56    5.39
  -2  -4 -19   -3.18    8.03
   2   4  20  156.01   10.48
  -2  -4 -20  152.05   16.76
  -2  -4 -20  116.23   11.63
   2   4  21   22.63    6.40
  -2  -4 -21   29.31    6.31
  -2  -4 -21   17.75   11.81
   2   4  22   26.88    6.54
  -2  -4 -22   14.38    6.27
  -2  -4 -22   15.87    7.21
   2   5 -27   63.63   11.49
  -2  -5  27    0.73   17.77
   2   5 -26   74.90   12.22
  -2  -5  26   50.59   11.76
   2   5 -25  148.25   15.86
  -2  -5  25  142.93   14.92
   2   5 -24   35.12    9.02
  -2  -5  24   19.62    8.69
   2   5 -23   85.50   11.26
  -2  -5  23   73.81   11.26
   2   5 -22   -8.30    6.13
  -2  -5  22    7.80    6.29
   2   5 -21   50.73   16.17
  -2  -5  21   74.11    9.87
   2   5 -20  -10.50   11.42
  -2  -5  20  -14.28   11.96
   2   5 -19   44.73    9.04
  -2  -5  19   76.77    9.03
   2   5 -18   10.43    6.07
  -2  -5  18   -1.12    6.12
   2   5 -17  303.44   16.94
  -2  -5  17  308.94   27.60
   2   5 -16  201.03   13.18
  -2  -5  16  204.75   14.30
   2   5 -15 1124.21   48.63
  -2  -5  15 1270.73   52.64
   2   5 -14  114.37    8.82
  -2  -5  14   89.58   15.84
   2   5 -13   32.05    6.03
  -2  -5  13   58.99    6.48
   2   5 -12  277.09   18.56
  -2  -5  12  276.11   12.96
   2   5 -11    3.63    6.44
  -2  -5  11    8.69    4.14
   2   5 -10   11.77    3.55
  -2  -5  10    3.84    4.00
   2   5  -9  765.16   23.81
  -2  -5   9  766.09   24.48
   2   5  -8  816.78   31.82
  -2  -5   8  827.60   25.27
   2   5  -7  881.97   24.54
  -2  -5   7  883.33   25.71
   2   5  -6  124.62    4.83
  -2  -5   6  125.53    8.51
   2   5  -5  944.55   24.14
  -2  -5   5  983.45   32.48
   2   5  -4  125.04    6.14
  -2  -5   4  118.65    6.84
   2   5  -3  551.61   11.70
  -2  -5   3  546.47   11.94
   2   5  -2  547.00   10.75
  -2  -5   2  536.94   14.09
   2   5  -1   53.57    1.77
  -2  -5   1   54.97    3.17
   2   5   0  221.05    4.02
   2   5   0  216.22    6.81
  -2  -5   0  225.68    4.12
   2   5   1 1170.46   32.32
  -2  -5  -1 1176.81   26.25
   2   5   2  559.34   14.66
  -2  -5  -2  582.49   12.91
  -2  -5  -2  574.13   10.48
   2   5   3  956.08   26.46
  -2  -5  -3  976.70   21.25
  -2  -5  -3  953.57   24.19
  -2  -5  -3  945.64   33.93
   2   5   4   12.51    2.91
  -2  -5  -4   17.95    1.65
  -2  -5  -4   15.99    1.79
  -2  -5  -4   15.75    2.92
   2   5   5    6.29    2.68
  -2  -5  -5    6.57    2.74
  -2  -5  -5    2.51    1.77
   2   5   6  300.86    9.56
  -2  -5  -6  290.30    9.75
  -2  -5  -6  310.57    7.75
   2   5   7  421.23   13.27
  -2  -5  -7  415.30   11.35
  -2  -5  -7  416.38   13.14
   2   5   8   75.96    5.27
  -2  -5  -8   71.73    7.29
  -2  -5  -8   62.98    5.07
   2   5   9 1325.64   46.13
  -2  -5  -9 1276.48   42.40
  -2  -5  -9 1335.55   45.09
   2   5  10   44.95    5.43
  -2  -5 -10   38.52    4.51
  -2  -5 -10   40.60    4.84
   2   5  11  452.87   13.95
  -2  -5 -11  481.82   24.01
  -2  -5 -11  424.30   15.26
   2   5  12   43.05    4.33
  -2  -5 -12   36.64    5.32
  -2  -5 -12   37.97    5.07
   2   5  13  387.89   13.46
  -2  -5 -13  374.89   15.16
  -2  -5 -13  354.24   14.93
   2   5  14   24.44    4.33
  -2  -5 -14   33.48    8.43
  -2  -5 -14   30.73    5.25
   2   5  15  256.55   11.09
  -2  -5 -15  255.64   12.43
  -2  -5 -15  244.76   12.05
   2   5  16   -0.10    3.94
  -2  -5 -16    1.09    4.47
  -2  -5 -16   15.06    4.53
   2   5  17  164.43    9.37
  -2  -5 -17  188.74   10.53
  -2  -5 -17  143.55   10.37
   2   5  18   15.01    4.75
  -2  -5 -18    8.63    5.32
  -2  -5 -18   10.00    5.36
   2   5  19  245.20   13.28
  -2  -5 -19  235.96   22.33
  -2  -5 -19  246.14   13.98
   2   5  20   -6.52    4.71
  -2  -5 -20   -5.29    4.99
  -2  -5 -20   11.16    5.15
  -2  -5 -21   37.88    8.48
  -2  -5 -21   78.13    8.06
  -2  -5 -22   40.12    7.63
  -2  -5 -22   41.97   13.22
   2   6 -27   -2.60    8.28
  -2  -6  27   -0.89   12.91
   2   6 -26   76.53   12.27
  -2  -6  26   60.98   12.12
   2   6 -25   56.31   11.32
  -2  -6  25   54.20   10.95
   2   6 -24  123.38   12.87
  -2  -6  24   90.31   12.17
   2   6 -23   43.96    9.77
  -2  -6  23   41.32   16.10
   2   6 -22   92.36   11.01
  -2  -6  22   74.97   11.04
   2   6 -21    6.01   11.86
  -2  -6  21   11.89    7.04
   2   6 -20   36.58    8.07
  -2  -6  20   28.14    7.92
   2   6 -19   56.53    9.30
  -2  -6  19   77.30    9.34
   2   6 -18   58.82    8.37
  -2  -6  18   46.75    8.48
   2   6 -17  162.68   12.06
  -2  -6  17  148.29   12.36
   2   6 -16  215.95   13.92
  -2  -6  16  289.06   24.61
   2   6 -15   83.85    8.99
  -2  -6  15  107.14    9.49
   2   6 -14  549.99   23.59
  -2  -6  14  609.74   25.78
   2   6 -13    9.61    4.73
  -2  -6  13   17.28    9.04
   2   6 -12   13.82    7.21
  -2  -6  12    6.20    4.69
   2   6 -11  177.06    8.77
  -2  -6  11  203.65    9.92
   2   6 -10   19.60    3.75
  -2  -6  10    8.84    4.14
   2   6  -9   14.50    3.31
  -2  -6   9    4.00    3.73
   2   6  -8   20.44    3.34
  -2  -6   8   27.18    3.76
   2   6  -7    9.23    2.70
  -2  -6   7   12.79    3.00
   2   6  -6 1333.31   37.51
  -2  -6   6 1323.85   39.01
   2   6  -5  206.80    5.45
  -2  -6   5  207.03    9.20
   2   6  -4 2445.74   80.61
  -2  -6   4 2522.54   93.25
   2   6  -3  254.16    7.29
  -2  -6   3  253.80    7.92
   2   6  -2 1146.45   25.67
  -2  -6   2 1132.83   26.06
   2   6  -1  233.27    7.55
   2   6  -1  226.71    5.34
  -2  -6   1  235.43    4.25
   2   6   0  521.65    8.96
   2   6   0  511.24   14.00
  -2  -6   0  524.76   10.93
   2   6   1   27.03    5.63
  -2  -6  -1   27.56    1.22
   2   6   2 2612.26   97.47
  -2  -6  -2 2597.25   81.97
  -2  -6  -2 2587.16   80.10
   2   6   3 1421.14   44.76
  -2  -6  -3 1455.88   39.56
  -2  -6  -3 1438.16   35.59
  -2  -6  -3 1502.07   46.96
   2   6   4  859.44   25.26
  -2  -6  -4  890.10   19.52
  -2  -6  -4  853.13   18.50
  -2  -6  -4  885.73   25.94
   2   6   5    5.04    2.74
  -2  -6  -5   -1.74    1.29
  -2  -6  -5    1.38    4.80
  -2  -6  -5    3.43    1.60
   2   6   6  424.28   13.79
  -2  -6  -6  417.82   10.23
  -2  -6  -6  450.77   14.13
   2   6   7   14.86    3.79
  -2  -6  -7    9.34    2.64
  -2  -6  -7   22.19    6.20
   2   6   8  961.50   43.38
  -2  -6  -8  997.40   33.15
  -2  -6  -8  942.00   36.01
   2   6   9   36.65    4.86
  -2  -6  -9   28.93    3.79
  -2  -6  -9   37.31    4.72
   2   6  10  317.25   13.60
  -2  -6 -10  306.16   19.03
  -2  -6 -10  290.56   15.87
   2   6  11   31.44    6.44
  -2  -6 -11   65.83    4.88
  -2  -6 -11   58.09    5.96
  -2  -6 -12  332.56   14.17
  -2  -6 -12  305.40   18.25
  -2  -6 -13    3.96    4.35
  -2  -6 -13    7.98    3.79
  -2  -6 -14  263.31   11.72
  -2  -6 -14  276.38   13.52
  -2  -6 -15    9.37    7.01
  -2  -6 -15    4.78    4.67
  -2  -6 -16   62.04    6.50
  -2  -6 -16   63.00    7.18
  -2  -6 -17   27.38    6.20
  -2  -6 -17   33.28    5.87
  -2  -6 -18   57.89   12.01
  -2  -6 -18   69.40    7.71
  -2  -6 -19    2.22    5.02
  -2  -6 -19    4.74    5.22
  -2  -6 -20   84.59    9.13
  -2  -6 -20   74.18    8.80
  -2  -6 -21    4.72    5.86
  -2  -6 -21    7.00    9.50
   2   7 -27   15.55    8.82
  -2  -7  27   -3.04    8.23
   2   7 -26  -16.80    7.91
  -2  -7  26   11.69    7.71
   2   7 -25  -12.74    8.07
  -2  -7  25   -1.93    8.03
   2   7 -24   -1.53    7.26
  -2  -7  24    6.45    6.97
   2   7 -23    9.14    7.49
  -2  -7  23    6.92   12.17
   2   7 -22   14.57   11.38
  -2  -7  22  -10.47    6.82
   2   7 -21   95.00   18.05
  -2  -7  21   85.77   10.98
   2   7 -20   11.22    6.42
  -2  -7  20   -3.36    6.26
   2   7 -19   -3.36    6.13
  -2  -7  19   -9.61   10.49
   2   7 -18  267.99   15.75
  -2  -7  18  235.51   16.07
   2   7 -17   77.80    8.75
  -2  -7  17   78.45    9.47
   2   7 -16  288.68   16.07
  -2  -7  16  296.02   16.21
   2   7 -15   71.81    7.86
  -2  -7  15   74.71    8.57
   2   7 -14   39.19    6.34
  -2  -7  14   33.88    7.06
   2   7 -13  424.85   18.08
  -2  -7  13  456.63   19.88
   2   7 -12   51.42    9.69
  -2  -7  12   63.20   11.17
   2   7 -11  113.62    6.82
  -2  -7  11  115.10    7.72
   2   7 -10    4.43    3.27
  -2  -7  10    4.65    3.83
   2   7  -9   38.31    4.18
  -2  -7   9   62.38    4.79
   2   7  -8  146.74    5.72
  -2  -7   8  130.92    6.65
   2   7  -7  553.67   19.15
  -2  -7   7  538.76   21.99
   2   7  -6    7.64    3.46
  -2  -7   6    4.54    2.53
   2   7  -5 1292.05   39.65
  -2  -7   5 1332.98   44.59
   2   7  -4  941.67   21.56
  -2  -7   4  940.76   23.00
   2   7  -3 4585.73  201.10
  -2  -7   3 4579.07  204.63
   2   7  -2  575.94   10.56
  -2  -7   2  581.43   13.94
   2   7  -1  956.71   28.13
   2   7  -1  993.80   21.99
  -2  -7   1  969.26   20.18
   2   7   0    0.11    2.57
  -2  -7   0    0.23    0.76
   2   7   1 1055.02   31.57
  -2  -7  -1 1077.18   21.36
  -2  -7  -1 1066.59   21.92
   2   7   2  104.81    5.32
  -2  -7  -2  102.28    1.98
  -2  -7  -2  100.00    1.99
   2   7   3  854.34   25.69
  -2  -7  -3  838.15   19.00
  -2  -7  -3  864.65   17.33
  -2  -7  -3  851.56   25.77
   2   7   4  125.54    5.95
  -2  -7  -4  113.28    3.63
  -2  -7  -4  108.82    4.37
  -2  -7  -4   97.15    9.95
   2   7   5  173.59    7.53
  -2  -7  -5  163.39    3.53
  -2  -7  -5  165.06    6.39
  -2  -7  -5  177.32    7.64
   2   7   6   29.38    7.39
  -2  -7  -6   32.38    7.35
  -2  -7  -6   29.57    2.60
   2   7   7  123.87    7.28
  -2  -7  -7  147.90    7.28
  -2  -7  -7  115.10    4.76
   2   7   8    2.94    4.10
  -2  -7  -8   13.21    4.03
  -2  -7  -8   10.83    4.43
   2   7   9  103.62    7.64
  -2  -7  -9  115.69    5.44
  -2  -7  -9  129.63    7.59
   2   7  10  115.92   13.38
  -2  -7 -10  104.23    7.59
  -2  -7 -10  110.49    9.05
   2   7  11   26.88    5.39
  -2  -7 -11   26.86    4.91
  -2  -7 -11   15.90    3.68
  -2  -7 -12  174.27    7.96
  -2  -7 -12  187.00   10.26
  -2  -7 -13   58.14    8.83
  -2  -7 -13   73.25   11.31
  -2  -7 -14    4.62    7.28
  -2  -7 -14   -0.84    3.49
  -2  -7 -15   65.81    7.12
  -2  -7 -15   53.46    5.90
  -2  -7 -16   41.42    6.40
  -2  -7 -16   20.37    8.92
  -2  -7 -17    9.85    5.31
  -2  -7 -17    4.83    4.53
  -2  -7 -18   27.31    6.52
  -2  -7 -18   27.23    5.70
  -2  -7 -19   33.57    7.14
  -2  -7 -19   32.59   10.33
  -2  -7 -20    3.45    5.40
  -2  -7 -20   11.01    6.07
   2   8 -27  -15.84    9.36
  -2  -8  27   -8.08    8.95
   2   8 -26   10.38    8.36
  -2  -8  26  -11.33   13.40
   2   8 -25    0.86    7.76
  -2  -8  25    8.77    7.71
   2   8 -24    1.41    8.13
  -2  -8  24   27.30    8.24
   2   8 -23   32.81    9.37
  -2  -8  23   42.59    9.00
   2   8 -22    4.80    6.78
  -2  -8  22    7.11   11.73
   2   8 -21   12.81   13.27
  -2  -8  21   31.16    8.13
   2   8 -20  140.45   21.57
  -2  -8  20  163.53   13.24
   2   8 -19   27.25    7.51
  -2  -8  19   29.57    7.48
   2   8 -18   58.22    8.50
  -2  -8  18   61.96   14.86
   2   8 -17   77.55    8.85
  -2  -8  17   69.76    9.19
   2   8 -16    5.47    5.33
  -2  -8  16    3.89    5.68
   2   8 -15   49.08    6.92
  -2  -8  15   42.24    7.29
   2   8 -14   76.16   12.42
  -2  -8  14   89.42    8.72
   2   8 -13    5.50    7.38
  -2  -8  13    8.68    5.14
   2   8 -12  116.93    7.59
  -2  -8  12  143.43    9.11
   2   8 -11   65.33    5.65
  -2  -8  11   83.39   10.91
   2   8 -10  396.38   13.50
  -2  -8  10  431.81   15.78
   2   8  -9  394.03   17.64
  -2  -8   9  392.45   14.14
   2   8  -8  847.95   23.88
  -2  -8   8  877.78   27.34
   2   8  -7   -1.53    2.08
  -2  -8   7    4.97    2.73
   2   8  -6   47.45    2.77
  -2  -8   6   54.93    3.61
   2   8  -5   44.33    2.30
  -2  -8   5   38.04    4.85
   2   8  -4  664.91   16.93
  -2  -8   4  675.20   15.58
   2   8  -3  135.49    2.86
  -2  -8   3  141.86    5.41
   2   8  -2 1056.16   32.99
   2   8  -2 1071.53   22.58
  -2  -8   2 1069.59   26.99
   2   8  -1   46.75    1.16
   2   8  -1   50.15    4.16
  -2  -8   1   49.46    2.17
   2   8   0   79.82    5.04
  -2  -8   0   86.10    2.19
   2   8   1   24.90    3.61
  -2  -8  -1   21.37    1.25
  -2  -8  -1   19.94    1.19
   2   8   2  212.77    8.55
  -2  -8  -2  219.04    4.22
  -2  -8  -2  222.02    3.08
   2   8   3    9.21    3.43
  -2  -8  -3    7.29    1.00
  -2  -8  -3    6.79    0.76
   2   8   4    4.27    3.53
  -2  -8  -4    5.16    1.44
  -2  -8  -4   10.28    2.13
  -2  -8  -4    4.34    3.69
   2   8   5  278.33   11.03
  -2  -8  -5  278.92    6.49
  -2  -8  -5  279.47    6.10
  -2  -8  -5  281.88   17.78
   2   8   6   69.92   10.16
  -2  -8  -6   74.76    3.12
  -2  -8  -6   72.44    2.26
  -2  -8  -6   92.51    6.06
   2   8   7  197.61    9.39
  -2  -8  -7  175.19    4.27
  -2  -8  -7  177.65    5.46
  -2  -8  -7  166.10   14.17
   2   8   8   70.27    6.60
  -2  -8  -8   71.51    3.72
  -2  -8  -8   67.12    6.32
   2   8   9    5.88    4.03
  -2  -8  -9   -0.60    4.04
  -2  -8  -9   -3.31    2.37
   2   8  10   42.16    6.08
  -2  -8 -10   44.26    6.03
  -2  -8 -10   41.01    6.09
   2   8  11  247.70   13.20
  -2  -8 -11  236.88   19.58
  -2  -8 -11  240.78    8.80
   2   8  12   -8.12    5.04
  -2  -8 -12   -0.49    3.03
  -2  -8 -12   -2.49    4.47
  -2  -8 -13   99.37    8.37
  -2  -8 -13  103.43    9.85
  -2  -8 -14   18.35    5.58
  -2  -8 -14   13.05    4.08
  -2  -8 -15    6.97    5.30
  -2  -8 -15    9.80    3.97
  -2  -8 -16   11.46    7.59
  -2  -8 -16   22.14    5.99
  -2  -8 -17   10.46    4.69
  -2  -8 -17   19.99    6.12
  -2  -8 -18   17.05    4.99
  -2  -8 -18   13.05    6.43
  -2  -8 -19   -3.65    5.55
  -2  -8 -19    3.18    4.58
   2   9 -26   23.63    9.46
  -2  -9  26    8.90    8.80
   2   9 -25   12.20    9.27
  -2  -9  25   27.98    9.04
   2   9 -24   -2.75    7.44
  -2  -9  24   -6.87    7.21
   2   9 -23    6.79    7.30
  -2  -9  23    8.96    7.08
   2   9 -22   11.67    7.05
  -2  -9  22    4.85    6.92
   2   9 -21   18.24   12.42
  -2  -9  21   17.67   12.74
   2   9 -20   47.08   14.85
  -2  -9  20   55.50    9.14
   2   9 -19  225.32   23.91
  -2  -9  19  214.57   15.04
   2   9 -18   56.52   15.35
  -2  -9  18   94.07    9.44
   2   9 -17  195.52   20.62
  -2  -9  17  201.09   22.24
   2   9 -16   13.50    9.84
  -2  -9  16   19.20    6.20
   2   9 -15   49.07   11.06
  -2  -9  15   46.52    7.42
   2   9 -14   25.03    8.25
  -2  -9  14    7.30    5.52
   2   9 -13    5.61    4.24
  -2  -9  13    8.47    8.26
   2   9 -12  101.44    6.72
  -2  -9  12   96.15    8.15
   2   9 -11   -1.20    3.34
  -2  -9  11   -2.19    4.17
   2   9 -10   15.95    6.13
  -2  -9  10   19.81    4.60
   2   9  -9  618.81   18.27
  -2  -9   9  645.62   30.54
   2   9  -8  100.84    7.52
  -2  -9   8  112.27    9.95
   2   9  -7   56.87    3.37
  -2  -9   7   77.26    4.52
   2   9  -6   26.80    2.33
  -2  -9   6   33.69    3.23
   2   9  -5   13.82    2.81
  -2  -9   5   15.60    4.19
   2   9  -4  115.01    4.26
  -2  -9   4  117.07    5.92
   2   9  -3    3.52    3.32
   2   9  -3    4.73    1.02
  -2  -9   3    4.47    1.48
   2   9  -2   67.91    5.24
   2   9  -2   67.87    2.19
  -2  -9   2   72.47    2.07
   2   9  -1    4.05    3.08
  -2  -9   1    0.70    1.29
   2   9   0    1.10    6.01
  -2  -9   0    7.98    0.62
  -2  -9   0   10.00    0.85
   2   9   1  148.43    7.40
   2   9   2    5.54    3.63
   2   9   3  132.82    7.42
  -2  -9  -3  123.62    2.04
  -2  -9  -3  123.89    2.47
   2   9   4   46.93    5.29
  -2  -9  -4   42.92    1.40
  -2  -9  -4   44.80    1.08
  -2  -9  -4   51.06    5.36
   2   9   5   64.55    6.35
  -2  -9  -5   70.83    2.39
  -2  -9  -5   75.14    3.34
   2   9   6  323.65   13.65
  -2  -9  -6  322.93    7.56
  -2  -9  -6  335.91    9.60
  -2  -9  -6  352.09   21.59
   2   9   7    8.21    4.09
  -2  -9  -7   -0.09    1.22
  -2  -9  -7    3.10    1.70
  -2  -9  -7    7.76    3.99
   2   9   8   -0.67    4.10
  -2  -9  -8   -0.37    1.40
  -2  -9  -8   -3.44    3.98
  -2  -9  -8    0.41    1.87
   2   9   9  187.75   15.88
  -2  -9  -9  166.61   15.59
  -2  -9  -9  151.28    8.22
   2   9  10   -3.77    4.34
  -2  -9 -10    8.21    4.23
  -2  -9 -10   -4.38    3.82
   2   9  11   40.28    6.68
  -2  -9 -11   42.90    3.78
  -2  -9 -11   47.28    6.42
   2   9  12   78.35    7.65
  -2  -9 -12   47.62    6.73
  -2  -9 -12   44.38    4.38
  -2  -9 -13   -0.63    4.90
  -2  -9 -13    6.32    5.17
  -2  -9 -14    9.22    9.31
  -2  -9 -14   10.60    3.67
  -2  -9 -15   35.04    4.80
  -2  -9 -15   44.27   11.70
  -2  -9 -16    3.16    3.84
  -2  -9 -16   -0.46    9.09
  -2  -9 -17    8.96    7.44
  -2  -9 -17   12.68    6.29
  -2  -9 -18    5.00    5.78
  -2  -9 -18    0.06    4.23
   2  10 -26   51.65   11.73
  -2 -10  26   55.09   11.35
   2  10 -25   85.46   12.37
  -2 -10  25   62.46   19.93
   2  10 -24   69.11   11.32
  -2 -10  24   62.67   11.25
   2  10 -23   48.49    9.09
  -2 -10  23   27.50    9.34
   2  10 -22    2.84    6.75
  -2 -10  22    6.88    6.73
   2  10 -21    1.83    5.99
  -2 -10  21   -0.80    6.03
   2  10 -20    3.07   10.21
  -2 -10  20    5.30   10.70
   2  10 -19   22.03   12.20
  -2 -10  19   35.37    7.65
   2  10 -18   50.36   13.26
  -2 -10  18   61.07    8.54
   2  10 -17    9.40    8.08
  -2 -10  17   -3.26    5.11
   2  10 -16   59.10   12.27
  -2 -10  16   66.56   13.24
   2  10 -15  122.77    9.57
  -2 -10  15  169.08   17.04
   2  10 -14  182.75   10.63
  -2 -10  14  209.60   12.18
   2  10 -13   -3.18    3.75
  -2 -10  13    5.06    4.46
   2  10 -12  121.17    7.34
  -2 -10  12  124.21    8.77
   2  10 -11  432.29   22.19
  -2 -10  11  464.65   17.61
   2  10 -10   79.39    5.17
  -2 -10  10   80.59   10.94
   2  10  -9   17.17    3.28
  -2 -10   9   28.89    4.39
   2  10  -8  108.40    4.65
  -2 -10   8  113.44    6.18
   2  10  -7   45.27    2.97
  -2 -10   7   53.58    4.18
   2  10  -6   13.36    1.99
  -2 -10   6   21.41    2.89
   2  10  -5   -2.73    2.28
  -2 -10   5    5.55    2.05
   2  10  -4    1.87    1.84
  -2 -10   4    1.55    1.75
   2  10  -3    8.74    3.84
   2  10  -3    3.03    0.91
  -2 -10   3    7.59    2.25
   2  10  -2   -0.27    0.90
   2  10  -2    0.89    3.34
  -2 -10   2    1.74    1.30
   2  10  -1   51.40    5.28
   2  10   0   16.82    4.22
   2  10   1   -2.55    3.74
   2  10   2  634.20   32.14
   2  10   3  449.75   17.42
   2  10   4  709.02   26.25
   2  10   5   44.56    5.59
  -2 -10  -5   43.59    0.92
  -2 -10  -5   39.48    0.84
  -2 -10  -5   41.37    5.82
   2  10   6   10.77    4.69
  -2 -10  -6   10.30    1.77
  -2 -10  -6    9.85    0.84
  -2 -10  -6   13.34    4.82
   2  10   7   20.97    5.25
  -2 -10  -7   17.32    1.61
  -2 -10  -7   17.92    1.19
  -2 -10  -7   18.68    8.74
   2  10   8   50.97    6.68
  -2 -10  -8   51.38    1.86
  -2 -10  -8   39.92    2.49
  -2 -10  -8   57.88    6.39
   2  10   9   17.86    5.76
  -2 -10  -9   23.87    1.89
  -2 -10  -9   31.24    2.47
  -2 -10  -9   26.95    5.66
   2  10  10  193.98   11.92
  -2 -10 -10  175.27    5.04
  -2 -10 -10  195.42    6.16
  -2 -10 -10  211.91   11.14
   2  10  11    2.63    8.29
  -2 -10 -11    0.85    1.79
  -2 -10 -11    1.00    7.55
  -2 -10 -11   -2.05    2.33
   2  10  12   30.91    6.94
  -2 -10 -12   42.43    6.48
  -2 -10 -12   21.68    5.73
  -2 -10 -13    0.44    4.94
  -2 -10 -13    1.38    4.64
  -2 -10 -14   55.51    4.89
  -2 -10 -14   84.31    8.40
  -2 -10 -15   -2.25    3.27
  -2 -10 -15    8.84    5.38
  -2 -10 -16   -3.52    5.62
  -2 -10 -16    0.25    3.53
  -2 -10 -17   22.75    7.97
  -2 -10 -17   34.73    7.74
   2  11 -26   15.43    9.38
  -2 -11  26   18.91    8.91
   2  11 -25   40.15    9.98
  -2 -11  25   26.93    9.62
   2  11 -24   51.87    9.88
  -2 -11  24   21.53   15.92
   2  11 -23   33.68    8.93
  -2 -11  23   38.85    9.24
   2  11 -22   23.05    7.88
  -2 -11  22   25.77    8.05
   2  11 -21   12.23    7.33
  -2 -11  21   29.78    7.57
   2  11 -20   26.62    7.55
  -2 -11  20   36.51    7.93
   2  11 -19    6.32    5.88
  -2 -11  19    3.65    9.99
   2  11 -18   31.86    6.99
  -2 -11  18   34.74    7.43
   2  11 -17    6.83    5.36
  -2 -11  17   10.48    5.84
   2  11 -16   -4.04    4.62
  -2 -11  16   -4.38    5.22
   2  11 -15   82.78    7.64
  -2 -11  15   75.91    8.31
   2  11 -14  232.40   12.17
  -2 -11  14  268.51   13.73
   2  11 -13   97.98    7.24
  -2 -11  13  103.23   13.25
   2  11 -12   11.61    6.16
  -2 -11  12   -5.33    7.53
   2  11 -11   34.11    4.38
  -2 -11  11   47.88    5.43
   2  11 -10  145.44    6.89
  -2 -11  10  176.87    8.45
   2  11  -9   37.99    3.45
  -2 -11   9   43.99    4.69
   2  11  -8   17.92    4.41
  -2 -11   8   20.92    3.62
   2  11  -7   84.61    5.76
  -2 -11   7  100.52    4.87
   2  11  -6  164.30    6.38
  -2 -11   6  152.59    5.47
   2  11  -5  214.47    4.72
  -2 -11   5  219.13    8.55
   2  11  -4  378.60   15.21
   2  11  -4  379.80    8.55
  -2 -11   4  364.35    7.62
   2  11  -3  468.36    7.54
   2  11  -3  470.08   17.80
  -2 -11   3  477.22    8.34
   2  11  -2  256.89   11.69
   2  11  -1  118.76   12.99
   2  11   0   44.17    5.61
   2  11   1   64.90    6.50
   2  11   2  251.34   12.49
   2  11   3 1197.05   45.90
   2  11   4  454.97   19.06
   2  11   5  379.70   16.77
   2  11   6   11.26    5.05
  -2 -11  -6   14.67    5.05
   2  11   7    5.59    4.85
  -2 -11  -7    5.14    1.05
  -2 -11  -7    3.34    0.91
  -2 -11  -7    6.00    4.82
   2  11   8    2.60    4.71
  -2 -11  -8    0.68    1.61
  -2 -11  -8    0.56    1.29
  -2 -11  -8    4.08    4.53
   2  11   9   83.89    7.96
  -2 -11  -9   68.43    2.48
  -2 -11  -9   69.83    2.05
  -2 -11  -9   82.35   12.80
   2  11  10    7.23    4.87
  -2 -11 -10    1.91    1.73
  -2 -11 -10   -0.46    1.32
  -2 -11 -10    3.83    4.75
   2  11  11   22.98   10.49
  -2 -11 -11   30.69    2.67
  -2 -11 -11   13.63    2.04
  -2 -11 -11   24.45    6.19
   2  11  12    6.78    6.16
  -2 -11 -12    5.07    3.35
  -2 -11 -12   14.13    5.48
  -2 -11 -12    6.42    2.60
   2  11  13   12.45    7.40
  -2 -11 -13   24.36    2.73
  -2 -11 -13   19.56    3.28
  -2 -11 -13   33.61    6.48
  -2 -11 -14    0.94    2.70
  -2 -11 -14    2.57    2.31
  -2 -11 -14   -8.11    5.37
  -2 -11 -15   12.58   10.93
  -2 -11 -16   27.44   12.70
   2  12 -25    7.37    8.43
  -2 -12  25   13.66    8.23
   2  12 -24   -0.95    7.09
  -2 -12  24    3.56    6.92
   2  12 -23    8.77    7.05
  -2 -12  23   -2.86   11.92
   2  12 -22   23.54    7.36
  -2 -12  22    4.37    7.41
   2  12 -21   49.03    8.79
  -2 -12  21   45.59    9.23
   2  12 -20   30.59    7.19
  -2 -12  20   15.67    7.49
   2  12 -19   47.01    7.89
  -2 -12  19   49.02    8.28
   2  12 -18   10.83    5.22
  -2 -12  18   -6.42    5.59
   2  12 -17    8.50    5.15
  -2 -12  17    1.52    9.45
   2  12 -16   12.61    5.46
  -2 -12  16   34.14   10.14
   2  12 -15    7.64    4.73
  -2 -12  15   13.05    5.35
   2  12 -14   99.81    7.54
  -2 -12  14   98.02    8.52
   2  12 -13  189.99   15.41
  -2 -12  13  212.81   11.56
   2  12 -12  338.85   13.25
  -2 -12  12  393.07   15.74
   2  12 -11  123.05    6.52
  -2 -12  11  127.17    7.69
   2  12 -10   14.32    3.29
  -2 -12  10   21.22    4.09
   2  12  -9    1.74    2.54
  -2 -12   9    9.59    3.29
   2  12  -8   28.52    2.82
  -2 -12   8   32.66    3.59
   2  12  -7    4.46    1.87
  -2 -12   7    3.05    2.36
   2  12  -6   24.75    3.14
  -2 -12   6   24.57    4.02
   2  12  -5  118.39    8.59
   2  12  -5  113.44    4.19
  -2 -12   5  120.21    3.40
   2  12  -4  365.80    6.18
   2  12  -4  366.38   15.93
  -2 -12   4  360.46    6.53
   2  12  -3  554.33    8.21
   2  12  -3  608.53   22.26
  -2 -12   3  575.53    9.22
   2  12  -2  690.89   26.68
   2  12  -1  102.58    8.06
   2  12   0   60.24   10.93
   2  12   1    0.73    4.27
   2  12   2   49.42    6.46
   2  12   3   33.26    9.90
   2  12   4  315.90   15.05
   2  12   5   36.65    6.22
   2  12   6   49.37   11.31
   2  12   7   -1.62    4.77
   2  12   8   45.06    7.28
  -2 -12  -8   46.53    7.07
   2  12   9   11.36    5.08
  -2 -12  -9    1.25    0.75
  -2 -12  -9    4.91    5.19
   2  12  10   16.81    5.67
  -2 -12 -10    5.85    1.74
  -2 -12 -10    4.79    1.40
  -2 -12 -10    8.85    5.62
   2  12  11   46.34    7.91
  -2 -12 -11   32.30   12.64
   2  12  12   -3.82    6.22
  -2 -12 -12   -4.48    5.79
   2  12  13    7.80    6.89
  -2 -12 -13    4.46    6.03
  -2 -12 -14   28.70    7.66
  -2 -12 -15    1.11    6.00
   2  13 -25   -1.26    7.96
  -2 -13  25   10.18    7.65
   2  13 -24    3.94    7.57
  -2 -13  24    7.96    7.45
   2  13 -23   10.41    7.45
  -2 -13  23    9.62    7.29
   2  13 -22    4.25    6.75
  -2 -13  22    6.57    6.72
   2  13 -21   18.21    7.32
  -2 -13  21   21.52   12.22
   2  13 -20  159.37   13.02
  -2 -13  20  195.83   22.68
   2  13 -19  109.68   11.38
  -2 -13  19  163.19   12.33
   2  13 -18   61.13    8.24
  -2 -13  18   70.90    8.73
   2  13 -17    1.41    4.98
  -2 -13  17    7.17    5.38
   2  13 -16    1.24    4.52
  -2 -13  16    5.45    5.05
   2  13 -15    1.06    6.78
  -2 -13  15   -0.96    4.62
   2  13 -14   20.19    4.48
  -2 -13  14   14.62    5.26
   2  13 -13   99.68    6.79
  -2 -13  13  114.87    7.86
   2  13 -12  106.89    6.47
  -2 -13  12  113.77    7.49
   2  13 -11  103.55    5.81
  -2 -13  11  122.68    7.01
   2  13 -10  143.46    6.05
  -2 -13  10  145.84    7.15
   2  13  -9  132.37    5.43
  -2 -13   9  148.23    6.38
   2  13  -8   40.03    2.80
  -2 -13   8   40.35    3.45
   2  13  -7    3.20    1.68
  -2 -13   7    4.42    3.35
   2  13  -6   57.84    7.18
   2  13  -6   55.24    3.59
  -2 -13   6   61.64    2.64
   2  13  -5   94.47   12.80
   2  13  -5   84.19    3.20
  -2 -13   5   80.28    2.31
   2  13  -4    0.52    0.91
   2  13  -4   -5.96    4.32
  -2 -13   4    0.78    0.93
   2  13  -3  120.30    9.12
   2  13  -2  111.74   14.11
   2  13  -1  117.34    8.78
   2  13   0   12.74    5.00
   2  13   1   29.38    9.66
   2  13   2   50.94    6.74
   2  13   3   -0.28    4.45
   2  13   4   -0.43    4.66
   2  13   5   15.40    5.59
   2  13   6   23.24   10.65
   2  13   7   -1.67    5.11
   2  13   8   13.30    6.19
   2  13   9   45.84    7.97
  -2 -13  -9   48.21    7.78
   2  13  10    8.60    6.01
  -2 -13 -10    4.00    5.95
   2  13  11   -9.60    5.89
  -2 -13 -11    4.56    5.96
   2  13  12   18.56    7.31
  -2 -13 -12    6.01    6.94
   2  13  13   -0.23    6.97
  -2 -13 -13   -3.93    6.35
  -2 -13 -14    7.72   11.59
   2  14 -24   10.21   12.34
  -2 -14  24    3.27    7.51
   2  14 -23   18.34   13.07
  -2 -14  23   15.83    7.91
   2  14 -22   13.11    7.12
  -2 -14  22    9.70    7.20
   2  14 -21   36.67    7.66
  -2 -14  21   16.66    7.74
   2  14 -20   25.50    7.08
  -2 -14  20   16.62    7.21
   2  14 -19   86.14   16.19
  -2 -14  19  104.64   10.37
   2  14 -18   71.80   13.35
  -2 -14  18   61.23   14.25
   2  14 -17   62.17   12.81
  -2 -14  17   91.44   14.69
   2  14 -16   22.38    5.34
  -2 -14  16   18.57   10.34
   2  14 -15   -4.71    4.13
  -2 -14  15   10.21    8.03
   2  14 -14    1.06    3.85
  -2 -14  14   15.81    7.60
   2  14 -13   -1.81    5.94
  -2 -14  13   12.34    7.09
   2  14 -12    5.29    3.29
  -2 -14  12    5.89    6.47
   2  14 -11    4.13    2.92
  -2 -14  11    9.31    5.55
   2  14 -10   -2.98    2.38
  -2 -14  10    3.74    2.69
   2  14  -9   30.48    5.14
  -2 -14   9   48.05    3.54
   2  14  -8   51.03    4.72
  -2 -14   8   56.87    5.35
   2  14  -7   -0.71    4.94
   2  14  -7   -0.39    1.55
  -2 -14   7    4.87    1.64
   2  14  -6   70.92   12.77
   2  14  -6   64.04    2.12
  -2 -14   6   60.60    2.18
   2  14  -5  222.99    4.70
   2  14  -5  235.45   12.28
  -2 -14   5  217.89    4.45
   2  14  -4  122.54    9.42
   2  14  -3   62.12    7.41
   2  14  -2    4.03    4.77
   2  14  -1    5.19    8.22
   2  14   0    0.51    4.52
   2  14   1   24.98    5.89
   2  14   2   -3.02    4.84
   2  14   3   27.32    6.15
   2  14   5    5.84    5.52
   2  14   6   -3.43    5.61
   2  14   7    6.20    5.84
   2  14   8   26.30    7.38
   2  14   9   10.91    6.45
   2  14  10   50.78    8.97
   2  14  11   -2.84    6.59
  -2 -14 -11   12.31    6.35
   2  14  12    4.30    7.67
  -2 -14 -12   18.81    7.14
   2  14  13    6.11    7.10
  -2 -14 -13   -5.37    6.38
   2  15 -23  -12.09    7.09
  -2 -15  23    5.15   11.71
   2  15 -22    0.44    6.47
  -2 -15  22   13.98   11.37
   2  15 -21   15.05    6.88
  -2 -15  21   12.67    7.22
   2  15 -20   -2.90    5.58
  -2 -15  20    8.91    6.06
   2  15 -19    5.05    5.48
  -2 -15  19    3.61    6.01
   2  15 -18   23.40    6.23
  -2 -15  18   23.71    6.94
   2  15 -17    8.76    4.91
  -2 -15  17    1.29    5.48
   2  15 -16    4.09    4.60
  -2 -15  16    7.73    5.12
   2  15 -15    6.18    4.41
  -2 -15  15   11.47    4.81
   2  15 -14   15.89    7.31
  -2 -15  14   19.14    4.90
   2  15 -13    0.88    3.30
  -2 -15  13    0.26    3.60
   2  15 -12    3.76    3.13
  -2 -15  12    4.85    3.49
   2  15 -11  111.78    5.51
  -2 -15  11  115.44    9.69
   2  15 -10   56.38    6.00
  -2 -15  10   50.69    3.93
   2  15  -9    5.85    3.72
  -2 -15   9    9.03    2.38
   2  15  -8   13.54    5.66
   2  15  -8   10.18    3.19
  -2 -15   8    9.33    2.00
   2  15  -7   23.23   10.33
   2  15  -7   20.12    1.74
  -2 -15   7   16.36    2.69
   2  15  -6   -1.36    1.55
   2  15  -6   -1.96    4.91
   2  15  -5    4.15    8.43
   2  15  -4   50.88    7.29
   2  15  -3   12.13    5.52
   2  15  -2   -0.31    4.63
   2  15  -1    4.52    5.21
   2  15   0    6.79    8.78
   2  15   1   -2.55    5.16
   2  15   2   36.47   11.68
   2  15   3   85.60    9.07
   2  15   4   63.52    8.43
   2  15   5   31.69    7.34
   2  15   6   -4.58    5.97
   2  15   7   -0.09    5.63
   2  15   8   -1.81    6.16
   2  15   9    8.47    7.03
   2  15  10   10.30    7.32
   2  15  11   24.64    8.54
   2  16 -22    2.76    6.78
  -2 -16  22   11.24    6.99
   2  16 -21    7.40    6.25
  -2 -16  21    2.41    6.58
   2  16 -20    1.01    5.52
  -2 -16  20    0.60    5.92
   2  16 -19   11.02    5.63
  -2 -16  19    3.29    6.09
   2  16 -18    0.74    5.00
  -2 -16  18   12.80    9.26
   2  16 -17  -10.03    5.03
  -2 -16  17   -1.90    9.05
   2  16 -16   -0.83    7.01
  -2 -16  16   -2.28    7.61
   2  16 -15   22.61    4.86
  -2 -16  15   23.87    5.30
   2  16 -14   29.57    4.81
  -2 -16  14   30.62    5.12
   2  16 -13   64.65    8.56
  -2 -16  13   60.95    5.70
   2  16 -12    5.61    3.07
  -2 -16  12    2.35    3.31
   2  16 -11    3.28    4.45
  -2 -16  11    3.47    4.63
   2  16 -10   17.31    4.30
  -2 -16  10   14.06    2.77
   2  16  -9    6.10    5.61
   2  16  -9   -4.48    3.14
  -2 -16   9   -2.89    3.27
   2  16  -8    1.99    9.37
   2  16  -8    1.94    1.57
  -2 -16   8    3.27    2.48
   2  16  -7   21.46    1.41
   2  16  -7   22.01    6.54
   2  16  -6    4.72    9.23
   2  16  -5   35.35    7.11
   2  16  -4   43.65   12.59
   2  16  -3   65.48    8.31
   2  16  -2   50.82    7.73
   2  16  -1   10.36    6.01
   2  16   0   16.77    6.19
   2  16   1    7.04    5.89
   2  16   2   10.22    6.15
   2  16   3   30.22    7.46
   2  16   4   42.25    8.12
   2  16   5   39.66    8.01
   2  16   6   11.92    6.99
   2  16   7   -5.22   11.06
   2  16   8    6.71    7.04
   2  16   9   -1.95   11.32
   2  17 -21   -5.45    6.30
  -2 -17  21   -5.77    6.73
   2  17 -20   10.12    6.38
  -2 -17  20   13.44    6.88
   2  17 -19   -5.07    8.84
  -2 -17  19    5.21    5.83
   2  17 -18    8.70    8.80
  -2 -17  18    7.69    5.66
   2  17 -17    6.44    4.74
  -2 -17  17    2.56    5.15
   2  17 -16    0.75    4.22
  -2 -17  16    5.52    4.58
   2  17 -15    4.95    3.98
  -2 -17  15   -5.36    6.80
   2  17 -14   58.03    5.65
  -2 -17  14   83.25    9.36
   2  17 -13   66.27    5.42
  -2 -17  13   80.64    5.49
   2  17 -12  107.31    5.87
  -2 -17  12  126.60    6.09
   2  17 -11   42.01    7.99
   2  17 -11   33.09    5.43
  -2 -17  11   22.89    5.17
   2  17 -10   85.74    9.70
   2  17 -10   63.71    5.74
  -2 -17  10   68.01    3.46
   2  17  -9   -8.27   10.78
   2  17  -9   10.25    2.98
  -2 -17   9    8.44    1.82
   2  17  -8   11.52    2.40
   2  17  -8   42.91    6.64
   2  17  -7    7.92   10.04
   2  17  -6    6.03    5.79
   2  17  -5    5.43   10.01
   2  17  -4   38.33    7.66
   2  17  -3   64.11   14.27
   2  17  -2   90.98   10.10
   2  17  -1   14.05   11.11
   2  17   0   -6.09    6.01
   2  17   1   32.76   12.88
   2  17   2   22.97    7.32
   2  17   3    4.33   10.38
   2  17   4   14.15    6.99
   2  17   5    1.04   10.75
   2  17   6   10.97    7.31
   2  17   7    2.95   11.93
   2  18 -19   45.47    7.28
  -2 -18  19   28.59    7.66
   2  18 -18   17.14    5.74
  -2 -18  18   13.66    6.00
   2  18 -17    8.13    5.53
  -2 -18  17   25.98    5.53
   2  18 -16   -4.70    6.91
  -2 -18  16    0.44    4.18
   2  18 -15    9.74    4.22
  -2 -18  15    7.02    4.17
   2  18 -14   -0.63    3.43
  -2 -18  14    7.44    5.65
   2  18 -13   53.78    4.53
  -2 -18  13   33.68    4.28
   2  18 -12   21.03    7.70
   2  18 -12   11.36    5.17
  -2 -18  12   17.11    3.01
   2  18 -11   58.05    9.68
   2  18 -11   51.05    5.77
  -2 -18  11   51.52    3.38
   2  18 -10   25.65    7.77
   2  18  -9   64.74    9.61
   2  18  -8   17.08   11.64
   2  18  -7   24.30    7.64
   2  18  -6   18.51   11.98
   2  18  -5   22.15    7.29
   2  18  -4   16.51    7.05
   2  18  -3   13.42    6.77
   2  18  -2   16.88    7.18
   2  18  -1   15.04    7.36
   2  18   0  -12.70    6.84
   2  18   1    9.27    6.98
   2  18   2   23.37    7.84
   2  18   3   10.07    7.35
   2  18   4    6.87    7.15
   2  18   5    3.56    7.11
   2  19 -17   -4.61    4.55
  -2 -19  17    0.43    4.29
   2  19 -16    4.23    4.48
  -2 -19  16    8.64    4.09
   2  19 -15    4.41    5.78
  -2 -19  15   -1.52    3.36
   2  19 -14    9.35    7.70
   2  19 -14    8.66    3.59
  -2 -19  14    4.71    5.44
   2  19 -13    3.36    7.32
   2  19 -12    0.14    6.81
   2  19 -11    7.54    7.40
   2  19 -10    3.48    6.61
   2  19  -9   -6.57   11.78
   2  19  -8   34.46    8.79
   2  19  -7    1.84   11.09
   2  19  -6   13.30    7.17
   2  19  -5   33.07    8.63
   2  19  -4   24.37    8.20
   2  19  -3   16.33    7.52
   2  19  -2    7.81    7.18
   2  19  -1   -1.56    6.64
   2  19   0    7.64    7.15
   2  19   1   -2.95    6.82
   2  19   2    8.51   12.42
   2  20 -12   24.07    9.05
   2  20 -11    7.97    7.53
   2  20 -10   -1.45    7.03
   2  20  -9    5.64    7.43
   2  20  -8  -13.39   13.44
   2  20  -7   26.82    9.11
   2  20  -6    4.26    7.27
   2  20  -5    7.77    7.56
   2  20  -4   -6.19    7.31
   2  20  -3   13.63    8.00
   2  20  -2    2.90    7.29
   2  20  -1    6.36   12.53
  -3  21   0   15.69    7.62
  -3  21  -1   34.87    8.22
  -3  21  -2    1.60    6.24
  -3  21  -3   26.06   12.71
  -3  20   4    6.26    7.35
  -3  20   3   12.33    7.53
  -3  20   2   29.11    8.14
  -3  20   1    0.53    6.18
  -3  20   0   19.99   12.52
  -3  20  -1   -6.54    6.24
  -3  20  -2   43.47    7.92
  -3  20 -10   38.85    7.72
  -3  20 -10   28.23    7.51
  -3  20 -11   -2.22    6.52
  -3  20 -11   -5.57    3.75
  -3  20 -12   22.26    8.33
  -3  20 -12   19.20    5.07
  -3  20 -13   13.92    7.22
  -3  20 -13   -2.65    4.44
  -3  20 -14    6.59    4.88
  -3  20 -14   10.19    5.14
  -3  20 -15   15.60    5.92
  -3  19   6    1.83    6.93
  -3  19   5   24.46   13.83
  -3  19   4   16.61    7.68
  -3  19   3    5.73   10.88
  -3  19   2   -1.39    5.87
  -3  19   1   18.65    6.95
  -3  19   0    7.43    5.82
  -3  19  -1   27.88    6.93
  -3  19  -2    6.11    9.28
  -3  19  -3   48.72    7.56
  -3  19  -4   -8.26    9.02
  -3  19  -5   37.34    6.72
  -3  19  -6   11.74    5.52
  -3  19  -6    7.95    4.19
  -3  19  -6   11.16    2.68
  -3  19  -7    7.57    2.98
  -3  19  -7    8.36    5.15
  -3  19  -7   10.73    4.60
  -3  19  -8   22.50    5.69
  -3  19  -8   17.10    5.65
  -3  19  -8   16.98    3.69
  -3  19  -9   17.47    6.29
  -3  19  -9   19.71    9.44
  -3  19  -9   20.50    4.05
  -3  19 -10    8.40    3.65
  -3  19 -10    1.62    4.85
  -3  19 -10    6.04    3.90
  -3  19 -11   87.36    7.11
  -3  19 -11   89.59    6.89
  -3  19 -12    2.15    6.87
  -3  19 -12    6.34    4.54
  -3  19 -13   70.36    6.58
  -3  19 -13   36.73    6.80
  -3  19 -14    7.97    4.57
  -3  19 -14   -0.71    5.06
  -3  19 -15   14.53    6.14
  -3  19 -16    6.44    9.75
  -3  19 -17  -16.84   11.18
   3 -18  -9   -6.44    7.04
  -3  18   9   -0.84    7.92
  -3  18   8   29.68   15.63
  -3  18   7    4.51    7.03
  -3  18   6   13.91    7.43
  -3  18   5   20.43    7.44
  -3  18   4    2.06    6.06
  -3  18   3   21.63   11.69
  -3  18   2   -4.44    5.70
  -3  18   1    5.78    9.44
  -3  18   0   33.22    6.76
  -3  18  -1   38.38    6.94
  -3  18  -2    4.67    4.93
  -3  18  -3   10.09    1.92
  -3  18  -3   16.16    5.16
  -3  18  -3    7.78    1.72
  -3  18  -4   83.67    7.76
  -3  18  -4   70.85    3.53
  -3  18  -4   69.40    5.21
  -3  18  -5   19.17    5.34
  -3  18  -5    9.83    2.72
  -3  18  -5   13.91    2.53
  -3  18  -6   97.94    5.41
  -3  18  -6  135.14    8.88
  -3  18  -6  124.99    7.90
  -3  18  -7    2.84    4.69
  -3  18  -7    4.53    4.61
  -3  18  -7    6.01    2.98
  -3  18  -8   40.09    6.80
  -3  18  -8   28.29   10.05
  -3  18  -8   42.56    4.42
  -3  18  -9    1.93    3.52
  -3  18  -9    2.26    5.38
  -3  18  -9    3.85    4.36
  -3  18 -10   62.86    6.68
  -3  18 -10   93.92    6.24
  -3  18 -10   91.30   11.61
  -3  18 -11   12.27    3.86
  -3  18 -11   -5.26    4.28
  -3  18 -11    6.37    4.39
  -3  18 -12   90.59    7.19
  -3  18 -12   84.37    7.27
  -3  18 -12   76.84    7.78
  -3  18 -13    2.32    4.16
  -3  18 -13    4.74    7.96
  -3  18 -14  126.91    9.97
  -3  18 -15   18.59    6.26
  -3  18 -16   78.45    9.57
  -3  18 -17    6.15    6.24
  -3  18 -18   14.11   11.89
   3 -17 -11   10.93    7.37
   3 -17 -10   10.87   13.93
  -3  17  10   38.67    9.70
   3 -17  -9    7.28    6.04
  -3  17   9   -8.32    7.04
   3 -17  -8    7.81    6.25
  -3  17   8   -2.08   11.58
   3 -17  -7    9.43    6.33
  -3  17   7    6.84    6.86
  -3  17   6   -1.01    6.01
  -3  17   5  -11.20    6.37
  -3  17   4   26.44    7.21
  -3  17   3   -3.68    5.42
  -3  17   2    7.36    5.52
  -3  17   1   74.05    8.15
  -3  17   0    0.95    1.70
  -3  17   0   -0.04    4.69
  -3  17   0   -0.23    1.43
  -3  17  -1   33.63   10.19
  -3  17  -1   32.71    1.78
  -3  17  -1   32.70    3.05
  -3  17  -2   14.31    3.24
  -3  17  -2   24.57    5.34
  -3  17  -2   13.00    3.07
  -3  17  -3    7.49    3.53
  -3  17  -3   23.47    8.18
  -3  17  -3    9.69    2.02
  -3  17  -4    2.35    4.43
  -3  17  -4    0.95    2.06
  -3  17  -4    4.65    3.58
  -3  17  -5  181.12   15.98
  -3  17  -5  151.64    9.86
  -3  17  -5  171.22    6.03
  -3  17  -6   45.13    5.98
  -3  17  -6   40.28    5.75
  -3  17  -6   38.30    3.92
  -3  17  -7  234.39   16.99
  -3  17  -7  211.51   11.76
  -3  17  -7  188.47    8.43
  -3  17  -8   13.30    5.51
  -3  17  -8   11.86    4.55
  -3  17  -8    9.49    3.70
  -3  17  -9  108.29    6.29
  -3  17  -9   86.56    6.73
  -3  17  -9  100.64   11.97
  -3  17 -10    1.63    3.89
  -3  17 -10   -3.68    3.46
  -3  17 -10   -2.96    6.45
  -3  17 -11   72.43   10.00
  -3  17 -11   71.82    5.92
  -3  17 -11   39.81   10.96
  -3  17 -12    5.07    4.53
  -3  17 -12    2.23    3.81
  -3  17 -13   31.54    6.22
  -3  17 -13   30.46    5.20
  -3  17 -14    3.91    5.28
  -3  17 -14    8.14    4.23
  -3  17 -15   77.73   15.01
  -3  17 -15   85.75    7.15
  -3  17 -16    6.72    9.79
  -3  17 -17   93.69   10.49
  -3  17 -18    4.50    6.44
  -3  17 -19   11.81    7.38
  -3  17 -20   28.41   14.70
   3 -16 -12   13.53    7.19
   3 -16 -11   14.78    7.00
   3 -16 -10   -0.13    5.86
  -3  16  10    4.64    7.13
   3 -16  -9    4.72    5.99
  -3  16   9    6.81    6.95
   3 -16  -8   24.43   11.58
  -3  16   8   30.39   13.02
   3 -16  -7    9.24    6.25
  -3  16   7   17.83    6.68
   3 -16  -6   73.56    8.79
  -3  16   6   75.55   15.40
   3 -16  -5   -0.18    5.00
  -3  16   5    3.18    5.39
  -3  16   4    0.35    5.19
  -3  16   3   20.59    5.57
  -3  16   3    9.79    1.47
  -3  16   3    9.15    0.74
  -3  16   2   54.10    1.62
  -3  16   2   69.61    7.72
  -3  16   2   63.87    1.72
  -3  16   1   24.22    2.40
  -3  16   1   30.77    5.95
  -3  16   1   28.14    2.41
  -3  16   0  175.05    5.65
  -3  16   0  179.34   10.67
  -3  16   0  148.47    5.61
  -3  16  -1    7.44    2.93
  -3  16  -1   17.48    4.77
  -3  16  -1   10.04    1.75
  -3  16  -2   60.05    6.11
  -3  16  -2   39.58    2.64
  -3  16  -2   48.36    2.57
  -3  16  -3    5.47    2.19
  -3  16  -3    8.66    4.45
  -3  16  -3    9.18    3.31
  -3  16  -4   26.81    5.21
  -3  16  -4   27.06    2.80
  -3  16  -4   30.01    4.72
  -3  16  -5    7.19    4.26
  -3  16  -5   -1.62    4.43
  -3  16  -5    9.32    2.41
  -3  16  -6   75.74    4.48
  -3  16  -6   67.00   10.52
  -3  16  -6   75.16    4.74
  -3  16  -7   -3.66    2.84
  -3  16  -7   -4.32    3.99
  -3  16  -7   -3.60    3.07
  -3  16  -8  128.71    6.24
  -3  16  -8  102.43   11.80
  -3  16  -8  101.39    6.37
  -3  16  -9    9.65    3.69
  -3  16  -9   18.80    4.08
  -3  16  -9    5.92    6.97
  -3  16 -10  106.54    7.30
  -3  16 -10   76.89    6.18
  -3  16 -10   99.51   10.68
  -3  16 -11   -1.43    3.46
  -3  16 -11   -0.34    4.21
  -3  16 -12    4.49    6.02
  -3  16 -12   -5.31    4.48
  -3  16 -13   17.57   10.01
  -3  16 -13   24.32    4.60
  -3  16 -14    6.00    5.09
  -3  16 -14    1.84    3.65
  -3  16 -15   14.82    6.20
  -3  16 -16   88.32    9.83
  -3  16 -17    7.02   10.69
  -3  16 -18   60.83    9.65
  -3  16 -19   28.74    8.41
  -3  16 -20    6.75    7.40
  -3  16 -21   26.43   15.30
   3 -15 -14   -1.41    6.64
   3 -15 -13   51.20    9.52
   3 -15 -12   10.22    6.77
   3 -15 -11   32.47    7.76
   3 -15 -10    8.86    9.33
  -3  15  10   -3.08    6.50
   3 -15  -9   30.15    6.85
  -3  15   9   30.18    8.09
   3 -15  -8   35.59    6.90
  -3  15   8   29.48   12.92
   3 -15  -7  160.31   11.07
  -3  15   7  198.19   12.21
  -3  15   7  142.37    4.56
   3 -15  -6  125.77   14.78
  -3  15   6  129.67   16.08
  -3  15   6   98.55    2.65
   3 -15  -5  114.12    8.58
  -3  15   5  123.10    9.09
  -3  15   5   89.50    3.75
  -3  15   5   82.32    2.79
   3 -15  -4    0.05    4.65
  -3  15   4    4.63    1.53
  -3  15   4    1.40    1.21
  -3  15   4   13.12    5.06
  -3  15   3   -0.78    5.05
  -3  15   3    6.54    1.25
  -3  15   3    7.10    1.11
  -3  15   2   13.01    4.97
  -3  15   2    9.71    1.37
  -3  15   2   10.39    2.18
  -3  15   1   76.83    2.56
  -3  15   1   73.52    3.79
  -3  15   1   89.71    7.35
  -3  15   0   28.07    1.95
  -3  15   0   23.89    1.95
  -3  15   0   14.59    8.89
  -3  15  -1   51.01    5.84
  -3  15  -1   47.45    2.52
  -3  15  -1   47.39    2.47
  -3  15  -2   14.36    7.04
  -3  15  -2    6.59    1.86
  -3  15  -2    4.45    3.34
  -3  15  -3    9.17    4.19
  -3  15  -3    7.71    3.57
  -3  15  -3   13.91    2.38
  -3  15  -4   15.92    4.30
  -3  15  -4   19.23    4.29
  -3  15  -4   13.41    2.45
  -3  15  -5   10.54    4.02
  -3  15  -5    9.41    2.54
  -3  15  -5    5.87    2.70
  -3  15  -6  154.34    6.11
  -3  15  -6  152.80    8.03
  -3  15  -6  134.15    6.20
  -3  15  -7    5.70    5.09
  -3  15  -7    4.91    2.93
  -3  15  -7   11.64    3.79
  -3  15  -8   48.29    4.50
  -3  15  -8   54.19    4.98
  -3  15  -8   43.92    4.75
  -3  15  -9   74.71    9.11
  -3  15  -9   68.97    5.44
  -3  15  -9   79.59    6.02
  -3  15 -10    6.97    3.50
  -3  15 -10    3.85    4.12
  -3  15 -11  131.47   13.97
  -3  15 -11  111.43   11.15
  -3  15 -12    4.79    4.58
  -3  15 -12    0.32    3.37
  -3  15 -13    0.77    4.66
  -3  15 -14   32.43    6.83
  -3  15 -15    5.25    5.61
  -3  15 -16   13.15    6.42
  -3  15 -17   81.24    9.97
  -3  15 -18   -0.85   10.19
  -3  15 -19  101.59   11.84
  -3  15 -20   -1.98    6.98
  -3  15 -21   41.01   10.31
   3 -14 -15    8.22    7.21
   3 -14 -14   86.45   10.70
   3 -14 -13   47.17   14.37
   3 -14 -12   79.58    5.98
   3 -14 -12  128.34   16.76
   3 -14 -11    5.66    3.42
   3 -14 -11   25.62    6.16
  -3  14  11    8.87    3.19
   3 -14 -10    7.43    1.89
   3 -14 -10   13.21    5.80
  -3  14  10    1.35    6.94
  -3  14  10    8.15    2.09
   3 -14  -9   -0.03    4.90
   3 -14  -9    0.92    1.53
  -3  14   9    6.53    5.86
  -3  14   9   -0.48    1.86
   3 -14  -8   28.86    2.03
   3 -14  -8   36.73    6.41
  -3  14   8   22.26   12.42
  -3  14   8   31.00    3.95
   3 -14  -7   86.33    8.18
  -3  14   7   84.28    8.96
  -3  14   7   79.93    4.79
   3 -14  -6  155.31   10.24
  -3  14   6  153.26    4.12
  -3  14   6  177.62   18.39
   3 -14  -5   24.33    5.21
  -3  14   5   13.08    2.91
  -3  14   5   19.30    5.69
   3 -14  -4   67.30    6.62
  -3  14   4   37.42   11.54
  -3  14   4   49.06    2.16
   3 -14  -3   68.00    6.77
  -3  14   3   60.84    7.14
  -3  14   3   76.68    3.64
  -3  14   3   62.04    2.12
  -3  14   2    3.33    2.29
  -3  14   2   -2.60    7.00
  -3  14   2   -2.48    1.24
  -3  14   1    6.04    2.61
  -3  14   1    8.30    4.39
  -3  14   1    7.99    2.53
  -3  14   0   15.95    7.59
  -3  14   0   15.43    3.01
  -3  14   0   14.19    3.16
  -3  14  -1    4.90    1.84
  -3  14  -1    7.09    1.84
  -3  14  -1    7.26    4.06
  -3  14  -2    1.69    3.61
  -3  14  -2   -1.34    1.81
  -3  14  -2   -0.74    3.16
  -3  14  -3    2.92    3.74
  -3  14  -3    5.77    2.17
  -3  14  -3    5.72    3.52
  -3  14  -4   48.73    4.78
  -3  14  -4   39.52    4.98
  -3  14  -4   23.00    5.39
  -3  14  -5    7.85    2.55
  -3  14  -5   12.61    6.07
  -3  14  -5    6.36    2.73
  -3  14  -6   71.67    4.50
  -3  14  -6   72.41    5.55
  -3  14  -6   77.77    7.55
  -3  14  -7   95.12    5.88
  -3  14  -7  111.12    6.14
  -3  14  -7  121.50    8.81
  -3  14  -8   -0.04    2.91
  -3  14  -8   -2.76    3.07
  -3  14  -8    3.93    5.09
  -3  14  -9   42.31    8.40
  -3  14  -9   46.89    4.56
  -3  14 -10  164.90    9.43
  -3  14 -10  180.45   12.24
  -3  14 -11  121.62    8.13
  -3  14 -11  108.17    6.26
  -3  14 -12  317.47   22.40
  -3  14 -13   27.16    6.16
  -3  14 -14   75.11    8.28
  -3  14 -15    4.75    5.59
  -3  14 -16   89.10   16.43
  -3  14 -17    3.28    6.06
  -3  14 -18   82.42   10.49
  -3  14 -19   -8.50   11.79
  -3  14 -20  127.51   13.26
  -3  14 -21   18.21    8.60
  -3  14 -22  102.97   13.69
   3 -13 -17   14.55    7.85
   3 -13 -16   -7.02    6.90
   3 -13 -15    4.51    6.32
   3 -13 -15    1.78    3.04
   3 -13 -14   12.69    6.11
   3 -13 -14   -0.14    2.83
  -3  13  14    3.92    2.87
   3 -13 -13   18.08    7.29
   3 -13 -13   22.07    5.40
  -3  13  13   33.90    5.63
   3 -13 -12   22.25    2.95
   3 -13 -12   12.31    6.71
  -3  13  12   20.59    3.19
   3 -13 -11   12.93    2.53
   3 -13 -11   20.36    6.10
  -3  13  11   21.50    4.89
   3 -13 -10    5.91    5.26
   3 -13 -10    2.67    3.35
  -3  13  10    5.41    6.44
  -3  13  10    6.17    2.48
   3 -13  -9   -7.71    8.14
   3 -13  -9    1.70    1.82
  -3  13   9   -3.87    5.61
  -3  13   9    2.73    2.20
   3 -13  -8    6.23    1.80
   3 -13  -8   10.16    4.99
  -3  13   8    3.14    9.40
  -3  13   8    4.42    2.18
   3 -13  -7   58.20    6.01
   3 -13  -7   28.98    2.25
  -3  13   7   31.86    6.59
  -3  13   7   40.26    2.60
   3 -13  -6    9.37    1.73
   3 -13  -6   19.08    8.34
  -3  13   6   14.57    3.25
  -3  13   6   15.34    5.27
   3 -13  -5  167.18    9.58
  -3  13   5  171.09    6.73
  -3  13   5  173.47   10.64
   3 -13  -4   28.54    5.21
  -3  13   4   24.73    1.99
  -3  13   4   33.87    5.67
   3 -13  -3   10.86    4.23
  -3  13   3    9.04    4.49
  -3  13   3    5.82    1.56
   3 -13  -2    1.23    3.75
  -3  13   2    1.62    1.49
  -3  13   2   -6.93    6.87
  -3  13   1   82.85    4.51
  -3  13   1   73.67    4.16
  -3  13   1   56.58    6.44
  -3  13   0   -0.47    1.52
  -3  13   0    5.72    3.58
  -3  13   0    3.00    2.74
  -3  13  -1   16.29    2.11
  -3  13  -1   16.82    2.12
  -3  13  -1   15.30    4.13
  -3  13  -2    3.80    3.34
  -3  13  -2    0.98    3.24
  -3  13  -2    0.78    1.90
  -3  13  -3   21.13    6.57
  -3  13  -3   18.50    2.45
  -3  13  -3   14.67    2.54
  -3  13  -4   57.95    4.89
  -3  13  -4   59.00    5.66
  -3  13  -4   51.08    3.63
  -3  13  -5  506.64   19.48
  -3  13  -5  499.90   16.26
  -3  13  -5  478.52   13.96
  -3  13  -6   17.34    5.16
  -3  13  -6   20.17    3.42
  -3  13  -6   14.14    6.20
  -3  13  -7  189.91    7.73
  -3  13  -7  162.07    7.61
  -3  13  -7  194.20    7.46
  -3  13  -8   12.66    3.25
  -3  13  -8   12.45    6.54
  -3  13  -9   93.99    6.68
  -3  13  -9   89.64    8.74
  -3  13 -10    5.01    4.09
  -3  13 -10    7.25    3.09
  -3  13 -11  409.40   17.16
  -3  13 -12   88.08    7.83
  -3  13 -13  284.24   14.43
  -3  13 -14   54.63    7.63
  -3  13 -15  172.38   12.65
  -3  13 -16   22.87    7.15
  -3  13 -17  125.09   11.88
  -3  13 -18    8.18    6.78
  -3  13 -19   34.81    8.70
  -3  13 -20   -4.34   12.02
  -3  13 -21   92.33   12.41
  -3  13 -22   22.73    9.56
  -3  13 -23   75.63   13.12
   3 -12 -18    1.24    6.78
   3 -12 -18   -2.73    4.12
   3 -12 -17   11.33    6.66
   3 -12 -17   -3.29    3.98
  -3  12  17    5.99    3.67
   3 -12 -16   -3.96    5.99
   3 -12 -16   -1.12    3.51
  -3  12  16    0.90    5.72
   3 -12 -15   21.39    7.04
   3 -12 -15   14.17    6.58
  -3  12  15   18.95    3.95
   3 -12 -14    3.08    3.41
  -3  12  14   14.08    3.46
   3 -12 -13   -0.64    5.16
   3 -12 -13    4.87    4.52
  -3  12  13   -2.14    2.86
   3 -12 -12    8.00    2.74
   3 -12 -12   14.81    5.61
  -3  12  12    2.12    3.13
   3 -12 -11    0.12    8.39
   3 -12 -11    3.26    3.97
  -3  12  11    2.27    4.57
   3 -12 -10   -1.31    2.14
   3 -12 -10   -4.43    4.80
  -3  12  10    0.59    4.13
   3 -12  -9   27.58    5.70
   3 -12  -9   16.33    2.49
  -3  12   9   33.81    6.54
  -3  12   9   23.77    2.88
   3 -12  -8    3.56    2.01
   3 -12  -8    6.88    4.84
  -3  12   8   11.55    5.43
  -3  12   8   13.25    2.29
   3 -12  -7    6.64    3.03
   3 -12  -7   18.00    7.76
  -3  12   7    6.36    2.10
  -3  12   7    1.62    5.04
   3 -12  -6  366.00   15.40
   3 -12  -6  334.85   11.01
  -3  12   6  336.88   11.81
  -3  12   6  368.00   16.37
   3 -12  -5   14.03    1.83
   3 -12  -5    7.40    4.60
  -3  12   5   14.46    5.07
  -3  12   5    9.85    1.96
   3 -12  -4   63.21    6.48
  -3  12   4   79.05    4.64
  -3  12   4   85.71    7.24
   3 -12  -3   11.01    4.18
  -3  12   3    8.73    1.75
  -3  12   3   11.82    4.29
   3 -12  -2  176.68    8.73
  -3  12   2  163.91    4.42
  -3  12   2  182.47   14.40
   3 -12  -1  198.39    9.07
  -3  12   1  199.87    7.28
  -3  12   1  193.58    9.29
  -3  12   0  342.07   12.24
  -3  12   0  333.90    7.87
  -3  12   0  303.73    7.25
  -3  12  -1   99.49    3.63
  -3  12  -1   91.31    9.98
  -3  12  -1  100.34    3.58
  -3  12  -2   95.31    5.67
  -3  12  -2  101.98    5.75
  -3  12  -2   76.48    3.67
  -3  12  -3   74.67    4.79
  -3  12  -3   57.04    3.44
  -3  12  -3   52.89    5.61
  -3  12  -4  355.92    9.85
  -3  12  -4  349.12   16.45
  -3  12  -4  325.38    9.60
  -3  12  -5   32.27    3.34
  -3  12  -5   30.22    5.91
  -3  12  -5   37.78    3.74
  -3  12  -6  537.81   16.79
  -3  12  -6  551.21   16.73
  -3  12  -6  597.26   17.12
  -3  12  -7   38.27    3.67
  -3  12  -7   31.32    4.23
  -3  12  -8  175.71    8.17
  -3  12  -8  169.10   10.76
  -3  12  -9   14.65    6.73
  -3  12  -9    6.79    2.86
  -3  12 -10  119.04    7.73
  -3  12 -11   -2.54    4.15
  -3  12 -12   79.61    7.70
  -3  12 -13    0.97    4.63
  -3  12 -14   59.30   12.72
  -3  12 -15   15.82    6.35
  -3  12 -16  130.95   12.15
  -3  12 -17    9.55   11.33
  -3  12 -18   90.10   11.00
  -3  12 -19   22.89    8.15
  -3  12 -20   -8.66    7.53
  -3  12 -21   21.44    8.74
  -3  12 -22   31.99   10.08
  -3  12 -23   -4.34    8.37
   3 -11 -19   11.63   11.77
   3 -11 -19   -2.23    4.84
  -3  11  19   10.94    4.51
   3 -11 -18   17.39   12.27
   3 -11 -18   12.74    4.93
  -3  11  18    8.96    7.53
   3 -11 -17  -21.40   10.67
   3 -11 -17    6.22    4.13
  -3  11  17    4.87    3.95
   3 -11 -16  -11.77    9.66
   3 -11 -16    3.45    3.73
  -3  11  16    1.58    5.94
   3 -11 -15   32.37   10.94
   3 -11 -15   13.11    6.61
  -3  11  15   12.21    4.08
   3 -11 -14    5.07    3.34
   3 -11 -14    3.90    9.33
  -3  11  14    1.13    5.78
   3 -11 -13    4.25    5.14
   3 -11 -13    5.80    3.02
  -3  11  13   -0.12    3.31
   3 -11 -12   26.25    5.75
   3 -11 -12   13.16    3.29
  -3  11  12   16.11    3.66
   3 -11 -11   17.40    5.30
   3 -11 -11   12.28    2.86
  -3  11  11   13.23    5.48
   3 -11 -10   -1.56    4.62
   3 -11 -10    1.88    2.36
  -3  11  10    6.90    2.75
   3 -11  -9   -4.02    4.26
   3 -11  -9   -1.37    3.46
  -3  11   9    8.30    4.99
  -3  11   9    0.26    2.26
   3 -11  -8    4.70    3.25
   3 -11  -8   -3.03    7.26
  -3  11   8    3.78    4.75
  -3  11   8   -0.53    2.28
   3 -11  -7  418.45   14.18
   3 -11  -7  471.00   17.98
  -3  11   7  428.34   11.33
  -3  11   7  416.15   18.59
   3 -11  -6  192.06    8.01
   3 -11  -6  216.26   10.38
  -3  11   6  206.61    8.66
  -3  11   6  195.83   11.15
   3 -11  -5  422.87   13.40
   3 -11  -5  426.48   16.83
  -3  11   5  444.89   10.40
  -3  11   5  442.41   17.49
   3 -11  -4   73.37    4.89
   3 -11  -4  102.96    6.47
  -3  11   4   82.84    3.21
  -3  11   4   79.53    6.98
   3 -11  -3  136.67    7.55
  -3  11   3  149.88    8.15
  -3  11   3  144.18    4.20
   3 -11  -2   51.14    5.00
  -3  11   2   42.62    8.74
  -3  11   2   53.73    4.15
   3 -11  -1  191.98    8.39
  -3  11   1  181.46    8.60
  -3  11   1  198.69    7.39
  -3  11   0  221.70    8.61
  -3  11   0  213.88    5.76
  -3  11  -1  242.95    6.35
  -3  11  -1  236.25   13.72
  -3  11  -1  232.02    6.17
  -3  11  -2   47.23    2.96
  -3  11  -2   53.93    4.19
  -3  11  -2   52.23    2.91
  -3  11  -3   21.35    2.64
  -3  11  -3   18.17    3.23
  -3  11  -3   21.64    4.17
  -3  11  -4   14.25    4.52
  -3  11  -4   10.07    4.42
  -3  11  -4   17.21    3.05
  -3  11  -5  227.39    7.37
  -3  11  -5  207.28    7.31
  -3  11  -5  192.08    7.29
  -3  11  -6    0.57    2.66
  -3  11  -6   -0.25    4.01
  -3  11  -6    5.93    4.65
  -3  11  -7   19.15    3.53
  -3  11  -7    9.10    2.89
  -3  11  -8  135.55    7.83
  -3  11  -8  172.32    6.14
  -3  11  -9    5.55    3.85
  -3  11 -10    4.46    4.17
  -3  11 -11   58.10    6.40
  -3  11 -12   30.63    9.71
  -3  11 -13    1.28    4.83
  -3  11 -14  109.66    9.88
  -3  11 -15    6.57   10.04
  -3  11 -16   -9.10    6.32
  -3  11 -17  150.86   13.12
  -3  11 -18   14.30   12.33
  -3  11 -19   46.30    9.44
  -3  11 -20   24.14    8.57
  -3  11 -21   30.70   15.60
  -3  11 -22   16.46    9.00
  -3  11 -23   34.05   10.86
   3 -10 -20    2.11    6.95
   3 -10 -20    8.05    5.83
  -3  10  20    4.62    4.87
   3 -10 -19   12.70    7.39
   3 -10 -19   20.98    5.83
  -3  10  19   12.76    8.65
   3 -10 -18   -1.84    6.17
   3 -10 -18    0.43    4.59
  -3  10  18    4.08    4.10
   3 -10 -17    9.13    4.58
   3 -10 -17    2.21    6.41
  -3  10  17    6.32    7.35
   3 -10 -16  -14.35    5.92
   3 -10 -16   -1.69    6.84
  -3  10  16   -4.94    4.12
   3 -10 -15    3.08    3.69
   3 -10 -15   11.24    5.71
  -3  10  15    6.47    6.58
   3 -10 -14    3.47    5.77
   3 -10 -14    8.47    3.60
  -3  10  14   13.11    3.97
   3 -10 -13  101.38    8.13
   3 -10 -13   56.37    5.18
  -3  10  13   80.68    5.64
   3 -10 -12   99.30    8.14
   3 -10 -12   74.09    5.03
  -3  10  12   75.27    8.93
   3 -10 -11   63.64    4.34
   3 -10 -11   81.75    7.25
  -3  10  11   57.32    4.81
   3 -10 -10   -4.65    2.46
   3 -10 -10   -3.44    4.58
  -3  10  10   -2.71    2.79
   3 -10  -9   19.69    4.66
   3 -10  -9   26.07    5.28
  -3  10   9   21.56    3.25
   3 -10  -8   64.59    3.40
   3 -10  -8   56.69    6.30
  -3  10   8   61.02    3.88
  -3  10   8   62.52    7.29
   3 -10  -7   18.99    2.61
   3 -10  -7   37.87    5.07
  -3  10   7   35.46    2.84
  -3  10   7   34.25    5.78
   3 -10  -6  385.16    9.50
   3 -10  -6  376.54   22.68
  -3  10   6  401.41   10.15
  -3  10   6  405.91   16.20
   3 -10  -5  144.92    8.09
   3 -10  -5  157.10    4.62
  -3  10   5  165.19    7.32
  -3  10   5  140.93   14.10
   3 -10  -4  204.32    7.92
   3 -10  -4  213.14   14.60
  -3  10   4  220.44    5.65
  -3  10   4  205.19    9.84
   3 -10  -3    5.86    2.90
   3 -10  -3    1.25    3.28
  -3  10   3    8.93    3.48
  -3  10   3   -1.36    2.90
   3 -10  -2    4.48    2.95
  -3  10   2    1.58    3.20
  -3  10   2    1.48    1.70
   3 -10  -1    7.10    4.98
  -3  10   1   -2.96    2.98
  -3  10   1   -3.16    1.70
   3 -10   0   -2.69    2.64
  -3  10   0    0.82    1.72
  -3  10   0   -0.74    2.67
  -3  10  -1   -0.48    1.79
  -3  10  -1   -2.54    4.37
  -3  10  -2   -1.67    2.40
  -3  10  -2    1.21    1.89
  -3  10  -2   -0.75    1.82
  -3  10  -3   75.13    3.65
  -3  10  -3   77.96    3.78
  -3  10  -3   83.63    4.24
  -3  10  -4   10.84    2.63
  -3  10  -4   15.29    2.58
  -3  10  -4    6.80    2.62
  -3  10  -5   31.23    5.51
  -3  10  -5   33.11    3.26
  -3  10  -5   22.74    2.90
  -3  10  -6    0.02    2.12
  -3  10  -6   -0.17    2.63
  -3  10  -7  307.06   11.47
  -3  10  -7  335.20    9.04
  -3  10  -8  109.36    6.29
  -3  10  -9  262.34   11.07
  -3  10 -10   18.75    4.73
  -3  10 -11    2.12    4.38
  -3  10 -12   84.41    7.77
  -3  10 -13   45.15    7.17
  -3  10 -14    5.44    5.44
  -3  10 -15  100.58    9.85
  -3  10 -16   15.77    6.88
   3 -10  17   11.26    6.41
  -3  10 -17   15.07    7.15
   3 -10  18  130.14   12.38
  -3  10 -18  166.15   21.98
   3 -10  19   29.25    7.62
  -3  10 -19   13.00    8.08
   3 -10  20   97.10   11.82
  -3  10 -20  105.53   12.88
   3 -10  21   15.54    7.48
  -3  10 -21   -9.22   13.48
   3 -10  22   90.99   12.17
  -3  10 -22   77.97   13.15
   3 -10  23    1.21    8.00
  -3  10 -23  -12.36    8.43
   3  -9 -21   24.54    7.86
   3  -9 -21   43.37    8.64
  -3   9  21   30.13    6.53
   3  -9 -20    5.06    6.44
   3  -9 -20   15.96    7.17
  -3   9  20   13.81    5.36
   3  -9 -19    2.89    5.74
   3  -9 -19   20.93    6.73
  -3   9  19    9.39    4.89
   3  -9 -18    1.51    8.42
   3  -9 -18    5.79    6.18
  -3   9  18   13.00    7.83
   3  -9 -17   -4.22    7.39
   3  -9 -17    1.31    5.79
  -3   9  17   -5.28    4.22
   3  -9 -16   14.61    6.03
   3  -9 -16    8.89    4.58
  -3   9  16   17.74    7.75
   3  -9 -15   13.25    4.21
   3  -9 -15   11.35    5.85
  -3   9  15   15.55    4.50
   3  -9 -14    6.40    5.25
   3  -9 -14    0.60    3.57
  -3   9  14    4.27    3.75
   3  -9 -13   56.00    6.86
   3  -9 -13   39.11    7.72
  -3   9  13   45.03    5.21
   3  -9 -12  178.38    7.73
   3  -9 -12  183.66   11.12
  -3   9  12  201.86    8.52
   3  -9 -11   54.94    4.20
   3  -9 -11   60.42   11.45
  -3   9  11   63.32    4.83
   3  -9 -10    6.14    2.63
   3  -9 -10    1.82    4.50
  -3   9  10    5.00    4.99
   3  -9  -9   21.52    4.87
   3  -9  -9   11.38    4.53
  -3   9   9   20.14    5.30
   3  -9  -8  128.89    8.30
   3  -9  -8  146.37    5.16
  -3   9   8  129.06    9.71
  -3   9   8  141.18    5.62
   3  -9  -7   39.94    8.40
   3  -9  -7   35.34    2.83
  -3   9   7   37.12    4.96
  -3   9   7   31.70    5.81
   3  -9  -6   10.17    2.17
   3  -9  -6   12.66    3.98
  -3   9   6   16.23    2.32
  -3   9   6   11.65    7.53
   3  -9  -5  118.79    3.91
   3  -9  -5  121.61    6.55
  -3   9   5  113.27    4.14
  -3   9   5  115.32    7.08
   3  -9  -4   64.55    4.86
   3  -9  -4   61.50    4.69
  -3   9   4   70.85    4.78
  -3   9   4   50.99    5.13
   3  -9  -3    1.96    3.03
   3  -9  -3    3.97    3.04
  -3   9   3    5.45    1.78
  -3   9   3   10.04    5.62
   3  -9  -2   15.05    2.08
   3  -9  -2   14.81    3.28
  -3   9   2   16.64    3.28
  -3   9   2   15.94    1.99
   3  -9  -1    2.68    2.68
  -3   9   1    7.98    2.71
  -3   9   1    3.19    2.98
   3  -9   0    2.45    2.40
  -3   9   0    0.34    1.75
  -3   9   0    0.97    2.38
  -3   9  -1   -1.96    3.79
  -3   9  -1    0.91    1.76
  -3   9  -2  109.96    4.29
  -3   9  -2  117.01    7.13
  -3   9  -3    6.23    3.64
  -3   9  -3    1.09    3.66
  -3   9  -3    2.23    3.63
  -3   9  -4    0.22    3.96
  -3   9  -4    1.95    2.23
  -3   9  -4    2.98    3.43
  -3   9  -5  287.26   10.32
  -3   9  -5  285.60    8.91
  -3   9  -6   54.99    4.24
  -3   9  -6   55.23    3.04
  -3   9  -7   46.67    4.32
  -3   9  -8   80.05    5.69
  -3   9  -9   -0.06    6.14
  -3   9 -10   19.19    4.74
  -3   9 -11  206.51   17.81
  -3   9 -12  116.79    9.01
  -3   9 -13  209.93   19.45
  -3   9 -14   17.17    6.10
   3  -9  15   44.26    7.31
  -3   9 -15   44.39    7.71
   3  -9  16    4.95    5.27
  -3   9 -16   -3.10    5.78
   3  -9  17   38.51    7.96
  -3   9 -17   44.60    8.52
   3  -9  18    6.68    6.36
  -3   9 -18    7.73    6.93
   3  -9  19   87.70   10.44
  -3   9 -19   67.49   11.08
   3  -9  20   -0.42    6.38
  -3   9 -20    1.57    6.76
   3  -9  21   80.61   11.43
  -3   9 -21   70.41   20.24
   3  -9  22   16.47    7.43
  -3   9 -22   -5.12    8.09
   3  -9  23   77.30   11.60
  -3   9 -23   42.37   11.82
   3  -9  24   -5.11    7.98
  -3   9 -24   11.77    8.59
   3  -8 -22    1.78    7.68
   3  -8 -22   28.82    8.18
  -3   8  22   32.42    6.41
   3  -8 -21   33.29    8.25
   3  -8 -21   46.27    8.71
  -3   8  21   39.13    7.04
   3  -8 -20    5.59    6.43
   3  -8 -20   17.98    7.06
  -3   8  20   18.96    5.65
   3  -8 -19   37.84    7.30
   3  -8 -19   42.97   13.30
  -3   8  19   33.59   10.72
   3  -8 -18   19.88    5.61
   3  -8 -18    0.54   10.77
  -3   8  18    9.31    5.22
   3  -8 -17    4.65    9.84
   3  -8 -17    6.17    4.79
  -3   8  17    8.89    7.67
   3  -8 -16   46.36    5.99
   3  -8 -16   57.28   12.56
  -3   8  16   49.38    6.19
   3  -8 -15   52.77    5.42
   3  -8 -15   34.69   12.26
  -3   8  15   30.89    9.51
   3  -8 -14   65.24    8.94
   3  -8 -14   60.30   12.59
  -3   8  14   58.87    6.05
   3  -8 -13   11.41    7.72
   3  -8 -13   -2.17    3.23
  -3   8  13   -2.34    3.58
   3  -8 -12   -1.45    3.06
   3  -8 -12   -4.39    7.49
  -3   8  12    4.10    5.63
   3  -8 -11   37.92    5.97
   3  -8 -11   41.93    6.55
  -3   8  11   40.36    4.39
   3  -8 -10   68.08    5.95
   3  -8 -10   51.25    4.02
  -3   8  10   46.67    4.53
   3  -8  -9    7.30    4.16
   3  -8  -9    1.25    3.82
  -3   8   9    2.20    2.71
   3  -8  -8  303.11   12.21
   3  -8  -8  289.18    8.53
  -3   8   8  306.73    9.20
   3  -8  -7  254.02   15.98
   3  -8  -7  234.76    6.88
  -3   8   7  241.89    7.36
  -3   8   7  256.87   11.66
   3  -8  -6    6.42    3.37
   3  -8  -6    3.15    2.04
  -3   8   6    3.73    2.17
  -3   8   6   11.39    3.84
   3  -8  -5   58.24    7.84
   3  -8  -5   54.68    3.00
  -3   8   5   65.04    5.10
  -3   8   5   52.41    5.05
   3  -8  -4   70.02    4.81
   3  -8  -4   72.87    4.59
  -3   8   4   65.01    3.09
  -3   8   4   68.56    4.92
   3  -8  -3   76.61    3.15
   3  -8  -3   80.98    4.52
  -3   8   3   73.44    4.78
  -3   8   3   75.95    3.18
   3  -8  -2  117.14    5.11
   3  -8  -2  116.64    3.94
  -3   8   2  114.49    5.34
  -3   8   2  131.30    5.98
   3  -8  -1  325.86    9.23
   3  -8  -1  332.19    8.15
  -3   8   1  327.14   13.78
  -3   8   1  346.67    8.03
   3  -8   0  863.68   28.57
  -3   8   0  865.81   29.46
  -3   8   0  897.84   22.48
  -3   8  -1  267.62    7.02
  -3   8  -1  274.39   10.65
  -3   8  -2   62.98    3.49
  -3   8  -2   65.21    5.06
  -3   8  -3    1.84    2.08
  -3   8  -3   -1.08    2.22
  -3   8  -3    0.60    1.75
  -3   8  -4  568.97   13.22
  -3   8  -4  558.86   14.76
  -3   8  -4  611.42   16.41
  -3   8  -5  847.45   24.03
  -3   8  -5  850.16   20.15
  -3   8  -6  903.27   26.32
  -3   8  -7  344.30   11.46
  -3   8  -8   86.74    6.00
  -3   8  -9    3.11    3.66
  -3   8 -10   34.44    5.37
  -3   8 -11   86.15    7.16
  -3   8 -12  230.61   12.39
  -3   8 -13   16.08    5.48
   3  -8  14  229.74   13.02
  -3   8 -14  210.74   13.80
   3  -8  15    0.51    4.92
  -3   8 -15   -1.03    5.30
   3  -8  16   64.90    8.69
  -3   8 -16   71.43   15.73
   3  -8  17    0.06    5.66
  -3   8 -17   -3.78    6.20
   3  -8  18    6.44    6.80
  -3   8 -18   29.11    7.59
   3  -8  19   13.36    6.78
  -3   8 -19    3.56    7.42
   3  -8  20   -3.18    6.67
  -3   8 -20   11.54    7.12
   3  -8  21   -3.95    6.95
  -3   8 -21   13.10    7.43
   3  -8  22   51.67   10.01
  -3   8 -22   35.30   10.81
   3  -8  23   -5.24    7.36
  -3   8 -23    9.68    7.88
   3  -8  24   40.32   10.76
  -3   8 -24   46.69   11.74
   3  -7 -23    2.54    6.59
   3  -7 -22  -11.01    6.22
   3  -7 -22    5.83    6.26
  -3   7  22    4.97    8.90
   3  -7 -21    4.96    6.36
   3  -7 -21   10.03    6.53
  -3   7  21    6.83    5.60
   3  -7 -20   -6.44    5.78
   3  -7 -20    1.41    6.02
  -3   7  20   -0.85    8.19
   3  -7 -19   17.47    5.58
   3  -7 -19   -6.59    5.27
  -3   7  19  -11.01    4.82
   3  -7 -18   18.82    6.51
   3  -7 -18   37.67    7.03
  -3   7  18   34.75    9.87
   3  -7 -17   -2.55    4.91
   3  -7 -17    8.01    5.63
  -3   7  17   12.87    4.92
   3  -7 -16   15.76    4.68
   3  -7 -16    9.03    5.55
  -3   7  16   -2.40    8.07
   3  -7 -15   63.54    7.65
   3  -7 -15   42.46   10.08
  -3   7  15   69.68    6.57
   3  -7 -14   61.11    5.63
   3  -7 -14   60.44    7.30
  -3   7  14   58.12   10.09
   3  -7 -13  151.51    8.14
   3  -7 -13  175.02   10.57
  -3   7  13  187.28    9.09
   3  -7 -12    6.88    4.89
   3  -7 -12   13.03    3.52
  -3   7  12   12.49    3.95
   3  -7 -11   98.32    7.54
   3  -7 -11   98.98    5.48
  -3   7  11  110.17    9.92
   3  -7 -10  216.03   10.48
   3  -7 -10  201.01    7.81
  -3   7  10  223.33   12.90
   3  -7  -9    6.08    4.13
   3  -7  -9   11.90    2.77
  -3   7   9   10.83    3.04
   3  -7  -8   24.93    4.53
   3  -7  -8   30.48    4.90
  -3   7   8   24.58    3.28
   3  -7  -7   36.47    3.00
   3  -7  -7   41.12    4.49
  -3   7   7   45.49    5.31
   3  -7  -6  138.89    4.72
   3  -7  -6  132.18    6.44
  -3   7   6  152.14    7.49
  -3   7   6  136.78    7.61
   3  -7  -5  261.80    6.90
   3  -7  -5  255.31   13.44
  -3   7   5  262.99    6.99
  -3   7   5  248.97    9.77
   3  -7  -4  417.66   12.01
   3  -7  -4  404.73   13.33
  -3   7   4  406.73   13.55
  -3   7   4  404.57   12.36
   3  -7  -3  169.49    5.10
   3  -7  -3  172.82    6.01
  -3   7   3  169.83   10.23
  -3   7   3  178.39    5.00
   3  -7  -2  485.36   11.81
   3  -7  -2  482.40   17.58
  -3   7   2  495.20   13.38
  -3   7   2  493.99   11.56
   3  -7  -1 1650.60   56.34
   3  -7  -1 1638.11   57.33
  -3   7   1 1623.69   49.59
  -3   7   1 1670.33   56.20
   3  -7   0  935.92   23.15
  -3   7   0  950.03   24.41
  -3   7   0  931.29   23.61
   3  -7   1 1066.81   26.38
  -3   7  -1 1102.30   29.11
  -3   7  -1 1053.50   26.41
  -3   7  -2  697.65   17.98
  -3   7  -2  691.27   19.69
  -3   7  -3 1197.96   33.82
  -3   7  -3 1115.73   27.37
  -3   7  -4  148.01    5.41
  -3   7  -4  145.97    5.97
  -3   7  -4  143.67    3.79
  -3   7  -5  414.17   11.94
  -3   7  -5  452.52    9.22
  -3   7  -6  967.59   28.25
  -3   7  -7  326.68   10.87
  -3   7  -8  114.13   10.64
  -3   7  -9    5.83    3.79
  -3   7 -10    8.97    4.29
  -3   7 -11   68.51    6.74
  -3   7 -12    4.94    4.84
   3  -7  13   66.72    7.21
  -3   7 -13   56.39    7.37
   3  -7  14   62.52    7.38
  -3   7 -14   45.76    7.68
   3  -7  15   45.33    7.31
  -3   7 -15   38.97    7.74
   3  -7  16   22.12    6.42
  -3   7 -16   24.96   12.03
   3  -7  17   15.96    6.48
  -3   7 -17    9.58    6.93
   3  -7  18   14.59    6.41
  -3   7 -18    0.59    6.95
   3  -7  19    8.96    6.02
  -3   7 -19  -11.23    6.52
   3  -7  20   24.73    7.96
  -3   7 -20   25.60    8.83
   3  -7  21    2.35    6.78
  -3   7 -21   -9.96    7.30
   3  -7  22    4.56    7.04
  -3   7 -22   -9.48    7.50
   3  -7  23   70.45   11.93
  -3   7 -23   84.31   13.24
   3  -7  24   -0.01    7.40
  -3   7 -24   -0.23    4.19
   3  -6 -23    0.55    6.70
   3  -6 -23  -10.28    6.86
  -3   6  23   -4.30    9.99
   3  -6 -22   23.52    7.39
   3  -6 -22    6.06   12.73
  -3   6  22   19.28    6.59
   3  -6 -21   -5.17   10.41
   3  -6 -21    4.41   10.70
  -3   6  21   -9.50    5.53
   3  -6 -20   46.64    8.23
   3  -6 -20   34.33   13.01
  -3   6  20   44.78    7.30
   3  -6 -19   -4.84    8.99
   3  -6 -19   -4.60    5.50
  -3   6  19    9.18    4.93
   3  -6 -18   -3.76    5.39
   3  -6 -18   -8.16    8.52
  -3   6  18    0.19    5.06
   3  -6 -17  102.74    9.39
   3  -6 -17  125.52   10.43
  -3   6  17  149.29    9.59
   3  -6 -16   67.78    8.71
   3  -6 -16  114.39    7.83
  -3   6  16   89.33    7.87
   3  -6 -15   80.70    7.18
   3  -6 -15   84.24    8.47
  -3   6  15   97.45    7.62
   3  -6 -14   24.45    4.90
   3  -6 -14   25.80    5.97
  -3   6  14   33.12    5.24
   3  -6 -13   17.13    4.12
   3  -6 -13   23.55    5.31
  -3   6  13    7.97    7.74
   3  -6 -12    4.26    3.20
   3  -6 -12    2.29    4.34
  -3   6  12    3.74    3.67
   3  -6 -11  202.26    8.11
   3  -6 -11  193.04   10.55
  -3   6  11  209.96    8.97
   3  -6 -10   68.89    7.95
   3  -6 -10   90.47    6.62
  -3   6  10   80.16    5.44
   3  -6  -9  209.45    7.44
   3  -6  -9  210.25    9.64
  -3   6   9  207.79   12.05
   3  -6  -8   28.90    4.09
   3  -6  -8   15.24    2.84
  -3   6   8   20.85    5.21
   3  -6  -7  271.97    9.80
   3  -6  -7  276.58   11.76
  -3   6   7  287.98    8.23
   3  -6  -6  547.02   16.12
   3  -6  -6  544.04   18.42
  -3   6   6  560.12   14.29
   3  -6  -5  480.29   18.82
   3  -6  -5  470.89   15.72
  -3   6   5  500.40   12.02
  -3   6   5  390.94   13.93
   3  -6  -4  220.76    5.96
   3  -6  -4  215.62    7.01
  -3   6   4  216.15    6.14
  -3   6   4  228.24    8.06
   3  -6  -3   71.75    3.89
   3  -6  -3   75.46    3.40
  -3   6   3   73.99    4.21
  -3   6   3   84.03    5.63
   3  -6  -2  173.65    8.23
   3  -6  -2  169.96    8.05
  -3   6   2  161.41    8.62
  -3   6   2  166.08    5.04
   3  -6  -1  192.29    5.77
   3  -6  -1  197.37    5.28
  -3   6   1  194.44    5.59
  -3   6   1  184.76    8.76
   3  -6   0  418.90   10.77
   3  -6   0  427.87    9.28
  -3   6   0  434.50   13.21
  -3   6   0  424.56   14.81
   3  -6   1  687.47   14.55
  -3   6  -1  690.44   17.53
  -3   6  -1  679.19   14.64
  -3   6  -2  184.98    6.22
  -3   6  -2  185.08    4.17
  -3   6  -3   22.90    5.26
  -3   6  -3   23.96    1.65
  -3   6  -4   93.92    4.30
  -3   6  -4   87.32    2.36
  -3   6  -5  174.97    6.24
  -3   6  -6   45.69    4.05
  -3   6  -7  102.98    5.64
  -3   6  -8   42.01    4.50
  -3   6  -9   22.74    4.35
  -3   6 -10   28.93    5.13
  -3   6 -11   19.45    5.02
   3  -6  12   83.92    7.25
  -3   6 -12   59.74    7.26
   3  -6  13    8.58    4.95
  -3   6 -13    4.63    5.19
   3  -6  14   -0.90    5.10
  -3   6 -14   10.80    5.31
   3  -6  15  177.75   12.16
  -3   6 -15  177.65   12.95
   3  -6  16    9.43    5.79
  -3   6 -16   14.47   11.12
   3  -6  17   17.16    6.43
  -3   6 -17   10.05    7.03
   3  -6  18   75.94    9.18
  -3   6 -18   56.95   10.21
   3  -6  19    8.57    7.46
  -3   6 -19   35.84    7.93
   3  -6  20   10.71    6.29
  -3   6 -20   -9.98    6.86
   3  -6  21    1.35    6.52
  -3   6 -21    8.87   12.53
   3  -6  22   39.47    9.01
  -3   6 -22   35.55    5.16
  -3   6 -22   24.09    9.69
   3  -6  23   -3.65    7.03
  -3   6 -23    1.69    7.81
   3  -6  24   64.37   10.78
  -3   6 -24   45.20    6.01
   3  -5 -24    6.89    7.54
   3  -5 -24   16.97    7.45
  -3   5  24    1.09   10.98
   3  -5 -23    1.34    6.40
   3  -5 -23    0.63    6.51
  -3   5  23    4.72    5.82
   3  -5 -22   61.70    9.74
   3  -5 -22   67.80    9.61
  -3   5  22   71.17    9.06
   3  -5 -21   11.91    6.72
   3  -5 -21   15.73    6.49
  -3   5  21    5.13    6.22
   3  -5 -20   -7.11    5.72
   3  -5 -20    4.77    5.65
  -3   5  20    8.93    5.29
   3  -5 -19    4.23   10.64
   3  -5 -19   23.20    6.48
  -3   5  19   23.57   10.69
   3  -5 -18   32.87    7.33
   3  -5 -18   32.70    7.09
  -3   5  18   47.36    6.80
   3  -5 -17   29.47    5.84
   3  -5 -17   15.93    6.34
  -3   5  17   23.33    9.92
   3  -5 -16  232.01   12.40
   3  -5 -16  218.88   13.12
  -3   5  16  227.60   12.65
   3  -5 -15   70.29    7.10
   3  -5 -15   75.42    7.86
  -3   5  15   81.97   11.90
   3  -5 -14  103.10    8.56
   3  -5 -14  101.52   11.91
  -3   5  14  111.28    7.89
   3  -5 -13    1.47    3.43
   3  -5 -13   -5.41    4.22
  -3   5  13    1.73    3.78
   3  -5 -12  192.78    8.74
   3  -5 -12  191.47   10.70
  -3   5  12  226.31   15.05
   3  -5 -11   34.17    6.88
   3  -5 -11   37.21    5.42
  -3   5  11   31.20    4.55
   3  -5 -10   94.81    5.39
   3  -5 -10  102.99    6.88
  -3   5  10   96.03    5.71
   3  -5  -9  156.65    9.72
   3  -5  -9  150.11    7.72
  -3   5   9  154.43    6.51
   3  -5  -8   83.30    5.74
   3  -5  -8   84.84    4.55
  -3   5   8   93.52    4.60
   3  -5  -7  197.99   12.70
   3  -5  -7  195.41    6.63
  -3   5   7  214.72    6.83
   3  -5  -6   48.00    3.94
   3  -5  -6   49.37    3.30
  -3   5   6   42.76    3.34
   3  -5  -5   17.05    2.53
   3  -5  -5   15.99    3.00
  -3   5   5   19.16    4.43
   3  -5  -4   49.13    3.24
   3  -5  -4   53.54    3.48
  -3   5   4   53.55    3.16
   3  -5  -3   16.90    2.42
   3  -5  -3   11.23    2.39
  -3   5   3   16.51    2.79
  -3   5   3   14.73    2.35
   3  -5  -2   37.53    2.86
   3  -5  -2   31.52    2.50
  -3   5   2   36.67    4.65
  -3   5   2   34.73    2.86
   3  -5  -1  350.31    9.11
   3  -5  -1  346.15   10.87
  -3   5   1  357.82   11.76
  -3   5   1  373.86    9.38
   3  -5   0   -1.56    2.24
   3  -5   0    3.48    1.43
  -3   5   0    2.41    2.20
  -3   5   0    2.95    2.76
   3  -5   1  117.55    4.43
  -3   5  -1  122.58    4.99
  -3   5  -1  116.79    2.97
  -3   5  -2   46.16    3.43
  -3   5  -2   35.55    2.67
  -3   5  -3  378.29    6.36
  -3   5  -3  426.24   11.43
  -3   5  -4   31.58    3.39
  -3   5  -4   33.60    2.14
  -3   5  -5  149.69    6.04
  -3   5  -6  360.33   11.41
  -3   5  -7   22.68    6.16
  -3   5  -8    7.77    3.39
  -3   5  -9  137.58    7.41
  -3   5 -10  128.90   13.05
  -3   5 -11   -4.54    4.36
   3  -5  12   38.78    6.02
  -3   5 -12   33.86    6.11
   3  -5  13   85.25    8.22
  -3   5 -13   86.43    8.35
   3  -5  14    0.53    4.84
  -3   5 -14   -7.46    5.29
   3  -5  15    5.10    5.41
  -3   5 -15    8.94    5.78
   3  -5  16   26.85    6.67
  -3   5 -16   32.42   13.02
   3  -5  17   12.21    6.11
  -3   5 -17   12.71    6.92
   3  -5  18   82.54    9.18
  -3   5 -18   51.67    9.90
   3  -5  19   21.94    7.30
  -3   5 -19   44.22    8.09
  -3   5 -19   17.14    4.28
   3  -5  20   -6.46    6.46
  -3   5 -20   -4.16    3.76
  -3   5 -20   -9.13    7.27
   3  -5  21    7.55    6.90
   3  -5  22  -16.78    6.60
  -3   5 -22    0.38    3.78
  -3   5 -22    9.90    7.26
   3  -5  23   26.39    8.68
  -3   5 -23   23.04    9.45
  -3   5 -23   19.16    4.91
   3  -5  24    5.22    7.72
  -3   5 -24  -10.16    7.01
   3  -4 -24   20.87    7.70
   3  -4 -24   14.13    7.56
  -3   4  24    6.88    7.16
   3  -4 -23   70.24   10.23
   3  -4 -23   57.92   16.89
  -3   4  23   65.42    9.54
   3  -4 -22   40.60    8.52
   3  -4 -22   44.48    8.39
  -3   4  22    5.55   12.80
  -3   4  22   36.94   13.35
   3  -4 -21  191.51   13.47
   3  -4 -21  166.52   13.77
  -3   4  21  164.81   13.17
   3  -4 -20    0.86    5.45
   3  -4 -20    6.79    5.51
  -3   4  20   -5.80    5.26
   3  -4 -19   18.32    6.22
   3  -4 -19   14.17    6.16
  -3   4  19   15.09    6.23
   3  -4 -18   36.97    7.33
   3  -4 -18   43.40    7.46
  -3   4  18   66.48    7.45
   3  -4 -17   77.39   14.20
   3  -4 -17   79.78    8.21
  -3   4  17   87.16    8.49
   3  -4 -16    6.03    4.85
   3  -4 -16    9.80    4.77
  -3   4  16   -1.82    4.94
   3  -4 -15   13.51    5.02
   3  -4 -15    0.06    4.66
  -3   4  15   10.85    4.91
   3  -4 -14  116.29    7.88
   3  -4 -14  106.28    8.59
  -3   4  14  109.48    8.34
   3  -4 -13   36.14    5.18
   3  -4 -13   40.16    5.92
  -3   4  13   43.70    5.56
   3  -4 -12   -3.69    5.89
   3  -4 -12    6.19    4.17
  -3   4  12    2.90    3.77
   3  -4 -11  206.55    8.66
   3  -4 -11  199.41   10.05
  -3   4  11  220.48    9.28
   3  -4 -10   53.12    4.39
   3  -4 -10   51.61    5.17
  -3   4  10   45.71    4.69
   3  -4  -9  120.87    5.49
   3  -4  -9  113.28    6.36
  -3   4   9  107.59    5.69
   3  -4  -8 1528.54   57.10
   3  -4  -8 1456.39   48.70
  -3   4   8 1509.87   47.62
   3  -4  -7  847.84   25.23
   3  -4  -7  869.85   24.16
  -3   4   7  869.26   24.17
   3  -4  -6 1579.63   50.51
   3  -4  -6 1621.74   50.17
  -3   4   6 1645.81   51.03
   3  -4  -5   30.76    3.27
   3  -4  -5   34.73    3.08
  -3   4   5   32.24    3.04
   3  -4  -4   10.09    2.55
   3  -4  -4   11.15    2.48
  -3   4   4   11.63    2.46
   3  -4  -3   30.54    2.64
   3  -4  -3   27.36    2.90
  -3   4   3   28.33    2.86
   3  -4  -2  439.48    9.94
   3  -4  -2  452.02   11.49
  -3   4   2  474.06   16.18
   3  -4  -1   74.25    3.69
   3  -4  -1   62.54    2.55
  -3   4   1   64.77    3.04
  -3   4   1   60.54    3.73
   3  -4   0   67.90    2.20
   3  -4   0   69.20    3.93
  -3   4   0   73.61    3.88
  -3   4   0   70.87    3.99
   3  -4   1    9.83    1.08
  -3   4  -1   12.15    2.78
  -3   4  -1    9.66    1.24
  -3   4  -2  119.84    5.42
  -3   4  -2  121.06    2.08
  -3   4  -3   71.37    1.96
  -3   4  -3   78.44    4.45
  -3   4  -5   89.59    4.73
  -3   4  -6  559.36   23.47
  -3   4  -7 1719.86   57.93
  -3   4  -8  155.70    7.21
  -3   4  -9   22.03    4.25
  -3   4 -10   91.12   11.15
   3  -4  11    8.49    4.36
  -3   4 -11    4.44    4.48
   3  -4  12  215.72   11.28
  -3   4 -12  207.51   11.65
   3  -4  13  167.65   10.47
  -3   4 -13  154.35   10.77
   3  -4  14   41.94    6.51
  -3   4 -14   34.73    7.11
   3  -4  15    2.66    5.35
  -3   4 -15   12.55    5.73
   3  -4  16    9.63    5.11
  -3   4 -16    0.21    3.09
  -3   4 -16    0.37    5.79
   3  -4  17    8.52    6.00
  -3   4 -17   11.45    3.40
  -3   4 -17    7.36    6.59
   3  -4  18   16.37    6.26
  -3   4 -18   -0.76   11.69
  -3   4 -18   10.65    3.67
   3  -4  19    5.21    6.39
  -3   4 -19   20.58    7.07
  -3   4 -19    9.15    6.16
   3  -4  20   -0.92    5.80
  -3   4 -20   -2.71    3.32
  -3   4 -20    7.55    6.52
   3  -4  21   23.15    7.84
  -3   4 -21   19.37    4.45
  -3   4 -21   30.29    8.51
   3  -4  22    3.76    6.81
  -3   4 -22   -1.77    7.40
  -3   4 -22    6.44    6.42
   3  -4  23   -5.79    6.75
  -3   4 -23    1.46    3.98
  -3   4 -23    7.18    7.54
   3  -4  24   -5.84    7.95
  -3   4 -24   16.79    4.62
  -3   4 -24   -1.46    8.58
   3  -3 -25   16.49    8.13
   3  -3 -25   13.78    7.84
  -3   3  25    8.35   12.93
   3  -3 -24   14.00   12.17
   3  -3 -24    6.84    7.09
  -3   3  24    4.50    6.77
   3  -3 -23   45.84   12.30
   3  -3 -23   10.01    7.21
  -3   3  23    8.53    6.84
   3  -3 -22   79.99   15.77
   3  -3 -22   67.28    9.28
  -3   3  22   50.20    9.34
   3  -3 -21   11.24    6.07
   3  -3 -21   -0.14    5.74
  -3   3  21    0.26    5.78
   3  -3 -20   59.16    7.86
   3  -3 -20   24.90    8.07
  -3   3  20   61.97   13.77
   3  -3 -19   11.36    5.98
   3  -3 -19    7.65    5.70
  -3   3  19   11.97    6.03
   3  -3 -18   69.42    8.59
   3  -3 -18   81.30    8.73
  -3   3  18   90.53   14.57
   3  -3 -17    0.79    4.80
   3  -3 -17    0.16    4.77
  -3   3  17   -2.12    5.00
   3  -3 -16   19.68    9.78
   3  -3 -16   21.16    5.90
  -3   3  16   30.67   10.13
   3  -3 -15  191.27   17.33
   3  -3 -15  188.57   11.66
  -3   3  15  185.91   11.47
   3  -3 -14  106.09    7.79
   3  -3 -14   96.59    8.48
  -3   3  14   95.27   12.93
   3  -3 -13  742.52   26.47
   3  -3 -13  744.85   28.44
  -3   3  13  731.01   27.31
   3  -3 -12    1.28    3.48
   3  -3 -12   11.91    4.32
  -3   3  12   -3.30    3.82
   3  -3 -11   -1.85    3.92
   3  -3 -11   10.28    5.45
  -3   3  11    2.25    5.92
   3  -3 -10  602.30   19.09
   3  -3 -10  630.98   21.52
  -3   3  10  655.00   20.22
   3  -3  -9    2.25    3.51
   3  -3  -9    4.50    2.86
  -3   3   9    0.65    2.97
   3  -3  -8   68.24    4.54
   3  -3  -8   76.33    5.26
  -3   3   8   72.89    4.57
   3  -3  -7 1091.80   33.47
   3  -3  -7 1076.32   31.54
  -3   3   7 1116.73   32.36
   3  -3  -6  341.06   10.60
   3  -3  -6  344.59   14.19
  -3   3   6  322.10   14.38
   3  -3  -5  345.84   10.24
   3  -3  -5  360.18   14.44
  -3   3   5  357.11    9.97
   3  -3  -4    3.62    2.36
   3  -3  -4   -1.45    2.33
  -3   3   4    1.98    2.36
   3  -3  -3   28.21    2.58
   3  -3  -3   27.37    3.09
  -3   3   3   27.21    3.11
   3  -3  -2  279.61    9.61
   3  -3  -2  273.07    8.09
  -3   3   2  295.55   12.46
   3  -3  -1  158.14    5.82
   3  -3  -1  170.32    6.08
  -3   3   1  169.37    6.10
   3  -3   0 1593.94   49.01
   3  -3   0 1616.20   42.23
  -3   3   0 1606.99   49.23
   3  -3   1  593.50    8.82
   3  -3   1  574.32   15.93
  -3   3  -1  631.53   22.93
  -3   3  -2  394.71   11.70
  -3   3  -3   33.25    3.65
  -3   3  -5   43.47    6.15
  -3   3  -6  980.79   36.65
  -3   3  -7 1197.06   37.20
  -3   3  -8  664.69   20.66
  -3   3  -9  115.33    6.68
  -3   3 -10    1.34    6.36
   3  -3  11    1.31    4.03
  -3   3 -11   -6.48    2.22
  -3   3 -11   11.46    4.13
   3  -3  12   59.01    6.64
  -3   3 -12   59.24    3.83
  -3   3 -12   46.99    6.94
   3  -3  13   16.93    5.60
  -3   3 -13   24.95    3.16
  -3   3 -13   15.12    5.60
   3  -3  14   13.23    5.10
  -3   3 -14    6.84    2.96
  -3   3 -14    9.78    5.64
   3  -3  15   55.37    7.48
  -3   3 -15   64.36    7.49
  -3   3 -15   49.57    8.08
   3  -3  16   -7.12    5.07
  -3   3 -16   -0.14    2.92
  -3   3 -16   -3.66    5.80
   3  -3  17   -3.34    5.20
  -3   3 -17    1.97    3.02
  -3   3 -17    8.13    5.98
   3  -3  18   25.64    6.72
  -3   3 -18   24.79   12.64
  -3   3 -18   20.96    4.00
   3  -3  19    3.78    5.91
  -3   3 -19   -0.90    6.53
  -3   3 -19    6.43    5.75
   3  -3  20   50.53    8.84
  -3   3 -20   66.02    9.63
  -3   3 -20   47.02    5.20
   3  -3  21   41.47    7.95
  -3   3 -21   22.29    4.91
  -3   3 -21   35.34    8.73
   3  -3  22   42.72    8.56
  -3   3 -22   24.22    9.53
  -3   3 -22   32.70    5.22
   3  -3  23    5.04    7.12
  -3   3 -23    4.92    7.14
   3  -3  24    5.47    7.45
  -3   3 -24    6.77    4.48
  -3   3 -24   -2.82    8.01
   3  -2 -25   -4.59    7.31
   3  -2 -25    2.96    6.96
  -3   2  25   -7.52    6.91
   3  -2 -24   88.39   11.28
   3  -2 -24   86.02   11.11
  -3   2  24   84.87   11.09
   3  -2 -23    4.13    6.22
   3  -2 -23    1.43    6.39
  -3   2  23   -4.43   10.09
   3  -2 -22   52.66    9.26
   3  -2 -22   59.21    9.54
  -3   2  22   62.74    9.31
   3  -2 -21    6.66    5.95
   3  -2 -21    5.94    6.30
  -3   2  21    2.58    5.97
   3  -2 -20   61.17   15.92
   3  -2 -20   74.79    9.47
  -3   2  20   92.23    9.79
   3  -2 -19   19.65    6.68
   3  -2 -19   19.64    6.67
  -3   2  19   22.82    7.02
   3  -2 -18   -2.80    5.25
   3  -2 -18   -3.04    5.31
  -3   2  18    4.67    8.97
   3  -2 -17  394.40   19.87
   3  -2 -17  438.81   20.48
  -3   2  17  420.55   20.69
   3  -2 -16   28.20    6.47
   3  -2 -16   41.60    6.74
  -3   2  16   24.66   10.94
   3  -2 -15   97.89    8.47
  -3   2  15   99.30    8.99
   3  -2 -14  346.23   15.27
  -3   2  14  340.83   15.59
   3  -2 -13   68.19   10.44
  -3   2  13   63.12    6.68
   3  -2 -12  246.47   10.39
  -3   2  12  232.69   10.78
   3  -2 -11  441.59   15.24
  -3   2  11  468.63   23.35
   3  -2 -10  511.49   16.17
  -3   2  10  500.14   16.44
   3  -2  -9 1801.77   63.25
  -3   2   9 1890.71   65.75
   3  -2  -8  485.84   20.91
  -3   2   8  514.75   15.17
   3  -2  -7  235.72    8.14
  -3   2   7  248.32    8.27
   3  -2  -6   -2.57    2.51
  -3   2   6    9.05    4.30
   3  -2  -5  232.35    7.61
  -3   2   5  224.14    7.59
   3  -2  -4   19.87    3.17
  -3   2   4   23.25    3.21
   3  -2  -3   31.62    3.39
  -3   2   3   34.76    3.43
   3  -2  -2    9.96    2.85
  -3   2   2   10.02    4.88
   3  -2  -1 1105.12   31.69
  -3   2   1 1139.84   31.92
   3  -2   0 1188.23   42.92
   3  -2   0 1179.23   23.96
  -3   2   0 1196.01   33.94
   3  -2   1 3099.87  123.92
   3  -2   1 3237.12   98.48
  -3   2  -1 3200.76  126.92
  -3   2  -2  793.76   22.42
  -3   2  -3   14.81    3.21
  -3   2  -4  200.47    2.82
  -3   2  -5    4.33    0.74
  -3   2  -5    6.87    4.53
  -3   2  -6  457.77   18.77
  -3   2  -6  459.61    7.90
  -3   2  -7  352.68   17.64
  -3   2  -7  376.09    9.33
  -3   2  -8  314.20   11.43
  -3   2  -8  344.96    7.06
  -3   2  -9   73.86    2.97
  -3   2  -9   83.07    5.67
  -3   2 -10   10.32    3.82
  -3   2 -10    2.44    1.96
  -3   2 -11   34.60    3.00
  -3   2 -11   36.03    5.29
   3  -2  12   -2.95    4.29
  -3   2 -12   12.87    4.53
  -3   2 -12    2.85    2.42
   3  -2  13   -4.37    4.53
  -3   2 -13   -4.22    2.67
  -3   2 -13    8.36    7.94
   3  -2  14   19.17    5.64
  -3   2 -14   20.50    6.12
  -3   2 -14   20.60    5.62
   3  -2  15    0.46    4.59
  -3   2 -15   -4.00    5.07
  -3   2 -15    2.71    4.65
   3  -2  16   97.76    8.51
  -3   2 -16   80.20    9.33
  -3   2 -16   70.60    5.08
   3  -2  17    4.14    5.69
  -3   2 -17    3.09    6.29
  -3   2 -17   11.88    3.44
   3  -2  18   76.46    8.12
  -3   2 -18   51.35    8.88
  -3   2 -18   45.08    5.10
   3  -2  19    3.68    6.10
  -3   2 -19   15.50    6.69
  -3   2 -19    5.03    3.78
   3  -2  20    0.25    5.68
  -3   2 -20    4.75   10.57
  -3   2 -20   -2.18    5.84
   3  -2  21   33.66    8.13
  -3   2 -21   25.80    5.12
  -3   2 -21   52.04    8.91
   3  -2  22   11.41    6.44
  -3   2 -22   -8.04    6.97
  -3   2 -22    1.85    3.91
   3  -2  23   -2.99    6.58
  -3   2 -23   -0.83    4.15
  -3   2 -23    1.18    7.24
  -3   2 -24   40.51    9.70
  -3   2 -24   23.39   10.21
   3  -1 -26   41.88    8.63
   3  -1 -26    1.26    9.15
  -3   1  26    7.16   14.08
   3  -1 -25   51.81    9.57
   3  -1 -25   31.46   10.17
  -3   1  25   44.36    9.75
   3  -1 -24   19.32    7.52
   3  -1 -24   -3.11    7.59
  -3   1  24   17.23    7.29
   3  -1 -23   23.13    8.35
   3  -1 -23   31.79   13.84
  -3   1  23   40.94   13.66
   3  -1 -22   63.19    9.35
   3  -1 -22   50.66    9.59
  -3   1  22   59.66    9.32
   3  -1 -21   45.02    8.18
   3  -1 -21   44.92    8.30
  -3   1  21   28.35    8.26
   3  -1 -20    1.34    5.75
   3  -1 -20   -4.05    5.96
  -3   1  20   -1.82    5.96
   3  -1 -19   92.72   10.17
  -3   1  19  110.67   10.49
   3  -1 -18  140.00   11.03
  -3   1  18  142.90   11.45
   3  -1 -17   98.12    9.64
  -3   1  17  126.54   10.44
   3  -1 -16 1294.70   54.39
  -3   1  16 1364.65   56.77
   3  -1 -15  333.86   16.21
  -3   1  15  348.80   17.12
   3  -1 -14  424.49   17.75
  -3   1  14  423.44   18.37
   3  -1 -13   15.37    4.82
  -3   1  13   23.53    5.11
   3  -1 -12   63.70    6.00
  -3   1  12   74.28    6.28
   3  -1 -11   18.09    4.13
  -3   1  11   22.20    4.20
   3  -1 -10  931.11   29.88
  -3   1  10  963.70   31.07
   3  -1  -9  359.10   18.51
  -3   1   9  401.55   13.14
   3  -1  -8  814.85   24.54
  -3   1   8  844.37   24.63
   3  -1  -7  268.37    9.05
  -3   1   7  285.96    9.21
   3  -1  -6 1363.56   41.70
  -3   1   6 1385.99   42.38
   3  -1  -5  375.41   11.15
  -3   1   5  380.79   11.34
   3  -1  -4  266.62    8.53
  -3   1   4  257.96    8.35
   3  -1  -3  288.25    8.98
  -3   1   3  295.79    8.94
   3  -1  -2  435.67   12.26
  -3   1   2  465.26   12.67
   3  -1  -1  650.71   17.56
  -3   1   1  656.10   17.83
   3  -1   0  208.78    6.94
  -3   1   0  195.36    6.84
   3  -1   1  602.52   16.58
  -3   1  -1  627.35   17.01
   3  -1   2  564.83    8.16
  -3   1  -2  563.71   15.81
  -3   1  -3   26.43    3.47
  -3   1  -4   96.51    1.70
  -3   1  -5  147.74    3.94
  -3   1  -5  148.98    9.20
  -3   1  -6   81.64    2.28
  -3   1  -6   75.48    7.82
  -3   1  -7  244.99    7.34
  -3   1  -7  242.87   13.39
  -3   1  -8   47.73    4.35
  -3   1  -8   44.23    2.37
  -3   1  -9   51.86    2.82
  -3   1  -9   53.23    4.91
  -3   1 -10    0.98    3.45
  -3   1 -10    2.29    3.68
  -3   1 -11   10.19    4.33
  -3   1 -11    5.49    7.26
   3  -1  12  265.21   12.47
  -3   1 -12  263.14   12.91
  -3   1 -12  280.27   12.91
   3  -1  13  117.38    8.35
  -3   1 -13  111.42    8.97
  -3   1 -13  121.42   15.03
   3  -1  14   94.23    8.16
  -3   1 -14  101.98    8.60
  -3   1 -14   70.18    8.66
   3  -1  15   54.28    7.14
  -3   1 -15   67.45    7.67
  -3   1 -15   44.15   13.53
   3  -1  16    9.25    4.97
  -3   1 -16    0.48    3.24
  -3   1 -16   10.22    5.63
   3  -1  17   26.00    6.09
  -3   1 -17   17.84    3.97
  -3   1 -17   20.87   11.48
   3  -1  18   68.78    8.35
  -3   1 -18   67.69    5.55
  -3   1 -18   62.45    9.38
   3  -1  19   73.50    9.10
  -3   1 -19   72.75    6.12
  -3   1 -19   86.36    9.84
   3  -1  20    8.32    6.14
  -3   1 -20    4.45    4.05
  -3   1 -20   11.77    6.70
   3  -1  21   14.98    6.37
  -3   1 -21    2.13    6.92
  -3   1 -21    0.96    7.11
   3  -1  22   -9.30    6.59
  -3   1 -22   -3.74    4.39
  -3   1 -23   21.40    5.19
  -3   1 -23    8.16    8.49
  -3   1 -24   11.61    9.60
  -3   1 -24   31.00    5.77
   3   0 -26   31.31    9.47
   3   0 -26   38.54    9.97
  -3   0  26   23.32   16.29
   3   0 -25    9.55    8.74
  -3   0  25   27.55    8.24
   3   0 -24   25.65    7.90
   3   0 -24   12.81    7.81
  -3   0  24    6.93    7.55
   3   0 -23  170.00   15.31
   3   0 -23  179.23   14.77
  -3   0  23  170.97   14.92
   3   0 -22    5.97   11.39
   3   0 -22    0.99    7.14
  -3   0  22   14.38    6.74
   3   0 -21  123.27   19.53
  -3   0  21  113.27   19.40
   3   0 -20   36.94   13.85
  -3   0  20   46.65    8.82
   3   0 -19    3.06    9.28
  -3   0  19   -2.65    5.89
   3   0 -18  103.96   10.48
  -3   0  18  109.73   10.51
   3   0 -17  254.31   23.39
  -3   0  17  235.61   15.49
   3   0 -16  193.96   18.67
  -3   0  16  160.17   11.95
   3   0 -15 1217.31   66.00
  -3   0  15 1242.52   50.61
   3   0 -14  250.50   12.06
  -3   0  14  213.72   12.47
   3   0 -13  260.01   12.38
  -3   0  13  293.47   13.24
   3   0 -12   30.05    4.74
  -3   0  12   25.36    4.98
   3   0 -11  119.83    6.91
  -3   0  11  115.88   11.71
   3   0 -10   42.89    4.70
  -3   0  10   52.85    5.02
   3   0  -9   11.72    3.43
  -3   0   9   10.53    3.61
   3   0  -8  365.54   11.64
  -3   0   8  362.12   11.72
   3   0  -7    5.09    4.95
  -3   0   7    2.65    2.98
   3   0  -6   46.25    4.05
  -3   0   6   48.81    4.24
   3   0  -5  596.74   17.16
  -3   0   5  601.39   24.28
   3   0  -4    3.03    2.70
  -3   0   4    0.62    2.71
   3   0  -3   33.90    3.53
  -3   0   3   35.35    3.58
   3   0  -2 2248.19   76.81
  -3   0   2 2260.07   77.58
   3   0  -1 1626.99   58.29
  -3   0   1 1584.68   48.30
   3   0   0 1102.80   30.81
  -3   0   0 1127.36   39.49
   3   0   1    7.53    0.95
   3   0   1    6.64    2.67
  -3   0  -1   10.70    2.69
   3   0   2   86.58    2.79
  -3   0  -2   86.22    7.40
   3   0   3    8.12    1.06
  -3   0  -3    3.21    2.70
   3   0   4  192.80    3.56
  -3   0  -4  190.51    3.51
  -3   0  -5   45.86    1.81
  -3   0  -5   35.22    3.40
  -3   0  -6    4.61    2.75
  -3   0  -6    5.94    1.48
  -3   0  -7  258.68    8.89
  -3   0  -7  262.89    5.95
  -3   0  -8   30.52    3.90
  -3   0  -8   28.59    6.64
  -3   0  -9   30.58    4.17
  -3   0  -9   28.78    2.65
  -3   0 -10   57.61    3.45
  -3   0 -10   56.69    5.56
  -3   0 -11   81.28    6.88
  -3   0 -11   72.18    6.68
  -3   0 -12   83.75    7.20
  -3   0 -12   86.23    7.76
   3   0  13  559.50   21.71
  -3   0 -13  557.47   23.55
  -3   0 -13  540.41   22.83
   3   0  14  134.74    8.92
  -3   0 -14  134.23   10.39
  -3   0 -14  123.94    9.78
   3   0  15   81.40    7.84
  -3   0 -15   83.07    9.06
  -3   0 -15   92.30    8.98
   3   0  16    5.20    5.15
  -3   0 -16    4.58    5.88
  -3   0 -16   13.77    5.68
   3   0  17   55.93    7.59
  -3   0 -17   63.74    5.31
  -3   0 -17   55.37    8.47
   3   0  18   44.93    7.72
  -3   0 -18   47.79    8.43
  -3   0 -18   56.04    5.35
   3   0  19   54.63    7.49
  -3   0 -19   41.31   13.72
  -3   0 -19   31.47    5.19
   3   0  20  -10.17    6.21
  -3   0 -20   -8.86    4.24
  -3   0 -20   -7.07    6.57
  -3   0 -21   -0.35    6.65
  -3   0 -21   -5.41    4.19
  -3   0 -22    7.68    4.42
  -3   0 -22   -1.41    6.94
  -3   0 -23   -0.71    7.86
  -3   0 -23   10.08    7.26
   3   1 -26   18.64    8.87
   3   1 -26   11.59    8.78
  -3  -1  26   13.94    8.47
   3   1 -25   57.69   11.41
  -3  -1  25   65.33   10.76
  -3  -1  24   27.09    8.53
   3   1 -23   21.00   12.84
  -3  -1  23   11.75    7.77
   3   1 -22  152.52   14.25
  -3  -1  22  165.11   14.18
   3   1 -21    5.84    6.48
  -3  -1  21    1.15   11.38
   3   1 -20   89.83   10.16
  -3  -1  20   87.70   10.85
   3   1 -19  155.65   12.91
  -3  -1  19  178.84   13.67
   3   1 -18    2.54    5.49
  -3  -1  18   -7.09    5.81
   3   1 -17  236.16   14.43
  -3  -1  17  225.61   14.89
   3   1 -16   24.27    6.37
  -3  -1  16   27.82    6.76
   3   1 -15   36.10    6.39
  -3  -1  15   28.15    6.82
   3   1 -14   33.29   10.57
  -3  -1  14   46.10    6.60
   3   1 -13  171.91    9.30
  -3  -1  13  156.74   10.02
   3   1 -12   52.51    5.89
  -3  -1  12   74.43    6.14
   3   1 -11   50.69    5.10
  -3  -1  11   52.12    9.05
   3   1 -10  107.82   10.20
  -3  -1  10  101.99    6.50
   3   1  -9  503.03   16.38
  -3  -1   9  538.15   17.11
   3   1  -8  251.74   14.31
  -3  -1   8  256.95    9.31
   3   1  -7 2571.04   97.95
  -3  -1   7 2634.17   99.58
   3   1  -6  370.03   11.30
  -3  -1   6  390.92   11.60
   3   1  -5  206.92    7.66
  -3  -1   5  230.61    7.90
   3   1  -4  198.33   11.12
  -3  -1   4  197.55   11.07
   3   1  -3  122.03    5.06
  -3  -1   3  110.10    5.12
   3   1  -2   56.95    6.10
  -3  -1   2   46.85    3.60
   3   1  -1  755.23   19.48
  -3  -1   1  763.18   19.58
   3   1   0   -2.52    2.21
  -3  -1   0    4.10    2.28
   3   1   1  396.15   10.71
   3   1   1  396.71    9.90
  -3  -1  -1  424.05   11.06
   3   1   2   20.30    2.52
  -3  -1  -2   12.49    2.73
   3   1   3  428.98    8.08
  -3  -1  -3  435.24   11.58
   3   1   4   99.62    2.85
  -3  -1  -4  102.47    4.18
  -3  -1  -4   85.84    4.39
  -3  -1  -4  100.45    4.20
   3   1   5  449.46    9.43
  -3  -1  -5  446.51   11.59
  -3  -1  -5  450.19    9.30
   3   1   6  535.38   12.11
  -3  -1  -6  513.80   14.19
  -3  -1  -6  540.10   11.58
  -3  -1  -7  356.08   10.69
  -3  -1  -7  353.30    8.31
  -3  -1  -8  725.97   17.91
  -3  -1  -8  691.85   21.05
  -3  -1  -9    9.55    3.79
  -3  -1  -9   13.87    2.48
  -3  -1 -10    9.50    3.73
  -3  -1 -10    3.80    2.61
  -3  -1 -11   81.20    6.68
  -3  -1 -11   83.91    4.72
  -3  -1 -12  100.32   13.84
  -3  -1 -12  130.14    9.46
  -3  -1 -13   78.93    8.43
  -3  -1 -13   77.95    7.45
  -3  -1 -14   80.44    5.53
  -3  -1 -14   71.55    8.13
  -3  -1 -15   15.74    3.89
  -3  -1 -15   22.87    5.90
   3   1  16   14.82    5.42
  -3  -1 -16   18.18   10.22
  -3  -1 -16   21.02    4.09
  -3  -1 -17    5.16    6.14
  -3  -1 -17   18.94    6.77
  -3  -1 -18   23.86    7.84
  -3  -1 -18   26.57   11.81
  -3  -1 -19   -1.82    5.80
  -3  -1 -19    8.06    6.60
  -3  -1 -20   15.97    6.86
  -3  -1 -20   12.36    4.74
  -3  -1 -21   82.36    9.80
  -3  -1 -21   59.70    6.82
  -3  -1 -22   32.62    8.10
  -3  -1 -22   18.51    5.53
  -3  -1 -23    9.62   12.17
  -3  -1 -23    4.95    4.97
   3   2 -27   60.18   12.00
  -3  -2  27   46.56   19.06
   3   2 -26   19.27   18.63
  -3  -2  26   64.37   11.20
   3   2 -25  -14.80   13.46
  -3  -2  25   -4.70    7.54
   3   2 -24  168.07   16.57
  -3  -2  24  191.58   25.72
   3   2 -23    7.73    8.01
  -3  -2  23   28.86    8.01
   3   2 -22   91.45   11.02
  -3  -2  22   72.35   10.91
   3   2 -21   88.75   10.43
  -3  -2  21   80.31   18.51
   3   2 -20   70.27    9.48
  -3  -2  20   66.68   10.10
   3   2 -19   12.84    5.93
  -3  -2  19   -2.58    6.41
   3   2 -18  306.28   17.28
  -3  -2  18  299.17   18.19
   3   2 -17   12.68    5.67
  -3  -2  17   -2.81    6.03
   3   2 -16  201.10   13.33
  -3  -2  16  244.05   22.38
   3   2 -15   17.73    6.02
  -3  -2  15   31.41    6.41
   3   2 -14  784.85   30.76
  -3  -2  14  763.77   44.75
   3   2 -13   66.40   10.89
  -3  -2  13   69.66    7.03
   3   2 -12  326.08   13.60
  -3  -2  12  358.62   14.13
   3   2 -11  486.41   17.15
  -3  -2  11  527.81   18.19
   3   2 -10  101.25    6.26
  -3  -2  10  102.12    6.40
   3   2  -9  730.20   22.70
  -3  -2   9  752.11   23.71
   3   2  -8  260.68    9.34
  -3  -2   8  266.57   14.77
   3   2  -7   13.25    3.16
  -3  -2   7   11.81    5.53
   3   2  -6  673.70   18.78
  -3  -2   6  676.03   26.24
   3   2  -5   16.03    3.02
  -3  -2   5   12.23    3.09
   3   2  -4  172.35    5.95
  -3  -2   4  160.22    6.12
   3   2  -3  359.42    9.92
  -3  -2   3  382.69   14.81
   3   2  -2  124.22    7.42
  -3  -2   2  112.38    4.54
   3   2  -1  466.72   11.62
  -3  -2   1  484.91   11.91
   3   2   0   37.42    3.03
  -3  -2   0   49.78    5.10
   3   2   1 1306.03   35.45
   3   2   1 1257.35   31.02
  -3  -2  -1 1283.31   34.83
   3   2   2   76.07    2.70
  -3  -2  -2   69.86    3.57
   3   2   3   73.72    2.72
  -3  -2  -3   69.54    3.58
   3   2   4 2053.32   62.75
  -3  -2  -4 2098.07   69.02
  -3  -2  -4 2070.32   63.01
  -3  -2  -4 2033.74   65.39
   3   2   5   17.07    3.82
  -3  -2  -5   27.95    2.70
  -3  -2  -5   23.28    2.25
   3   2   6  138.74    4.39
  -3  -2  -6  127.51    4.39
  -3  -2  -6  127.03    5.23
   3   2   7  708.76   18.13
  -3  -2  -7  712.21   17.51
  -3  -2  -7  656.05   18.82
  -3  -2  -8  103.73    4.39
  -3  -2  -8   97.53    5.37
  -3  -2  -9   87.30    5.75
  -3  -2  -9   93.92    4.53
  -3  -2 -10  157.94    6.32
  -3  -2 -10  161.47    8.11
  -3  -2 -11   -0.43    5.10
  -3  -2 -11    7.71    3.91
  -3  -2 -12   33.38    5.52
  -3  -2 -12   44.74    6.97
  -3  -2 -13   13.17    8.29
  -3  -2 -13   13.00    3.56
  -3  -2 -14  132.71    9.26
  -3  -2 -14  118.51    6.88
  -3  -2 -15    7.43    8.83
  -3  -2 -15    9.91    3.75
  -3  -2 -16  152.18   10.97
  -3  -2 -16  157.23    8.26
  -3  -2 -17    8.08    5.30
  -3  -2 -17   -0.48    3.78
  -3  -2 -18   10.82    6.31
  -3  -2 -18   19.95    4.57
  -3  -2 -19   -0.15    6.19
  -3  -2 -19   11.45    4.42
  -3  -2 -20   30.93   13.11
  -3  -2 -20   37.25    5.74
  -3  -2 -21   41.37    8.36
  -3  -2 -21   28.61    9.97
  -3  -2 -22   45.28   11.43
  -3  -2 -22   50.95    9.39
   3   3 -27   -6.98   14.83
  -3  -3  27   24.23   14.04
   3   3 -26   45.78   19.08
  -3  -3  26   50.85   10.80
   3   3 -25   83.86   13.26
  -3  -3  25  107.77   13.06
   3   3 -24    0.93    7.35
  -3  -3  24  -12.73   11.79
   3   3 -23  194.09   17.15
  -3  -3  23  235.49   17.38
   3   3 -22    5.62    6.82
  -3  -3  22    1.95    6.72
   3   3 -21  138.08   13.26
  -3  -3  21  174.29   23.16
   3   3 -20   13.73    6.66
  -3  -3  20   11.24    7.21
   3   3 -19  208.75   15.78
  -3  -3  19  283.54   17.04
   3   3 -18   27.93    7.19
  -3  -3  18   25.90    7.50
   3   3 -17   19.68    6.90
  -3  -3  17   37.76    7.34
   3   3 -16  273.26   15.60
  -3  -3  16  303.00   26.54
   3   3 -15    2.88    4.85
  -3  -3  15   -1.26    4.93
   3   3 -14   94.37    8.37
  -3  -3  14   99.78   14.73
   3   3 -13  710.05   25.89
  -3  -3  13  662.76   26.70
   3   3 -12   -6.29    6.89
  -3  -3  12   -6.55    7.33
  -3  -3  12   -7.61    7.36
   3   3 -11   27.13    4.54
  -3  -3  11   30.33    4.88
   3   3 -10 1845.73   66.96
  -3  -3  10 1879.93   68.83
   3   3  -9  606.03   18.86
  -3  -3   9  623.37   27.89
   3   3  -8 2891.58  116.67
  -3  -3   8 2955.21  120.19
   3   3  -7   -0.79    2.67
  -3  -3   7    2.55    2.80
   3   3  -6  655.37   17.91
  -3  -3   6  677.30   18.71
   3   3  -5    6.81    2.66
  -3  -3   5   10.46    2.75
   3   3  -4  592.81   15.34
  -3  -3   4  604.64   21.33
   3   3  -3  718.76   18.03
  -3  -3   3  732.14   18.43
   3   3  -2    3.51    3.48
  -3  -3   2   -1.07    3.52
   3   3  -1  537.15   16.90
  -3  -3   1  556.24   13.05
   3   3   0  809.45   24.19
  -3  -3   0  807.12   19.50
   3   3   1  258.89    9.12
   3   3   1  268.42    6.66
  -3  -3  -1  262.72    9.68
   3   3   2  806.81   19.10
  -3  -3  -2  840.42   20.16
   3   3   3  262.37    6.55
  -3  -3  -3  254.62    9.83
   3   3   4   71.85    3.38
  -3  -3  -4   72.61    5.63
  -3  -3  -4   61.08    5.45
  -3  -3  -4   75.75    3.24
   3   3   5 2468.49   85.92
  -3  -3  -5 2423.91   94.68
  -3  -3  -5 2512.82   96.66
   3   3   6  140.40    5.40
  -3  -3  -6  153.69    5.26
  -3  -3  -6  157.19    5.38
   3   3   7  276.09    8.37
  -3  -3  -7  273.26    8.71
  -3  -3  -7  286.01    8.19
   3   3   8   72.57    4.62
  -3  -3  -8   88.83    7.06
  -3  -3  -8   65.27    8.03
  -3  -3  -9   37.19    4.32
  -3  -3  -9   50.60    3.95
  -3  -3 -10    5.71    3.48
  -3  -3 -10    0.85    2.91
  -3  -3 -11   86.14    8.42
  -3  -3 -11   63.65    6.15
  -3  -3 -12    2.99    3.33
  -3  -3 -12    4.40    4.10
  -3  -3 -13   18.89    3.98
  -3  -3 -13   12.71    5.11
  -3  -3 -14    3.01    3.60
  -3  -3 -14    4.20    4.57
  -3  -3 -15  205.48    9.62
  -3  -3 -15  187.15   11.63
  -3  -3 -16   13.32    4.25
  -3  -3 -16    7.53    5.48
  -3  -3 -17   21.20    6.58
  -3  -3 -17   31.84    5.05
  -3  -3 -18  122.59    8.27
  -3  -3 -18  114.09   10.52
  -3  -3 -19   -6.42    9.40
  -3  -3 -19    7.25    4.51
  -3  -3 -20   21.61    5.62
  -3  -3 -20   25.41    7.11
  -3  -3 -21   13.12    5.14
  -3  -3 -21   -0.31    6.52
  -3  -3 -22   -0.25    5.02
  -3  -3 -22    9.95    6.59
   3   4 -27   37.78   17.86
  -3  -4  27   26.70   17.17
   3   4 -26   -3.86    8.88
  -3  -4  26   24.23    8.55
   3   4 -25   54.25   11.61
  -3  -4  25   61.45   11.01
   3   4 -24   58.92   10.77
  -3  -4  24   38.41   17.34
   3   4 -23   58.08   10.57
  -3  -4  23   62.50   10.90
   3   4 -22   50.98    9.98
  -3  -4  22   65.18    9.95
   3   4 -21   89.32   11.21
  -3  -4  21  100.11   18.81
   3   4 -20  135.25   12.39
  -3  -4  20  138.64   13.35
   3   4 -19   -0.06    6.18
  -3  -4  19   13.35    6.63
   3   4 -18  125.21   11.52
  -3  -4  18  155.44   20.13
   3   4 -17  305.75   17.35
  -3  -4  17  334.01   18.68
   3   4 -16  198.77   12.93
  -3  -4  16  211.86   14.01
   3   4 -15 1506.99   62.81
  -3  -4  15 1508.99   65.08
   3   4 -14   41.75    6.55
  -3  -4  14   52.99    7.18
   3   4 -13  297.63   13.39
  -3  -4  13  276.83   13.74
   3   4 -12  350.95   22.41
  -3  -4  12  404.48   15.96
   3   4 -11  171.26    8.41
  -3  -4  11  178.48    9.01
   3   4 -10   15.51    3.70
  -3  -4  10   13.01    6.87
   3   4  -9 1208.82   39.18
  -3  -4   9 1286.99   42.11
   3   4  -8   39.60    3.94
  -3  -4   8   39.52    4.14
   3   4  -7 1548.12   48.66
  -3  -4   7 1553.26   49.99
   3   4  -6  295.87    8.81
  -3  -4   6  308.72    9.14
   3   4  -5 1579.03   47.62
  -3  -4   5 1590.20   48.63
   3   4  -4    8.65    3.94
  -3  -4   4   10.31    2.40
   3   4  -3   13.54    2.20
  -3  -4   3   10.78    2.33
   3   4  -2 1699.20   49.42
  -3  -4   2 1685.04   49.71
   3   4  -1  468.57   10.61
  -3  -4   1  498.72   14.71
   3   4   0  985.88   25.33
   3   4   0  967.18   23.45
  -3  -4   0  986.56   23.91
   3   4   1  518.12   12.85
  -3  -4  -1  539.13   11.95
   3   4   2  260.14    6.99
  -3  -4  -2  253.43    6.08
   3   4   3  648.21   16.34
  -3  -4  -3  679.71   15.67
   3   4   4  482.10   12.42
  -3  -4  -4  483.21   11.44
  -3  -4  -4  476.53   11.05
  -3  -4  -4  513.20   12.86
   3   4   5  138.74    5.35
  -3  -4  -5  147.43    4.69
  -3  -4  -5  142.30    5.42
  -3  -4  -5  145.58    4.76
   3   4   6 1035.80   29.92
  -3  -4  -6 1075.80   30.61
  -3  -4  -6 1024.95   28.33
   3   4   7    4.42    2.66
  -3  -4  -7   -1.42    2.46
  -3  -4  -7    4.33    2.65
   3   4   8  134.15    6.36
  -3  -4  -8  136.83    6.26
  -3  -4  -8  154.00    6.42
   3   4   9   11.91    3.78
  -3  -4  -9   21.63    3.67
  -3  -4  -9   17.47    3.62
  -3  -4 -10   35.41    7.12
  -3  -4 -10   37.20    7.71
  -3  -4 -11   21.28    3.89
  -3  -4 -11   13.12    4.27
  -3  -4 -12   71.94    5.78
  -3  -4 -12   68.96    6.48
  -3  -4 -13  272.65   11.31
  -3  -4 -13  263.78   12.47
  -3  -4 -14    5.49    4.72
  -3  -4 -14   12.17    4.10
  -3  -4 -15   40.72    8.85
  -3  -4 -15   39.98    6.51
  -3  -4 -16   33.75    9.17
  -3  -4 -16   39.78    6.46
  -3  -4 -17   52.57    9.90
  -3  -4 -17   40.26    7.06
  -3  -4 -18    7.69    7.75
  -3  -4 -18    6.53    8.89
  -3  -4 -19  184.41   13.13
  -3  -4 -19  208.46   18.25
  -3  -4 -20   23.57    9.61
  -3  -4 -20   17.68   11.43
  -3  -4 -21   21.07    5.70
  -3  -4 -21    7.54    6.78
   3   5 -27   27.70   10.02
  -3  -5  27    5.61   16.05
   3   5 -26   44.72   11.51
  -3  -5  26   58.26   11.46
   3   5 -25   11.63    9.06
  -3  -5  25   20.77    8.77
   3   5 -24  113.26   13.61
  -3  -5  24  106.87   13.08
   3   5 -23  -10.71    7.01
  -3  -5  23   13.00    6.92
   3   5 -22  184.45   16.46
  -3  -5  22  222.51   16.70
   3   5 -21    4.10    6.87
  -3  -5  21   11.06    6.94
   3   5 -20  102.68   11.44
  -3  -5  20  113.72   12.22
   3   5 -19  219.96   15.51
  -3  -5  19  248.75   16.48
   3   5 -18    2.12    5.72
  -3  -5  18    6.71   10.62
   3   5 -17  165.98   12.24
  -3  -5  17  176.92   13.35
   3   5 -16  217.23   13.81
  -3  -5  16  248.51   15.09
   3   5 -15    6.17    5.03
  -3  -5  15   -2.56    9.25
   3   5 -14  809.48   32.90
  -3  -5  14  895.37   35.29
   3   5 -13   14.46    4.78
  -3  -5  13    2.82    8.95
   3   5 -12  124.07   12.76
  -3  -5  12  126.03    8.51
   3   5 -11  412.73   15.00
  -3  -5  11  431.17   23.75
   3   5 -10    2.83    3.16
  -3  -5  10    0.81    3.47
   3   5  -9  678.69   20.31
  -3  -5   9  701.64   21.97
   3   5  -8   11.23    3.09
  -3  -5   8   13.70    5.52
   3   5  -7  229.10    7.48
  -3  -5   7  232.71    8.15
   3   5  -6  344.75    9.64
  -3  -5   6  361.69   10.23
   3   5  -5   43.36    3.12
  -3  -5   5   44.53    3.27
   3   5  -4 1183.03   37.63
  -3  -5   4 1181.83   32.13
   3   5  -3   19.91    2.19
  -3  -5   3   17.05    3.85
   3   5  -2   41.89    2.46
  -3  -5   2   43.95    2.53
   3   5  -1 1511.91   41.40
  -3  -5   1 1554.31   47.86
   3   5   0  224.15    5.15
   3   5   0  212.39    6.71
  -3  -5   0  230.04    5.22
   3   5   1  322.93    8.92
  -3  -5  -1  313.88    6.94
   3   5   2  224.31    6.89
  -3  -5  -2  235.30    7.62
   3   5   3   -0.96    4.05
  -3  -5  -3    4.92    1.59
  -3  -5  -3    3.07    1.62
   3   5   4  431.35   11.92
  -3  -5  -4  440.71    9.91
  -3  -5  -4  432.85   12.92
  -3  -5  -4  447.45   12.45
   3   5   5  134.11    5.48
  -3  -5  -5  129.12    4.24
  -3  -5  -5  131.49    4.46
  -3  -5  -5  134.22    9.20
   3   5   6  105.76    5.22
  -3  -5  -6   92.30    4.20
  -3  -5  -6   90.45    3.89
  -3  -5  -6   97.10    4.97
   3   5   7   41.25    4.33
  -3  -5  -7   46.76    3.66
  -3  -5  -7   53.51    4.30
   3   5   8  103.64   10.00
  -3  -5  -8   95.07    5.31
  -3  -5  -8  117.87    6.01
   3   5   9   26.93    4.23
  -3  -5  -9   21.38    6.21
  -3  -5  -9   37.12    4.34
   3   5  10   -0.59    3.58
  -3  -5 -10    1.63    3.30
  -3  -5 -10   -0.40    3.04
  -3  -5 -11    2.11    3.69
  -3  -5 -11    7.87    3.69
  -3  -5 -12  246.54   16.05
  -3  -5 -12  223.03   10.68
  -3  -5 -13  125.55    8.16
  -3  -5 -13  129.54   12.73
  -3  -5 -14  367.53   15.29
  -3  -5 -14  357.55   15.69
  -3  -5 -15   -1.97    4.10
  -3  -5 -15   -1.31    4.36
  -3  -5 -16   25.99    5.87
  -3  -5 -16   25.39    5.37
  -3  -5 -17   20.44    5.74
  -3  -5 -17   23.04    5.37
  -3  -5 -18   77.64    7.75
  -3  -5 -18   66.39    8.18
  -3  -5 -19    9.88    5.20
  -3  -5 -19    0.69    9.41
  -3  -5 -20   38.47    6.62
  -3  -5 -20   31.41    7.28
  -3  -5 -21  -10.47    5.37
  -3  -5 -21    2.61    6.02
   3   6 -27   32.96   12.57
  -3  -6  27   68.98   11.59
   3   6 -26   27.40    9.60
  -3  -6  26   13.51    9.54
   3   6 -25    1.87    8.94
  -3  -6  25   23.86    8.68
   3   6 -24   83.86   12.64
  -3  -6  24  100.10   12.10
   3   6 -23   46.28   10.08
  -3  -6  23   53.13   17.05
   3   6 -22    3.93    6.58
  -3  -6  22   -0.35    6.72
   3   6 -21  218.47   16.54
  -3  -6  21  230.24   16.64
   3   6 -20   24.33    7.78
  -3  -6  20   43.15   14.12
   3   6 -19   19.05    6.82
  -3  -6  19   11.93    7.16
   3   6 -18  661.40   31.68
  -3  -6  18  716.92   34.13
   3   6 -17   89.74    9.82
  -3  -6  17  101.78   10.42
   3   6 -16  533.85   24.96
  -3  -6  16  592.26   27.10
   3   6 -15   12.26    5.21
  -3  -6  15    3.17    5.92
   3   6 -14  325.27   15.10
  -3  -6  14  317.68   16.38
   3   6 -13    7.54    4.53
  -3  -6  13    9.26    5.07
   3   6 -12  302.44   18.49
  -3  -6  12  278.46   13.17
   3   6 -11   83.46    5.87
  -3  -6  11   78.22    6.50
   3   6 -10  239.54    9.52
  -3  -6  10  263.83   10.56
   3   6  -9    9.96    3.22
  -3  -6   9   12.29    3.65
   3   6  -8  919.20   34.41
  -3  -6   8  965.80   29.20
   3   6  -7  216.10    7.14
  -3  -6   7  248.99   12.13
   3   6  -6  849.67   22.54
  -3  -6   6  911.99   31.14
   3   6  -5  503.35   16.40
  -3  -6   5  504.30   12.89
   3   6  -4  257.35    6.50
  -3  -6   4  266.71    6.94
   3   6  -3 1546.48   49.64
  -3  -6   3 1582.52   51.35
   3   6  -2   43.78    3.51
  -3  -6   2   35.48    2.29
   3   6  -1   33.35    3.51
   3   6  -1   35.65    3.31
  -3  -6   1   36.85    3.41
   3   6   0  634.67   13.50
   3   6   0  629.80   17.20
  -3  -6   0  656.41   13.89
   3   6   1   40.43    3.63
  -3  -6  -1   46.75    2.04
   3   6   2   43.24    5.85
  -3  -6  -2   35.05    3.23
   3   6   3  202.72    7.24
  -3  -6  -3  202.87    4.71
  -3  -6  -3  205.40    4.68
   3   6   4  102.88    5.24
  -3  -6  -4   99.86    3.23
  -3  -6  -4  108.53    3.41
   3   6   5  106.94    5.67
  -3  -6  -5   98.11    5.31
  -3  -6  -5  100.84    6.07
  -3  -6  -5  114.50    5.82
   3   6   6   17.87    6.01
  -3  -6  -6   11.05    3.56
  -3  -6  -6   15.43    2.55
  -3  -6  -6   11.72    3.52
   3   6   7  340.51   18.01
  -3  -6  -7  336.93   11.69
  -3  -6  -7  336.47    9.01
  -3  -6  -7  334.31   14.16
   3   6   8    7.86    3.64
  -3  -6  -8    6.61    4.69
  -3  -6  -8    6.54    3.57
   3   6   9   31.88    4.80
  -3  -6  -9   40.96    4.00
  -3  -6  -9   36.58    4.83
   3   6  10  140.12    8.24
  -3  -6 -10  136.85    7.85
  -3  -6 -10  129.92    7.07
   3   6  11    4.72    4.26
  -3  -6 -11   -2.43    3.84
  -3  -6 -11    8.16    5.77
  -3  -6 -12   49.52    5.50
  -3  -6 -12   36.92    5.07
  -3  -6 -13   98.87   11.55
  -3  -6 -13  104.49    7.69
  -3  -6 -14    5.76    4.35
  -3  -6 -14   15.39    4.59
  -3  -6 -15   14.38    5.26
  -3  -6 -15   29.63    8.37
  -3  -6 -16   81.03    7.86
  -3  -6 -16   84.56    7.45
  -3  -6 -17    1.02    4.81
  -3  -6 -17    5.51    4.69
  -3  -6 -18    6.97    5.61
  -3  -6 -18   21.74    5.62
  -3  -6 -19   14.76    5.89
  -3  -6 -19   16.08    5.98
  -3  -6 -20    6.00    5.66
  -3  -6 -20    7.34    9.53
   3   7 -27   10.85    9.53
  -3  -7  27   13.16    9.07
   3   7 -26   12.40    9.47
  -3  -7  26   38.23   15.78
   3   7 -25  127.65   14.06
  -3  -7  25   99.71   14.01
   3   7 -24   16.66    7.83
  -3  -7  24   -1.66    7.65
   3   7 -23  200.26   17.35
  -3  -7  23  210.52   27.06
   3   7 -22  -10.15    6.60
  -3  -7  22    7.62    6.82
   3   7 -21   52.04   10.29
  -3  -7  21   88.07   10.30
   3   7 -20   62.63    9.22
  -3  -7  20   62.41    9.54
   3   7 -19  257.28   17.10
  -3  -7  19  292.70   18.34
   3   7 -18    6.88    6.07
  -3  -7  18   11.22    6.55
   3   7 -17  477.61   23.25
  -3  -7  17  514.32   25.13
   3   7 -16   55.70    7.80
  -3  -7  16   64.89    8.46
   3   7 -15  671.55   28.28
  -3  -7  15  708.34   30.64
   3   7 -14   29.79    5.86
  -3  -7  14   37.12   10.95
   3   7 -13  617.89   23.37
  -3  -7  13  620.88   25.48
   3   7 -12   -0.74    3.73
  -3  -7  12   -3.30    4.37
   3   7 -11   74.63    5.91
  -3  -7  11   86.78    6.79
   3   7 -10  498.09   23.15
  -3  -7  10  539.80   18.44
   3   7  -9    1.52    2.77
  -3  -7   9    0.73    3.22
   3   7  -8  154.68    5.94
  -3  -7   8  148.46    6.97
   3   7  -7  518.94   19.17
  -3  -7   7  563.11   15.92
   3   7  -6   28.98    4.50
  -3  -7   6   35.53    5.28
   3   7  -5  272.90    6.84
  -3  -7   5  277.38   11.02
   3   7  -4  565.89   13.01
  -3  -7   4  584.58   17.89
   3   7  -3   79.04    2.82
  -3  -7   3   94.10    4.99
   3   7  -2  594.66   12.44
  -3  -7   2  597.75   12.95
   3   7  -1   60.66    6.88
   3   7  -1   44.77    3.23
  -3  -7   1   54.07    2.18
   3   7   0  112.37    5.52
  -3  -7   0  120.21    3.02
   3   7   1   17.55    3.28
  -3  -7  -1   14.18    2.45
   3   7   2  266.54    9.07
  -3  -7  -2  266.62    5.51
  -3  -7  -2  267.09    5.30
   3   7   3  193.62    7.61
  -3  -7  -3  187.39    4.31
  -3  -7  -3  187.21    4.30
   3   7   4   26.45    4.19
  -3  -7  -4   33.00    1.96
  -3  -7  -4   38.02    2.24
   3   7   5  761.35   32.94
  -3  -7  -5  715.16   20.88
  -3  -7  -5  776.98   23.64
  -3  -7  -5  758.68   24.66
   3   7   6   -1.15    3.41
  -3  -7  -6    7.12    2.97
  -3  -7  -6    6.54    3.65
  -3  -7  -6    2.13    3.53
   3   7   7   63.38    5.62
  -3  -7  -7   63.37    3.19
  -3  -7  -7   55.34    6.28
  -3  -7  -7   67.16    5.63
   3   7   8  106.92    6.97
  -3  -7  -8  105.97    4.19
  -3  -7  -8   90.09    6.67
  -3  -7  -8   97.70    4.95
   3   7   9   90.62    6.80
  -3  -7  -9   78.49    5.11
  -3  -7  -9   91.08   10.72
   3   7  10   20.15    4.86
  -3  -7 -10   23.27    4.78
  -3  -7 -10   24.06    6.16
   3   7  11  443.34   18.10
  -3  -7 -11  405.85   17.07
  -3  -7 -11  398.33   14.15
  -3  -7 -12   62.55    6.15
  -3  -7 -12   39.60    5.02
  -3  -7 -13  166.96    9.10
  -3  -7 -13  200.29   16.45
  -3  -7 -14    3.43    6.24
  -3  -7 -14   -7.59    7.36
  -3  -7 -15  135.67    8.39
  -3  -7 -15  122.63    9.73
  -3  -7 -16   23.90    5.72
  -3  -7 -16    6.86    8.25
  -3  -7 -17   79.09    8.00
  -3  -7 -17  112.21    8.98
  -3  -7 -18    9.11    5.31
  -3  -7 -18   -1.09    4.99
  -3  -7 -19   -2.71    4.98
  -3  -7 -19    8.67    5.44
   3   8 -27    5.92    9.36
  -3  -8  27   13.01    9.02
   3   8 -26   32.58   10.83
  -3  -8  26   36.50   16.85
   3   8 -25   29.93   10.14
  -3  -8  25   35.31    9.90
   3   8 -24   92.98   12.70
  -3  -8  24   86.69   12.25
   3   8 -23    2.59    7.49
  -3  -8  23   13.64    7.38
   3   8 -22  125.64   13.91
  -3  -8  22  187.27   22.98
   3   8 -21    4.02    6.59
  -3  -8  21    4.99    6.82
   3   8 -20   93.28   11.14
  -3  -8  20  114.22   11.54
   3   8 -19  117.75   11.05
  -3  -8  19   85.88   18.51
   3   8 -18   84.67   10.25
  -3  -8  18  128.04   11.15
   3   8 -17    1.44    5.11
  -3  -8  17    0.70    5.67
   3   8 -16   91.64    8.63
  -3  -8  16   82.62   15.96
   3   8 -15   98.23    8.26
  -3  -8  15   85.31    9.25
   3   8 -14  184.07   10.83
  -3  -8  14  204.43   12.01
   3   8 -13    1.83    6.80
  -3  -8  13    3.54    7.95
   3   8 -12  477.59   17.58
  -3  -8  12  487.47   19.77
   3   8 -11    1.92    3.37
  -3  -8  11    3.71    4.08
   3   8 -10    7.41    6.04
  -3  -8  10   23.07    4.34
   3   8  -9 1116.43   34.89
  -3  -8   9 1184.96   39.28
   3   8  -8    9.39    2.70
  -3  -8   8   11.20    5.60
   3   8  -7  156.76    5.36
  -3  -8   7  160.80    6.49
   3   8  -6  197.53    5.57
  -3  -8   6  179.83    6.43
   3   8  -5   29.08    2.29
  -3  -8   5   32.68    4.65
   3   8  -4  106.35    3.35
  -3  -8   4  125.35    4.01
   3   8  -3   49.15    3.42
  -3  -8   3   41.35    2.37
   3   8  -2  198.80    8.05
   3   8  -2  203.59    4.31
  -3  -8   2  193.06    6.71
   3   8  -1    0.74    1.12
   3   8  -1   -0.92    2.78
  -3  -8   1   -0.03    2.12
   3   8   0  142.72    6.73
  -3  -8   0  136.42    3.23
   3   8   1  172.50    7.68
  -3  -8  -1  174.01    3.64
   3   8   2   52.63    4.97
  -3  -8  -2   67.48    3.18
  -3  -8  -2   56.72    1.98
   3   8   3  148.97    7.30
  -3  -8  -3  139.49    3.30
  -3  -8  -3  137.24    3.46
   3   8   4  502.66   17.13
  -3  -8  -4  516.43   14.49
  -3  -8  -4  483.34   10.24
   3   8   5  228.68   14.90
  -3  -8  -5  200.90    4.75
  -3  -8  -5  214.48    5.43
   3   8   6 1027.19   35.17
  -3  -8  -6  941.19   24.21
  -3  -8  -6  993.66   26.55
  -3  -8  -6 1051.00   35.88
   3   8   7   72.66    6.00
  -3  -8  -7   60.84    6.15
  -3  -8  -7   61.23    2.93
  -3  -8  -7   69.96    6.25
   3   8   8  220.37   11.34
  -3  -8  -8  239.37    6.60
  -3  -8  -8  250.70   11.33
  -3  -8  -8  252.41   11.80
   3   8   9   10.37    6.64
  -3  -8  -9   -0.05    3.52
  -3  -8  -9    2.68    3.85
  -3  -8  -9   -0.19    2.64
   3   8  10  239.46   11.19
  -3  -8 -10  197.63    6.93
  -3  -8 -10  191.34   10.65
  -3  -8 -10  209.25   12.15
   3   8  11    9.66    4.87
  -3  -8 -11    1.56    2.70
  -3  -8 -11   10.65    7.72
  -3  -8 -11   13.85    3.30
   3   8  12  177.59   11.40
  -3  -8 -12  184.25   10.48
  -3  -8 -12  154.83   12.34
  -3  -8 -13   11.58    4.95
  -3  -8 -13    6.63    3.63
  -3  -8 -14   90.03    8.11
  -3  -8 -14   64.97   10.04
  -3  -8 -15   -4.22    3.94
  -3  -8 -15   -2.60    5.08
  -3  -8 -16  115.41    9.76
  -3  -8 -16   94.11    7.77
  -3  -8 -17    4.39    5.37
  -3  -8 -17   -0.07    7.30
  -3  -8 -18    3.54    4.67
  -3  -8 -18    5.85    5.70
   3   9 -26   49.88   11.76
  -3  -9  26   52.27   11.56
   3   9 -25   24.54    9.12
  -3  -9  25   18.32   15.76
   3   9 -24   54.49   10.70
  -3  -9  24   54.34   10.90
   3   9 -23   35.95    8.97
  -3  -9  23   23.68    8.68
   3   9 -22   55.55   10.72
  -3  -9  22   87.75   10.33
   3   9 -21   24.49    7.64
  -3  -9  21   26.56    8.14
   3   9 -20  104.88   11.59
  -3  -9  20  129.53   12.00
   3   9 -19   77.15   10.03
  -3  -9  19  115.13   10.71
   3   9 -18   21.20    6.97
  -3  -9  18   53.83   12.72
   3   9 -17   18.89    6.12
  -3  -9  17   18.31    6.79
   3   9 -16  261.03   14.79
  -3  -9  16  274.53   16.09
   3   9 -15   11.24    5.04
  -3  -9  15    8.56    5.89
   3   9 -14  291.88   21.32
  -3  -9  14  312.30   15.84
   3   9 -13  148.91    8.63
  -3  -9  13  163.21   10.15
   3   9 -12   12.59    4.22
  -3  -9  12   19.92    5.10
   3   9 -11  489.23   16.42
  -3  -9  11  487.26   18.79
   3   9 -10   61.40    4.67
  -3  -9  10   60.80    5.79
   3   9  -9  299.66   13.96
  -3  -9   9  284.85   17.43
   3   9  -8  115.30    5.14
  -3  -9   8  116.97    6.05
   3   9  -7   60.66    3.46
  -3  -9   7   62.02    4.30
   3   9  -6   43.77    2.72
  -3  -9   6   31.04    3.42
   3   9  -5  111.13    3.67
  -3  -9   5  137.42    7.17
   3   9  -4  103.03    4.77
  -3  -9   4  100.63    3.76
   3   9  -3  153.62    7.67
   3   9  -3  149.06    5.27
  -3  -9   3  144.66    4.16
   3   9  -2   17.10    1.47
   3   9  -2   13.93    4.10
  -3  -9   2   21.82    1.71
   3   9  -1  750.77   15.83
   3   9  -1  884.62   35.92
  -3  -9   1  886.93   18.90
   3   9   0   61.51    5.53
  -3  -9   0   63.78    3.10
   3   9   1  264.71   10.19
  -3  -9  -1  233.93    4.45
  -3  -9  -1  232.76    5.56
   3   9   2  568.59   20.04
  -3  -9  -2  576.23   10.96
  -3  -9  -2  574.70   13.29
   3   9   3   -3.92    3.63
  -3  -9  -3   -0.31    2.10
  -3  -9  -3   -1.62    1.76
   3   9   4  165.86    8.42
  -3  -9  -4  167.44    3.89
  -3  -9  -4  145.76    3.42
   3   9   5  202.24   15.46
  -3  -9  -5  189.68    4.93
  -3  -9  -5  201.12    6.10
   3   9   6   23.44    5.08
  -3  -9  -6   25.09    1.83
  -3  -9  -6   32.27    2.48
   3   9   7  337.12   13.89
  -3  -9  -7  311.00    8.39
  -3  -9  -7  304.67    7.21
  -3  -9  -7  348.28   14.49
   3   9   8    4.39    4.15
  -3  -9  -8    0.33    1.72
  -3  -9  -8    4.13    3.67
  -3  -9  -8    4.16    4.15
   3   9   9  102.54    7.88
  -3  -9  -9   96.12   12.99
  -3  -9  -9   88.71    5.89
  -3  -9  -9  107.16    4.87
   3   9  10   18.17    5.09
  -3  -9 -10   16.27    5.09
  -3  -9 -10   12.14    5.13
  -3  -9 -10   15.76    2.49
   3   9  11   29.94   10.20
  -3  -9 -11   28.14    5.12
  -3  -9 -11   27.72    5.84
  -3  -9 -11   30.38    3.77
   3   9  12   99.68    8.86
  -3  -9 -12   86.35    4.82
  -3  -9 -12   81.50    8.82
  -3  -9 -12   98.66    8.16
  -3  -9 -13    2.08    2.85
  -3  -9 -13    7.56    4.72
  -3  -9 -13    0.40    3.25
  -3  -9 -14  111.21   14.89
  -3  -9 -14   96.98    6.70
  -3  -9 -15   10.71    9.38
  -3  -9 -15    7.10    4.03
  -3  -9 -16   -0.05    3.83
  -3  -9 -16   -1.62    5.17
  -3  -9 -17   19.51    6.79
  -3  -9 -17   28.65    8.66
   3  10 -26   -8.41    8.07
  -3 -10  26   10.98    7.77
   3  10 -25   74.27   12.24
  -3 -10  25   69.35   11.85
   3  10 -24    0.17    7.27
  -3 -10  24   -3.48    7.43
   3  10 -23   83.81   12.00
  -3 -10  23   97.94   12.07
   3  10 -22    5.95    6.87
  -3 -10  22    4.95    6.91
   3  10 -21  141.28   13.83
  -3 -10  21  206.91   22.05
   3  10 -20    3.47    6.78
  -3 -10  20   25.90    7.12
   3  10 -19   29.69    7.40
  -3 -10  19   29.32    7.74
   3  10 -18  113.22   10.30
  -3 -10  18  116.08   11.04
   3  10 -17    3.11    5.07
  -3 -10  17   -3.61    9.16
   3  10 -16   75.91    8.77
  -3 -10  16  137.06    9.95
   3  10 -15  109.70   14.34
  -3 -10  15  129.69   10.29
   3  10 -14   34.46    5.47
  -3 -10  14   33.40    6.67
   3  10 -13   34.89    5.15
  -3 -10  13   50.05   10.50
   3  10 -12  354.71   13.47
  -3 -10  12  367.00   16.21
   3  10 -11   -3.25    3.13
  -3 -10  11    7.75    3.94
   3  10 -10  820.74   26.00
  -3 -10  10  851.49   40.42
   3  10  -9   -1.50    2.69
  -3 -10   9   -6.01    3.50
   3  10  -8  559.33   15.44
  -3 -10   8  587.68   18.77
   3  10  -7   28.95    2.77
  -3 -10   7   45.31    6.25
   3  10  -6  273.24    7.00
  -3 -10   6  277.54    8.46
   3  10  -5  120.77    5.64
  -3 -10   5  128.10    4.73
   3  10  -4   10.37    1.59
  -3 -10   4   15.01    3.54
   3  10  -3  458.36   17.22
   3  10  -3  454.90   11.30
  -3 -10   3  442.22   10.01
   3  10  -2   58.99    1.83
   3  10  -2   67.17    5.64
  -3 -10   2   57.41    2.24
   3  10  -1    2.37    3.84
  -3 -10   1    1.61    1.87
   3  10   0  608.00   21.15
  -3 -10   0  573.64    9.98
  -3 -10   0  599.08   12.86
   3  10   1    1.84    7.32
  -3 -10  -1   13.19    0.99
  -3 -10  -1   11.15    0.93
   3  10   2   22.72    4.68
  -3 -10  -2   13.15    1.72
  -3 -10  -2   20.64    1.03
   3  10   3  637.06   22.76
  -3 -10  -3  585.36   10.71
  -3 -10  -3  599.57   11.27
   3  10   4   17.61    4.78
  -3 -10  -4   19.94    1.11
  -3 -10  -4   10.99    2.41
   3  10   5  185.94   15.44
  -3 -10  -5  177.37    4.14
  -3 -10  -5  172.66    4.76
   3  10   6    8.36    4.24
  -3 -10  -6    5.77    1.63
  -3 -10  -6    3.94    1.24
   3  10   7  173.10    9.37
  -3 -10  -7  145.36    6.52
  -3 -10  -7  135.96    5.29
   3  10   8   -0.21    7.81
  -3 -10  -8    3.67    2.56
  -3 -10  -8    6.17    2.03
  -3 -10  -8   -0.36    4.62
   3  10   9   70.86    6.99
  -3 -10  -9   55.51    5.43
  -3 -10  -9   49.70    2.73
  -3 -10  -9   59.94    7.02
   3  10  10   74.63    7.24
  -3 -10 -10   53.07    3.08
  -3 -10 -10   59.03    3.82
  -3 -10 -10   50.44    7.27
   3  10  11   21.34    9.24
  -3 -10 -11    8.50    3.97
  -3 -10 -11   14.90    4.91
  -3 -10 -11   10.11    9.10
   3  10  12   10.16    5.55
  -3 -10 -12   -0.20    2.96
  -3 -10 -12    4.09    2.43
  -3 -10 -12   14.78    5.22
  -3 -10 -13  137.90    6.05
  -3 -10 -13  167.21   11.14
  -3 -10 -13  135.03    6.92
  -3 -10 -14    2.32    4.90
  -3 -10 -14    8.60    5.37
  -3 -10 -14    2.60    5.57
  -3 -10 -15   73.68    8.19
  -3 -10 -15   40.71    4.66
  -3 -10 -15   60.75    5.26
  -3 -10 -16   23.22    6.87
   3  11 -26   32.27   10.22
  -3 -11  26   23.78   10.12
   3  11 -25   35.06    9.82
  -3 -11  25   25.94    9.69
   3  11 -24   -0.55    7.33
  -3 -11  24    9.78   11.94
   3  11 -23   66.74   11.38
  -3 -11  23   88.25   11.69
   3  11 -22   24.33    8.48
  -3 -11  22   37.53    8.59
   3  11 -21   18.72    7.84
  -3 -11  21   38.48    8.07
   3  11 -20  116.14   11.51
  -3 -11  20  130.88   11.93
   3  11 -19   19.74    6.74
  -3 -11  19   16.65   11.91
   3  11 -18   13.81    5.76
  -3 -11  18    2.04    6.14
   3  11 -17  316.19   16.94
  -3 -11  17  345.89   18.30
   3  11 -16   27.83    9.96
  -3 -11  16   29.48    6.62
   3  11 -15  206.67   11.12
  -3 -11  15  227.65   20.97
   3  11 -14   11.18    4.30
  -3 -11  14    5.38    5.33
   3  11 -13  187.10    9.60
  -3 -11  13  209.24   11.57
   3  11 -12   45.19    8.63
  -3 -11  12   70.84    6.85
   3  11 -11  298.83   10.84
  -3 -11  11  313.57   20.48
   3  11 -10   42.63    6.59
  -3 -11  10   44.21    5.23
   3  11  -9  203.64    7.24
  -3 -11   9  227.98    9.63
   3  11  -8    3.38    2.26
  -3 -11   8    1.23    3.15
   3  11  -7  562.42   14.70
  -3 -11   7  604.16   24.69
   3  11  -6   62.56    4.77
  -3 -11   6   76.37    6.83
   3  11  -5  109.13    3.30
  -3 -11   5  103.72    4.54
   3  11  -4  323.96   14.35
   3  11  -4  305.10    6.45
  -3 -11   4  326.11    8.22
   3  11  -3  147.36    3.19
   3  11  -3  148.25    9.37
  -3 -11   3  174.91    6.45
   3  11  -2  635.85   35.06
  -3 -11   2  666.12   16.86
   3  11  -1   11.78    4.64
  -3 -11   1   11.67    1.80
   3  11   0   48.86    5.70
  -3 -11   0   41.53    1.02
  -3 -11   0   40.45    1.22
   3  11   1  118.98    8.13
   3  11   2   93.47   12.45
   3  11   3   14.92    4.93
   3  11   4  258.59   11.87
  -3 -11  -4  227.83    3.51
  -3 -11  -4  221.69    3.70
   3  11   5    6.16    4.11
  -3 -11  -5   -0.22    0.97
  -3 -11  -5   -0.07    1.26
   3  11   6  236.18   11.54
  -3 -11  -6  209.23    5.45
  -3 -11  -6  198.71    4.52
   3  11   7    1.91    4.60
  -3 -11  -7    1.61    1.02
  -3 -11  -7    5.86    1.36
   3  11   8  188.25   16.86
  -3 -11  -8  135.47    4.85
  -3 -11  -8  148.09    4.14
   3  11   9   11.69    5.57
  -3 -11  -9   17.45    3.44
  -3 -11  -9   10.25    2.63
  -3 -11  -9   18.33    5.45
   3  11  10    2.63    4.85
  -3 -11 -10   -0.99    3.32
  -3 -11 -10    0.87    2.50
  -3 -11 -10    3.05    4.94
   3  11  11  120.59   10.60
  -3 -11 -11  121.12    5.02
  -3 -11 -11  127.02    4.26
  -3 -11 -11  131.45   10.84
   3  11  12    1.94    5.44
  -3 -11 -12   -0.54    3.26
  -3 -11 -12    0.55    2.38
  -3 -11 -12   -8.45    5.32
   3  11  13   15.73    7.37
  -3 -11 -13   27.13   11.24
  -3 -11 -14   47.35   13.60
  -3 -11 -15   12.31    6.66
   3  12 -25    7.76    8.27
  -3 -12  25   10.08    8.40
   3  12 -24  102.84   13.16
  -3 -12  24   97.94   12.77
   3  12 -23   18.94    7.94
  -3 -12  23    9.02    7.82
   3  12 -22   93.77   11.70
  -3 -12  22  108.39   19.66
   3  12 -21    7.02    6.80
  -3 -12  21   12.08    7.03
   3  12 -20   36.44    7.93
  -3 -12  20   43.82    8.26
   3  12 -19   13.04    6.55
  -3 -12  19   21.81    6.81
   3  12 -18   42.64   11.75
  -3 -12  18   30.36   12.27
   3  12 -17   -1.25    8.27
  -3 -12  17   -4.41    5.55
   3  12 -16  182.02   11.42
  -3 -12  16  229.66   12.95
   3  12 -15    6.44    4.53
  -3 -12  15   12.09    5.20
   3  12 -14  168.93    9.25
  -3 -12  14  162.25   10.73
   3  12 -13   27.69    7.52
  -3 -12  13   23.08    9.06
   3  12 -12  227.21    9.85
  -3 -12  12  279.99   19.66
   3  12 -11   52.34    7.24
  -3 -12  11   45.59    5.83
   3  12 -10   22.76    3.39
  -3 -12  10   26.91    4.78
   3  12  -9  231.91    7.61
  -3 -12   9  251.96   10.44
   3  12  -8   40.53    3.16
  -3 -12   8   48.33    4.54
   3  12  -7    1.29    1.86
  -3 -12   7    5.44    2.88
   3  12  -6  410.54   12.63
  -3 -12   6  420.82   12.28
   3  12  -5   39.47    6.05
   3  12  -5   32.22    2.01
  -3 -12   5   34.44    2.90
   3  12  -4   60.36    6.85
   3  12  -4   53.31    3.07
  -3 -12   4   55.50    2.70
   3  12  -3  204.32    4.83
   3  12  -3  215.69   11.28
  -3 -12   3  225.22    4.54
   3  12  -2    4.21    4.36
  -3 -12   2    1.59    0.72
   3  12  -1  165.78   10.04
   3  12   0   60.24    6.75
   3  12   1   12.98    4.91
   3  12   2   93.23    7.93
   3  12   3   31.20    9.78
   3  12   4  135.85    9.29
   3  12   5   -2.14    4.62
   3  12   6  101.90    8.91
   3  12   7   27.95    6.30
   3  12   8   18.86    9.33
  -3 -12  -8   11.57    1.29
  -3 -12  -8    6.65    1.15
   3  12   9   12.60    5.80
  -3 -12  -9    9.80    1.19
   3  12  10   81.59    9.36
   3  12  11   12.78    6.18
  -3 -12 -11    7.39    6.16
   3  12  12  175.70   13.52
  -3 -12 -12  146.81   12.87
   3  12  13   -5.39    6.52
  -3 -12 -13    2.25    5.96
  -3 -12 -14   37.55    8.39
   3  13 -24   10.54   12.81
  -3 -13  24    6.35    7.74
   3  13 -23   61.55   10.14
  -3 -13  23   49.23    9.84
   3  13 -22   -6.60    6.20
  -3 -13  22    6.06    6.14
   3  13 -21   95.84   16.55
  -3 -13  21   60.49   16.71
   3  13 -20   32.02   11.64
  -3 -13  20   17.32    7.27
   3  13 -19   -0.67   10.08
  -3 -13  19   18.59    6.42
   3  13 -18   18.31    6.37
  -3 -13  18   34.00    6.92
   3  13 -17    8.34    5.06
  -3 -13  17    2.40    5.46
   3  13 -16   50.65    6.69
  -3 -13  16   61.85    7.48
   3  13 -15   18.71    5.05
  -3 -13  15   38.35    9.71
   3  13 -14   65.38    9.89
  -3 -13  14   63.59   11.73
   3  13 -13  139.06    7.83
  -3 -13  13  141.54    9.50
   3  13 -12    1.13    5.20
  -3 -13  12    0.93    4.12
   3  13 -11  170.91    7.60
  -3 -13  11  202.34    9.81
   3  13 -10   42.62    6.46
  -3 -13  10   67.02    5.40
   3  13  -9    9.27    4.23
  -3 -13   9   11.78    3.61
   3  13  -8   79.08    5.90
  -3 -13   8   87.60    5.04
   3  13  -7  138.40    4.33
  -3 -13   7  136.47    5.62
   3  13  -6   31.57    6.42
   3  13  -6   24.57    3.38
  -3 -13   6   38.45    2.78
   3  13  -5  410.88   10.75
   3  13  -5  449.95   28.67
  -3 -13   5  420.32   12.54
   3  13  -4   35.68    2.00
   3  13  -4   25.74    5.87
  -3 -13   4   29.16    1.56
   3  13  -3  277.66   13.08
  -3 -13   3  239.31    3.97
   3  13  -2   -3.88    7.82
   3  13  -1  186.11   11.05
   3  13   0   14.06    5.16
   3  13   1  138.08    9.76
   3  13   2   22.29    5.64
   3  13   3   82.53    8.01
   3  13   4   -5.98    5.02
   3  13   5  346.76   17.53
   3  13   6   19.66   10.19
   3  13   7  122.52   10.38
   3  13   8    6.73    5.79
   3  13   9   34.17    7.23
   3  13  10    8.16    6.18
   3  13  11   56.25    9.07
   3  13  12   -3.13    6.76
   3  13  13   34.09    9.15
   3  14 -24   17.43   13.94
  -3 -14  24   17.14   14.17
   3  14 -23    6.71   13.00
  -3 -14  23   18.58    8.03
   3  14 -22   20.99   13.69
  -3 -14  22   33.30    8.49
   3  14 -21   32.40    8.04
  -3 -14  21   35.63    8.36
   3  14 -20   -5.82    5.84
  -3 -14  20   14.49    6.05
   3  14 -19   19.58    6.18
  -3 -14  19   12.92    6.64
   3  14 -18   13.56    5.60
  -3 -14  18    1.36   10.20
   3  14 -17    3.50    4.63
  -3 -14  17   -2.51    5.28
   3  14 -16   19.99    5.64
  -3 -14  16   40.56    6.49
   3  14 -15  120.77   12.89
  -3 -14  15  116.80    9.61
   3  14 -14   27.12    4.63
  -3 -14  14   21.70    5.66
   3  14 -13    7.56    5.81
  -3 -14  13    1.61    4.39
   3  14 -12  209.51    8.68
  -3 -14  12  223.40   11.06
   3  14 -11   15.41    5.46
  -3 -14  11   17.56    4.24
   3  14 -10  231.81    7.90
  -3 -14  10  255.09    9.98
   3  14  -9   -0.89    2.10
  -3 -14   9    1.49    2.68
   3  14  -8  100.86    6.09
  -3 -14   8  100.66    4.86
   3  14  -7   -0.94    4.95
   3  14  -7    0.14    1.63
  -3 -14   7   -0.85    3.31
   3  14  -6  308.18   24.13
   3  14  -6  272.34    7.98
  -3 -14   6  262.00    6.46
   3  14  -5   13.99    5.44
   3  14  -5    9.29    1.90
  -3 -14   5   14.50    1.25
   3  14  -4  337.98   15.50
  -3 -14   4  276.48    3.68
   3  14  -3   11.46    5.49
   3  14  -2  186.06   11.57
   3  14  -1   11.95    9.21
   3  14   0  260.35   14.32
   3  14   1    4.03    5.05
   3  14   2   60.22    7.73
   3  14   3   30.80    6.59
   3  14   4   38.50   11.69
   3  14   5   19.20    6.34
   3  14   6   93.35   16.14
   3  14   7   -2.17    5.64
   3  14   8    8.33    6.42
   3  14   9   29.97    7.81
   3  14  10    8.44    6.72
   3  14  11   -1.67    6.30
   3  15 -23    9.52    7.30
  -3 -15  23    4.73    7.22
   3  15 -22   25.99    7.63
  -3 -15  22    3.78   12.89
   3  15 -21   12.42    6.81
  -3 -15  21   11.56    7.13
   3  15 -20   20.84    6.96
  -3 -15  20   24.56    7.34
   3  15 -19   10.50    5.86
  -3 -15  19   10.67    6.34
   3  15 -18   -4.57    5.09
  -3 -15  18   -2.29    5.57
   3  15 -17   89.18   13.48
  -3 -15  17  104.72    9.70
   3  15 -16   -0.94    4.15
  -3 -15  16    2.53    4.81
   3  15 -15   38.32    5.61
  -3 -15  15   47.71    6.57
   3  15 -14   21.84    6.98
  -3 -15  14   11.05    5.12
   3  15 -13   37.15    4.33
  -3 -15  13   26.44    5.46
   3  15 -12   -0.67    4.77
  -3 -15  12    1.00    3.57
   3  15 -11  177.06    6.94
  -3 -15  11  188.32    8.63
   3  15 -10   12.87    2.71
  -3 -15  10   10.71    3.28
   3  15  -9  144.28    5.15
  -3 -15   9  148.14    6.13
   3  15  -8    4.33    5.43
   3  15  -8    1.71    2.91
  -3 -15   8   -1.90    3.26
   3  15  -7  184.15   17.91
   3  15  -7  134.05    3.82
  -3 -15   7  133.86    4.01
   3  15  -6   -1.55    5.13
   3  15  -6    0.75    1.66
  -3 -15   6   -0.30    1.05
   3  15  -5  186.91   18.10
  -3 -15   5  148.72    2.36
   3  15  -4    5.61    5.53
   3  15  -3   14.14    5.88
   3  15  -2   27.69    6.66
   3  15  -1   65.88    8.19
   3  15   0   -4.67    5.36
   3  15   1   99.73    9.81
   3  15   2   -2.11    8.96
   3  15   3   -3.58    5.62
   3  15   4  114.29   10.64
   3  15   5    7.15    5.95
   3  15   6   55.12    8.77
   3  15   7   15.60    7.04
   3  15   8   41.55    8.90
   3  15   9    0.61    6.35
   3  15  10   11.55    7.45
   3  16 -22   58.90    9.45
  -3 -16  22   45.72    9.61
   3  16 -21   -0.06    5.88
  -3 -16  21   -0.64    5.96
   3  16 -20   10.31    6.08
  -3 -16  20    6.67    6.54
   3  16 -19    2.81    9.41
  -3 -16  19    9.17    6.03
   3  16 -18   21.55    6.10
  -3 -16  18   27.87   11.13
   3  16 -17   10.39    4.88
  -3 -16  17   -5.70    9.64
   3  16 -16   72.91    6.90
  -3 -16  16   58.29   13.32
   3  16 -15    4.44    6.62
  -3 -16  15    2.83    7.89
   3  16 -14   28.37    4.63
  -3 -16  14   37.76    9.32
   3  16 -13    5.27    5.74
  -3 -16  13    9.99    6.61
   3  16 -12    9.68    3.19
  -3 -16  12    8.54    3.65
   3  16 -11    7.88    2.93
  -3 -16  11   12.19    3.23
   3  16 -10   16.49    2.66
  -3 -16  10   13.52    3.02
   3  16  -9   12.19    7.08
   3  16  -9   19.11    2.37
  -3 -16   9   14.58    4.12
   3  16  -8    8.74    2.93
   3  16  -8   11.97   10.79
  -3 -16   8    9.30    1.86
   3  16  -7   18.01    6.25
   3  16  -7    9.46    1.31
  -3 -16   7   10.26    2.12
   3  16  -6  139.65   18.19
   3  16  -5   13.18    6.37
   3  16  -4   10.28   10.38
   3  16  -3   59.30    8.54
   3  16  -2   -4.42    9.48
   3  16  -1   48.75    7.87
   3  16   0   13.61    6.38
   3  16   1   -1.28    5.55
   3  16   2   27.77    7.09
   3  16   3   12.87    6.49
   3  16   4   -0.58    5.55
   3  16   5   36.25    8.09
   3  16   6   21.07    7.69
   3  16   7   41.15    9.05
   3  16   8   16.61    7.92
   3  17 -20   16.83    6.19
  -3 -17  20    1.75    6.71
   3  17 -19   19.07    5.97
  -3 -17  19    6.39    6.75
   3  17 -18    9.15    5.49
  -3 -17  18   13.25    6.30
   3  17 -17   -2.57    7.65
  -3 -17  17    5.46    5.33
   3  17 -16    4.83    4.22
  -3 -17  16    0.57    4.92
   3  17 -15    6.27    3.97
  -3 -17  15    3.86    4.63
   3  17 -14    9.15    6.38
  -3 -17  14   12.37    4.34
   3  17 -13    8.69    3.41
  -3 -17  13   11.83    6.41
   3  17 -12    8.05    2.96
  -3 -17  12    1.30    3.11
   3  17 -11   21.71    6.82
   3  17 -11    8.48    2.69
  -3 -17  11    3.22    2.80
   3  17 -10   14.97    2.41
  -3 -17  10   20.14    4.19
   3  17  -9   -1.32   10.15
   3  17  -9    1.50    2.69
  -3 -17   9   -0.82    1.61
   3  17  -8   81.24    8.59
  -3 -17   8   42.95    2.83
   3  17  -7    6.23   10.41
   3  17  -6    7.21    6.54
   3  17  -5  139.58   19.62
   3  17  -4   -6.60    6.41
   3  17  -3   35.04   13.02
   3  17  -2   17.09    6.97
   3  17  -1   12.06   11.03
   3  17   0   -7.77    6.38
   3  17   1   40.64   13.84
   3  17   2   -3.62    6.07
   3  17   3   12.84   11.98
   3  17   4   -3.82    6.60
   3  17   5   48.26   16.33
   3  17   6    3.53    6.98
   3  18 -19    4.88    5.50
   3  18 -18    1.98    7.88
  -3 -18  18   -0.32    5.25
   3  18 -17    5.01    4.73
  -3 -18  17    5.48    5.14
   3  18 -16    2.54    4.07
  -3 -18  16    0.20    4.42
   3  18 -15   11.64    4.36
  -3 -18  15   18.63    4.60
   3  18 -14    2.39    3.41
  -3 -18  14    2.23    3.57
   3  18 -13    7.65    3.27
  -3 -18  13    6.00    5.35
   3  18 -12   25.88    8.46
  -3 -18  12   19.37    3.27
   3  18 -11   14.84    7.83
   3  18 -10   59.62   10.14
   3  18  -9    6.69    6.98
   3  18  -8    0.08    9.82
   3  18  -7    6.08    6.90
   3  18  -6   90.30   11.05
   3  18  -5    8.37    6.94
   3  18  -4  126.33   12.83
   3  18  -3    5.23    6.67
   3  18  -2   53.58    9.44
   3  18  -1   -1.25    6.33
   3  18   0   71.94   10.68
   3  18   1    4.00    6.50
   3  18   2   48.83    9.48
   3  18   3    6.90    7.25
   3  19 -16    0.52    3.89
  -3 -19  16    2.68    4.04
  -3 -19  15   10.79    3.95
   3  19 -14   14.89    8.65
   3  19 -13    1.56    7.56
   3  19 -12   18.83    8.96
   3  19 -11   71.41   11.62
   3  19 -10   15.46    8.32
   3  19  -9   46.42   16.80
   3  19  -8    4.47    7.16
   3  19  -7   37.26    9.37
   3  19  -6   -4.15    7.07
   3  19  -5   72.26   11.03
   3  19  -4   11.18    7.58
   3  19  -3   45.71    9.73
   3  19  -2    0.67    6.81
   3  19  -1   42.11    9.70
   3  19   0    0.08    6.75
   3  20 -12   21.05    9.60
   3  20 -11   -5.33    7.75
   3  20 -10   41.77   10.48
   3  20  -9    0.86    7.40
   3  20  -8    8.06   13.65
   3  20  -7    1.23    7.38
   3  20  -6   19.04    8.59
   3  20  -5   -5.54    7.72
  -4  21  -2   18.38   11.75
  -4  21  -3    6.36    6.09
  -4  21  -4   24.67    7.11
  -4  20   3   15.97    7.52
  -4  20   2    6.36    6.57
  -4  20   1   34.72   13.64
  -4  20   0   -3.67    6.07
  -4  20  -1   14.80    6.66
  -4  20  -2   -6.40    5.71
  -4  20  -3   20.66    6.42
  -4  20  -4    4.42    8.96
  -4  20  -8    2.13    3.44
  -4  20  -8   -1.14    5.39
  -4  20  -9    5.95    3.78
  -4  20  -9   10.02    4.10
  -4  20 -10   11.52    4.09
  -4  20 -10   -1.92    4.36
  -4  20 -11    2.41    7.23
  -4  20 -11    8.26    4.67
  -4  20 -12    1.30    4.21
  -4  20 -12    0.60    4.67
  -4  20 -13   -3.05    4.62
  -4  20 -13    0.08    5.04
  -4  19   6    0.10    6.54
  -4  19   5    9.23    7.24
  -4  19   4   10.23   11.43
  -4  19   3   -0.15    5.88
  -4  19   2    9.19    6.46
  -4  19   1    8.08    5.89
  -4  19   0   -3.89    5.47
  -4  19  -1   20.26   10.59
  -4  19  -2   11.08    5.66
  -4  19  -3   19.24    5.94
  -4  19  -4   -1.21    4.71
  -4  19  -5    6.09    4.60
  -4  19  -5    4.70    2.76
  -4  19  -5    8.22    4.91
  -4  19  -6    3.54    7.44
  -4  19  -6    2.29    4.94
  -4  19  -6   -1.24    4.63
  -4  19  -7   15.16    4.93
  -4  19  -7   10.84    5.77
  -4  19  -7    9.67    3.77
  -4  19  -8    0.01    3.70
  -4  19  -8    6.71    3.44
  -4  19  -9    7.12    3.86
  -4  19  -9    7.01    4.17
  -4  19 -10    0.08    3.89
  -4  19 -10    6.64    4.24
  -4  19 -11    3.29    4.07
  -4  19 -11    1.04    7.64
  -4  19 -12    0.69    4.37
  -4  19 -12   11.72    8.16
  -4  19 -13    0.22    4.98
  -4  19 -13   19.16    5.49
  -4  19 -14   13.77    5.52
  -4  19 -14    6.28    5.88
  -4  19 -15   -8.58    6.44
   4 -18  -9    4.86    6.60
  -4  18   9    3.35    8.02
   4 -18  -8   17.29    6.94
  -4  18   8    2.40    7.87
  -4  18   7    8.41    7.38
  -4  18   6   24.65    7.84
  -4  18   5   14.91    6.99
  -4  18   4   99.56   17.31
  -4  18   3   14.71    6.43
  -4  18   2   48.83    8.05
  -4  18   1    2.35    5.12
  -4  18   0   54.84    7.62
  -4  18  -1    1.42    1.90
  -4  18  -1    2.91    3.16
  -4  18  -1   -2.64    4.77
  -4  18  -2   39.44    6.40
  -4  18  -2   37.15    3.01
  -4  18  -2   30.11    4.92
  -4  18  -3   -0.81    2.26
  -4  18  -3    0.39    2.25
  -4  18  -3  -12.95    7.47
  -4  18  -4    5.93    2.74
  -4  18  -4    7.83    2.70
  -4  18  -4   16.35    4.70
  -4  18  -5    2.61    4.59
  -4  18  -5    4.79    2.75
  -4  18  -5   -5.30    7.29
  -4  18  -6   13.65    4.84
  -4  18  -6   17.35    3.38
  -4  18  -6   12.43    5.89
  -4  18  -7    1.07    3.24
  -4  18  -7    3.60    3.95
  -4  18  -7   -0.48    3.08
  -4  18  -8   13.05    4.47
  -4  18  -8   12.08    3.82
  -4  18  -8   14.24    3.92
  -4  18  -9   26.85    4.83
  -4  18  -9   22.53    4.52
  -4  18  -9   23.23    4.68
  -4  18 -10    5.24    6.25
  -4  18 -10   -0.57    6.49
  -4  18 -10    4.49    7.18
  -4  18 -11   20.77    5.02
  -4  18 -11   22.57    4.76
  -4  18 -11   26.19    5.49
  -4  18 -12    8.36    7.59
  -4  18 -12    6.36    6.87
  -4  18 -12    6.90    5.05
  -4  18 -13   16.94    5.11
  -4  18 -13   -1.50    5.49
  -4  18 -14    7.62    5.19
  -4  18 -14   -1.43    9.41
  -4  18 -15   15.95    5.76
  -4  18 -15   11.98    6.59
  -4  18 -16   -2.35    6.01
  -4  18 -17   10.06    6.97
   4 -17 -11   71.77   10.44
   4 -17 -10    6.96    6.53
   4 -17  -9   73.05   16.41
  -4  17   9   79.87   12.04
   4 -17  -8    4.32    6.05
  -4  17   8    6.06    7.09
   4 -17  -7   11.26    6.09
  -4  17   7    2.95    6.87
   4 -17  -6    3.72    5.70
  -4  17   6   12.03    6.28
  -4  17   5   37.45    7.64
  -4  17   4   -4.44    9.25
  -4  17   3  101.73    9.53
  -4  17   2   -4.32    8.28
  -4  17   2    2.00    2.45
  -4  17   2   -1.07    1.44
  -4  17   1   36.71    2.48
  -4  17   1   52.79    6.43
  -4  17   1   31.03    3.82
  -4  17   0    5.91    3.33
  -4  17   0   -0.78    4.94
  -4  17   0    8.82    2.02
  -4  17  -1   21.81    2.61
  -4  17  -1   28.54    5.66
  -4  17  -1   31.26    2.76
  -4  17  -2   10.21    5.14
  -4  17  -2   19.50    4.18
  -4  17  -2   13.39    4.30
  -4  17  -3    1.12    2.36
  -4  17  -3    1.41    2.37
  -4  17  -3    2.11    4.19
  -4  17  -4   41.62    3.60
  -4  17  -4   34.92    3.68
  -4  17  -4   38.47    5.61
  -4  17  -5    8.70    4.22
  -4  17  -5    9.20    3.00
  -4  17  -5    3.76    5.02
  -4  17  -6    1.43    3.66
  -4  17  -6    0.43    2.87
  -4  17  -6    0.41    2.94
  -4  17  -7   22.62    3.90
  -4  17  -7   29.34    4.51
  -4  17  -7   12.80    3.91
  -4  17  -8   43.22    7.98
  -4  17  -8   48.73    5.16
  -4  17  -8   41.12    4.74
  -4  17  -9    3.45    5.64
  -4  17  -9   -3.42    5.70
  -4  17  -9    0.73    3.68
  -4  17 -10   27.13    5.51
  -4  17 -10   48.60    5.26
  -4  17 -10   63.45    5.88
  -4  17 -11    4.67    6.59
  -4  17 -11   -0.13    4.18
  -4  17 -11    0.33    5.79
  -4  17 -12   18.00    5.13
  -4  17 -12   14.56    9.38
  -4  17 -12   16.39    4.18
  -4  17 -13   13.00    5.26
  -4  17 -13    8.07    5.75
  -4  17 -13   19.34    6.69
  -4  17 -14    5.69    3.51
  -4  17 -14   -5.70    5.30
  -4  17 -15    2.62    5.66
  -4  17 -16    6.61   10.62
  -4  17 -17    6.22    6.66
  -4  17 -18    7.88    7.07
   4 -16 -12    5.19    6.57
   4 -16 -11   10.42   10.93
   4 -16 -10   72.22    9.19
   4 -16  -9   -1.70    5.84
  -4  16   9  -11.60    7.15
   4 -16  -8    9.21    5.94
  -4  16   8   15.81    7.16
   4 -16  -7   50.52   13.18
  -4  16   7   71.14    9.36
   4 -16  -6   18.77    5.68
  -4  16   6    1.65    6.03
  -4  16   5   46.77    2.61
  -4  16   5   37.62    2.08
  -4  16   5   38.73    7.24
  -4  16   4    1.00    2.75
  -4  16   4    0.56    2.29
  -4  16   4   -5.78    4.80
  -4  16   3   44.98    2.54
  -4  16   3   40.65    2.26
  -4  16   3   45.28    6.92
  -4  16   2   21.51    3.79
  -4  16   2   33.02    9.71
  -4  16   2   27.31    3.53
  -4  16   1   22.64    2.29
  -4  16   1   29.90    2.50
  -4  16   1   21.25    5.69
  -4  16   0   36.05    9.35
  -4  16   0   24.08    4.18
  -4  16   0   31.29    2.79
  -4  16  -1   27.28    5.18
  -4  16  -1   21.00    2.60
  -4  16  -1   28.75    2.78
  -4  16  -2   20.83    4.36
  -4  16  -2   11.16    4.47
  -4  16  -2   14.74    7.93
  -4  16  -3   33.46    3.43
  -4  16  -3   34.33    3.19
  -4  16  -3   39.84    5.19
  -4  16  -4   13.01    4.70
  -4  16  -4   12.37    2.93
  -4  16  -4   12.69    6.99
  -4  16  -5   25.53    4.61
  -4  16  -5   36.77    3.60
  -4  16  -5   26.40    3.65
  -4  16  -6    0.30    5.92
  -4  16  -6    6.46    3.02
  -4  16  -6    2.07    3.09
  -4  16  -7   -0.97    3.35
  -4  16  -7    2.82    5.17
  -4  16  -7    6.68    5.16
  -4  16  -8   42.47    8.95
  -4  16  -8   89.68    5.44
  -4  16  -8   55.83    5.78
  -4  16  -9   12.13    4.30
  -4  16  -9   20.18    4.19
  -4  16  -9   17.50    3.94
  -4  16 -10    3.67    6.66
  -4  16 -10   14.06    7.13
  -4  16 -10    4.04    5.91
  -4  16 -11   26.82    5.62
  -4  16 -11   29.27    5.25
  -4  16 -11   24.30    4.20
  -4  16 -12    2.64    4.69
  -4  16 -12   22.69    5.20
  -4  16 -12   10.26    5.83
  -4  16 -13   -2.05    3.21
  -4  16 -13   -1.63    4.78
  -4  16 -14   43.60    7.96
  -4  16 -14   50.52    7.71
  -4  16 -15    7.61    5.59
  -4  16 -15   -0.14    3.45
  -4  16 -16   22.56    7.08
  -4  16 -16   18.66    4.26
  -4  16 -17    5.47   10.94
  -4  16 -18   10.43    7.43
  -4  16 -19    0.38    6.75
  -4  16 -20   12.03    8.33
   4 -15 -14   78.03   11.00
   4 -15 -13   24.98    7.74
   4 -15 -12  164.88   13.58
   4 -15 -11   -9.68    6.37
   4 -15 -10   26.87    4.60
   4 -15 -10   52.93    7.35
   4 -15  -9   11.23    2.33
   4 -15  -9   19.86    9.95
  -4  15   9    5.65    7.24
  -4  15   9   15.69    2.64
   4 -15  -8   47.75    6.71
  -4  15   8   38.14    8.17
  -4  15   8   35.30    3.06
   4 -15  -7    1.25    4.67
  -4  15   7   -9.82    5.43
  -4  15   7    1.90    2.05
   4 -15  -6  120.58    8.94
  -4  15   6  124.85    9.74
  -4  15   6   98.12    4.21
   4 -15  -5   -2.10    8.08
  -4  15   5    4.17    3.30
  -4  15   5    4.07    5.09
   4 -15  -4   97.09    7.71
  -4  15   4   96.10    8.35
  -4  15   4   80.33    3.63
  -4  15   3   10.00    3.54
  -4  15   3   12.65    5.06
  -4  15   2  107.01    4.05
  -4  15   2  115.36   13.14
  -4  15   2   95.99    3.53
  -4  15   1   31.14    2.68
  -4  15   1   23.47    2.39
  -4  15   1   30.69    5.32
  -4  15   0   11.72    6.37
  -4  15   0   -1.78    3.02
  -4  15   0   -0.63    3.36
  -4  15  -1  138.46    8.26
  -4  15  -1  136.50    5.07
  -4  15  -1  134.37    4.82
  -4  15  -2    1.49    6.46
  -4  15  -2    6.31    2.37
  -4  15  -2    3.94    3.89
  -4  15  -3   73.42    4.22
  -4  15  -3   82.83    6.95
  -4  15  -3   91.81    6.12
  -4  15  -4   34.98    4.25
  -4  15  -4   22.69    5.42
  -4  15  -4   15.69    5.38
  -4  15  -5   16.62    3.72
  -4  15  -5    9.60    5.22
  -4  15  -5   12.99    3.15
  -4  15  -6    4.04    4.52
  -4  15  -6   -2.29    3.04
  -4  15  -6    2.72    4.63
  -4  15  -7  129.80    7.02
  -4  15  -7  135.71    6.92
  -4  15  -7  143.09    7.04
  -4  15  -8   -3.21    3.29
  -4  15  -8   -3.85    3.06
  -4  15  -8    3.82    3.33
  -4  15  -9   83.00    8.86
  -4  15  -9   81.45   10.35
  -4  15  -9  105.28   11.03
  -4  15 -10   27.83    4.78
  -4  15 -10   13.76    4.87
  -4  15 -10   18.56    3.72
  -4  15 -11    3.21    4.17
  -4  15 -11   15.61    5.09
  -4  15 -11    4.54    4.52
  -4  15 -12    1.81    3.14
  -4  15 -12    8.48    4.79
  -4  15 -13   51.62    7.47
  -4  15 -13   68.93    8.03
  -4  15 -14    4.90    5.61
  -4  15 -14   13.04    3.49
  -4  15 -15   14.51    6.46
  -4  15 -16   16.62    6.84
  -4  15 -17   18.19    7.42
  -4  15 -18    7.51   11.80
  -4  15 -19   18.81    8.31
  -4  15 -20   22.55    8.99
   4 -14 -15   33.03    8.34
   4 -14 -14   18.61    7.33
   4 -14 -13  107.32   10.65
   4 -14 -13   90.03    8.31
   4 -14 -12   11.32    2.98
   4 -14 -12   21.54    6.34
  -4  14  12    9.92    5.65
   4 -14 -11  177.07   18.33
   4 -14 -11  120.20    8.67
  -4  14  11  136.88    6.43
   4 -14 -10    8.15    2.38
   4 -14 -10   12.19    5.27
  -4  14  10   -5.76    2.69
   4 -14  -9   32.87    3.07
   4 -14  -9   48.11    6.78
  -4  14   9   35.95    3.42
   4 -14  -8   14.77    6.07
   4 -14  -8   18.52    4.52
  -4  14   8   31.42    3.04
  -4  14   8   40.45    7.24
   4 -14  -7   21.16    2.66
   4 -14  -7   38.06    5.86
  -4  14   7   26.16    6.61
  -4  14   7   24.98    2.88
   4 -14  -6   25.61    5.71
  -4  14   6   30.93    2.89
  -4  14   6   27.60    6.35
   4 -14  -5   20.58    5.21
  -4  14   5   19.69    4.19
  -4  14   5   25.61    5.70
   4 -14  -4   99.01   11.82
  -4  14   4   83.57    3.81
  -4  14   4   87.18   12.77
   4 -14  -3   20.69    4.79
  -4  14   3   12.24    5.21
  -4  14   3   22.94    2.49
  -4  14   2  115.31    4.39
  -4  14   2  108.28   12.51
  -4  14   1   22.26    2.65
  -4  14   1   17.61    4.74
  -4  14   1   19.01    2.36
  -4  14   0   99.91   11.37
  -4  14   0   96.38    6.19
  -4  14   0  114.21    6.71
  -4  14  -1    2.24    3.61
  -4  14  -1    3.76    2.20
  -4  14  -1    2.37    2.10
  -4  14  -2  316.10   11.95
  -4  14  -2  292.64    8.78
  -4  14  -2  317.86    9.32
  -4  14  -3   -6.34    3.08
  -4  14  -3   -1.23    2.40
  -4  14  -3    1.10    2.36
  -4  14  -4  121.05    6.37
  -4  14  -4  120.94    5.37
  -4  14  -4  118.60    5.43
  -4  14  -5    3.31    5.13
  -4  14  -5   -1.49    2.81
  -4  14  -5    6.19    2.74
  -4  14  -6  110.96    5.86
  -4  14  -6  114.56    5.90
  -4  14  -6  101.12    5.74
  -4  14  -7   -1.97    3.05
  -4  14  -7   -0.35    3.01
  -4  14  -7    1.33    2.74
  -4  14  -8  139.58    6.51
  -4  14  -8  176.62   12.14
  -4  14  -8  141.58    7.92
  -4  14  -9   40.55    5.04
  -4  14  -9   42.07    5.18
  -4  14  -9   38.54    3.99
  -4  14 -10   -6.71    3.82
  -4  14 -10   10.77    4.57
  -4  14 -10   13.90    6.87
  -4  14 -11   84.78    7.10
  -4  14 -11   70.11    4.79
  -4  14 -12   31.07    5.72
  -4  14 -12   22.43    3.63
  -4  14 -13   69.96    7.53
  -4  14 -13   50.95    4.47
  -4  14 -14    9.42    5.78
  -4  14 -15   67.04    8.53
  -4  14 -16   -4.90    6.25
  -4  14 -17   48.15    9.02
  -4  14 -18   -0.02    6.35
  -4  14 -19   16.69    8.11
  -4  14 -20    3.17    7.47
  -4  14 -21   16.71    9.15
   4 -13 -17   11.19    7.21
   4 -13 -17    4.66    4.17
   4 -13 -16    3.70    7.20
   4 -13 -16   10.02    4.33
  -4  13  16   20.33    4.41
   4 -13 -15  116.59   10.94
   4 -13 -15   91.68   10.45
  -4  13  15   85.80   10.69
   4 -13 -14    4.38   10.39
   4 -13 -14    5.83    3.39
  -4  13  14    3.08    3.67
   4 -13 -13   20.25   11.71
   4 -13 -13   22.44    3.83
  -4  13  13   21.82    4.15
   4 -13 -12   26.85    6.76
   4 -13 -12   21.17    3.55
  -4  13  12   28.08    6.63
   4 -13 -11   58.77    7.58
   4 -13 -11   53.38    4.11
  -4  13  11   46.86    4.47
   4 -13 -10    2.45    2.55
   4 -13 -10   -3.13    4.92
  -4  13  10    1.37    2.71
   4 -13  -9   97.33    7.60
   4 -13  -9  123.62    9.23
  -4  13   9  111.43    5.46
   4 -13  -8    3.70    2.35
   4 -13  -8   13.57    8.27
  -4  13   8    2.79    5.69
  -4  13   8   10.50    2.63
   4 -13  -7   99.26    8.11
   4 -13  -7   86.20    4.11
  -4  13   7  111.43    9.01
  -4  13   7   92.45    4.48
   4 -13  -6   29.17    2.75
   4 -13  -6   27.01    5.37
  -4  13   6   25.13    2.90
  -4  13   6   22.79    9.75
   4 -13  -5  225.28   16.11
  -4  13   5  208.37   11.58
  -4  13   5  192.04    9.56
   4 -13  -4   12.21    4.43
  -4  13   4   12.88    2.39
  -4  13   4   15.39    8.08
   4 -13  -3  358.90   21.80
  -4  13   3  373.94    9.98
  -4  13   3  347.20   15.31
   4 -13  -2    5.87    3.85
  -4  13   2   -5.64    6.76
  -4  13   2    8.97    3.68
  -4  13   1   84.44    6.41
  -4  13   1   85.29    4.01
  -4  13   0   53.30    5.21
  -4  13   0   52.52    3.41
  -4  13  -1   95.97    4.29
  -4  13  -1  106.92    7.10
  -4  13  -1  108.92    6.35
  -4  13  -2   10.89    3.33
  -4  13  -2    6.09    2.58
  -4  13  -2    8.30    2.44
  -4  13  -3  160.76    9.62
  -4  13  -3  185.33    6.54
  -4  13  -3  162.46   11.37
  -4  13  -4   44.26    3.98
  -4  13  -4   40.89    3.72
  -4  13  -4   40.88    3.66
  -4  13  -5   54.40    4.13
  -4  13  -5   50.64    4.24
  -4  13  -5   46.23    4.22
  -4  13  -6   36.07    6.50
  -4  13  -6   29.47    6.01
  -4  13  -6   27.27    3.94
  -4  13  -7  233.85    9.47
  -4  13  -7  216.62    9.38
  -4  13  -7  212.56    7.94
  -4  13  -8   11.17    3.74
  -4  13  -8    3.48    3.73
  -4  13  -8    5.85    2.84
  -4  13  -9   48.88    5.64
  -4  13  -9   61.21    5.92
  -4  13  -9   58.09    6.46
  -4  13 -10  134.07    8.52
  -4  13 -10  135.32    5.84
  -4  13 -11    4.66    7.71
  -4  13 -11    5.73    2.83
  -4  13 -12  112.14    9.00
  -4  13 -12  115.07    5.52
  -4  13 -13   26.04    6.01
  -4  13 -14   40.57    7.40
  -4  13 -15   11.21    6.19
  -4  13 -16   73.14   15.51
  -4  13 -17   11.71    7.03
  -4  13 -18   24.58    8.34
  -4  13 -19   42.82   16.15
  -4  13 -20    6.35    7.83
  -4  13 -21    1.61    7.59
  -4  13 -22   14.14    9.26
   4 -12 -18   59.09    8.81
   4 -12 -18   29.65    6.16
  -4  12  18    1.87    9.19
   4 -12 -17    1.93    6.67
   4 -12 -17    8.93    4.52
  -4  12  17    2.04    4.33
   4 -12 -16  113.96   11.94
   4 -12 -16  106.56    7.89
  -4  12  16  124.66   12.78
   4 -12 -15   12.15    6.11
   4 -12 -15   -0.66    6.59
  -4  12  15    7.90    4.23
   4 -12 -14  147.57   12.01
   4 -12 -14  138.28    7.71
  -4  12  14  141.99    8.11
   4 -12 -13    2.06    5.23
   4 -12 -13   -1.90    3.06
  -4  12  13    6.69    5.60
   4 -12 -12  119.04   10.32
   4 -12 -12  102.78    9.90
  -4  12  12  124.31    6.86
   4 -12 -11   -0.25    4.87
   4 -12 -11   -0.19    2.81
  -4  12  11   -3.48    3.01
   4 -12 -10  261.22   13.97
   4 -12 -10  247.81    8.81
  -4  12  10  267.30    9.43
   4 -12  -9   18.17    4.70
   4 -12  -9   13.39    5.20
  -4  12   9   11.70    3.09
   4 -12  -8  175.65    6.85
   4 -12  -8  205.48   10.99
  -4  12   8  169.14   12.39
  -4  12   8  209.81    7.04
   4 -12  -7  148.73    5.68
   4 -12  -7  150.17    9.21
  -4  12   7  172.11   10.92
  -4  12   7  159.68    5.92
   4 -12  -6   16.45    7.45
   4 -12  -6    9.65    3.98
  -4  12   6   10.31    8.45
  -4  12   6    7.71    2.52
   4 -12  -5  110.68    7.07
   4 -12  -5  110.88    7.61
  -4  12   5  114.27    8.21
  -4  12   5  113.78    4.71
   4 -12  -4  130.74   13.09
   4 -12  -4  138.69    5.13
  -4  12   4  154.91    7.98
  -4  12   4  150.65    8.70
   4 -12  -3   14.24    4.19
  -4  12   3   17.75    2.51
  -4  12   3   20.12    4.52
   4 -12  -2  169.42   13.40
  -4  12   2  181.07   14.25
  -4  12   2  178.96    5.99
   4 -12  -1   90.10    6.18
  -4  12   1  112.30    6.48
  -4  12   1  109.20    6.87
  -4  12   0  118.79    4.73
  -4  12   0  115.31   10.40
  -4  12  -1   21.22    3.53
  -4  12  -1   15.06    2.73
  -4  12  -2  141.23    5.42
  -4  12  -2  146.52    6.56
  -4  12  -2  158.97    5.81
  -4  12  -3  131.14    9.80
  -4  12  -3  152.90    5.83
  -4  12  -3  141.57    5.54
  -4  12  -4    6.88    2.79
  -4  12  -4    4.10    4.75
  -4  12  -4    7.41    2.77
  -4  12  -5  126.11    5.38
  -4  12  -5  143.38    6.11
  -4  12  -5  109.72    5.96
  -4  12  -6  162.46    6.15
  -4  12  -6  160.05    7.38
  -4  12  -6  152.06    7.18
  -4  12  -7   -1.20    3.25
  -4  12  -7   -2.29    4.02
  -4  12  -7    1.55    3.18
  -4  12  -8  339.44   12.91
  -4  12  -8  312.97    9.56
  -4  12  -8  308.45   12.55
  -4  12  -9    0.43    3.74
  -4  12  -9   -1.69    2.40
  -4  12 -10  109.79    8.33
  -4  12 -10  123.78    5.30
  -4  12 -11   96.38    7.85
  -4  12 -12   67.58    7.39
  -4  12 -13   14.44    5.47
  -4  12 -14  131.35   16.86
  -4  12 -15  -10.52    6.23
  -4  12 -16   66.76    8.97
  -4  12 -17   14.68   12.14
  -4  12 -18  114.06   12.38
  -4  12 -19   -4.59    7.22
  -4  12 -20   99.87   13.18
  -4  12 -21    9.23    8.43
  -4  12 -22   20.65    9.83
   4 -11 -19   89.23   12.39
   4 -11 -19  110.38    9.60
  -4  11  19  110.51   14.56
   4 -11 -18   17.10    6.88
   4 -11 -18    4.75    4.98
  -4  11  18    2.37    4.70
   4 -11 -17   94.94   10.78
   4 -11 -17   80.32    7.83
  -4  11  17  107.64   12.76
   4 -11 -16   -4.26    5.65
   4 -11 -16    0.59    3.96
  -4  11  16    2.63    4.02
   4 -11 -15  149.38   12.62
   4 -11 -15  142.26   13.54
  -4  11  15  160.56    8.94
   4 -11 -14    8.47    5.54
   4 -11 -14    0.72    3.58
  -4  11  14    1.92    6.40
   4 -11 -13   30.90    6.29
   4 -11 -13   21.42    4.16
  -4  11  13   17.16    4.43
   4 -11 -12   85.77    9.71
   4 -11 -12  110.07    6.36
  -4  11  12  124.98    6.60
   4 -11 -11   25.21   10.03
   4 -11 -11   23.82    3.72
  -4  11  11   26.36    6.51
   4 -11 -10    6.27    4.42
   4 -11 -10   -4.50    2.74
  -4  11  10    2.34    4.77
   4 -11  -9  360.79   16.12
   4 -11  -9  362.13   16.18
  -4  11   9  377.35   16.97
   4 -11  -8   30.48    5.41
   4 -11  -8   33.87    3.32
  -4  11   8   38.20    5.93
   4 -11  -7   92.25    4.59
   4 -11  -7   95.93   11.79
  -4  11   7   81.56    8.61
  -4  11   7  111.64    7.63
   4 -11  -6  395.66   15.57
   4 -11  -6  409.67   15.88
  -4  11   6  404.55   17.40
  -4  11   6  405.10   16.11
   4 -11  -5   33.56    4.96
   4 -11  -5   31.64    4.73
  -4  11   5   36.91    3.10
  -4  11   5   22.58    5.25
   4 -11  -4  418.43   15.42
   4 -11  -4  405.98   15.55
  -4  11   4  434.00   11.71
  -4  11   4  430.62   16.14
   4 -11  -3   33.35    4.39
   4 -11  -3   34.29    3.08
  -4  11   3   31.50    4.80
  -4  11   3   31.09    4.72
   4 -11  -2  141.23    6.91
  -4  11   2  147.63    7.41
  -4  11   2  142.63    5.08
   4 -11  -1  138.02    6.77
  -4  11   1  142.65    6.83
  -4  11   1  146.21    5.30
  -4  11   0   25.77    6.11
  -4  11   0   24.17    4.70
  -4  11  -1  383.81   10.99
  -4  11  -1  392.14   12.01
  -4  11  -2    0.35    2.52
  -4  11  -2    2.80    2.32
  -4  11  -3  246.11   12.22
  -4  11  -3  238.75    7.83
  -4  11  -3  276.34    8.53
  -4  11  -4   52.63    5.68
  -4  11  -4   42.33    3.95
  -4  11  -4   44.46    3.91
  -4  11  -5   38.48    3.88
  -4  11  -5   30.77    3.04
  -4  11  -5   28.37    3.86
  -4  11  -6   69.95    7.69
  -4  11  -6   53.86    3.46
  -4  11  -6   44.85    4.63
  -4  11  -7  489.24   13.01
  -4  11  -7  515.94   17.33
  -4  11  -7  439.92   16.14
  -4  11  -8   88.49   11.29
  -4  11  -8  112.84    4.47
  -4  11  -9  829.79   30.56
  -4  11  -9  864.96   30.29
  -4  11 -10   10.64    7.56
  -4  11 -11  329.61   15.17
  -4  11 -12    8.03    8.29
  -4  11 -13  263.65   14.34
  -4  11 -14    5.97    5.41
  -4  11 -15  142.94   11.99
  -4  11 -16   12.45    6.56
  -4  11 -17   69.48   16.10
  -4  11 -18   -2.65    6.87
  -4  11 -19   95.52   12.59
  -4  11 -20    2.13   12.49
  -4  11 -21   39.61   10.61
  -4  11 -22   30.42   10.56
   4 -10 -20   40.26   16.11
   4 -10 -20   59.39    8.12
  -4  10  20   31.49   12.24
   4 -10 -19   71.11   15.42
   4 -10 -19   39.40    7.42
  -4  10  19   52.44    7.09
   4 -10 -18   13.73   12.27
   4 -10 -18   15.68    5.73
  -4  10  18   23.01    5.67
   4 -10 -17   37.60   11.55
   4 -10 -17    7.91    5.26
  -4  10  17   25.19    5.44
   4 -10 -16  121.69   16.00
   4 -10 -16   65.80   11.94
  -4  10  16   84.14    7.68
   4 -10 -15    9.75    9.34
   4 -10 -15    8.98    4.10
  -4  10  15    0.86    4.20
   4 -10 -14   46.57   13.39
   4 -10 -14   54.57    5.78
  -4  10  14   75.08    6.06
   4 -10 -13  206.81   19.31
   4 -10 -13  175.72   13.55
  -4  10  13  194.93    9.43
   4 -10 -12   36.19    6.13
   4 -10 -12   27.85    4.20
  -4  10  12   36.09    7.36
   4 -10 -11  426.90   19.10
   4 -10 -11  413.65   14.00
  -4  10  11  441.76   14.99
   4 -10 -10   19.40    4.99
   4 -10 -10   13.95    3.31
  -4  10  10   15.47    3.49
   4 -10  -9   78.67    6.68
   4 -10  -9   70.23    7.05
  -4  10   9   60.34    4.63
   4 -10  -8  398.69   23.94
   4 -10  -8  391.81   12.10
  -4  10   8  401.68   12.18
   4 -10  -7   56.77    5.71
   4 -10  -7   51.55    3.72
  -4  10   7   59.17    4.02
   4 -10  -6   43.91    5.32
   4 -10  -6   47.04    3.55
  -4  10   6   41.97    6.11
  -4  10   6   52.48    3.65
   4 -10  -5  209.38    9.89
   4 -10  -5  207.27   14.24
  -4  10   5  206.11   10.01
  -4  10   5  203.06   10.15
   4 -10  -4   43.36    5.07
   4 -10  -4   33.39    4.34
  -4  10   4   34.10    3.08
  -4  10   4   31.89    4.66
   4 -10  -3  259.24   11.23
   4 -10  -3  262.08    9.86
  -4  10   3  247.05   15.83
  -4  10   3  271.40    7.83
   4 -10  -2   12.59    2.66
   4 -10  -2    7.77    5.53
  -4  10   2   15.23    2.57
  -4  10   2   20.59    3.56
   4 -10  -1  162.53    6.59
  -4  10   1  171.64    6.98
  -4  10   1  184.20    8.86
   4 -10   0  292.18    9.14
  -4  10   0  286.25    9.23
  -4  10   0  292.61    8.55
  -4  10  -1   36.26    3.36
  -4  10  -1   31.76    3.19
  -4  10  -2 1507.04   46.21
  -4  10  -2 1497.81   48.83
  -4  10  -3  137.15    8.23
  -4  10  -3  164.42    6.25
  -4  10  -3  140.32    5.90
  -4  10  -4  384.08   13.95
  -4  10  -4  396.88   12.44
  -4  10  -4  379.76   16.96
  -4  10  -5   66.61    4.75
  -4  10  -5   59.09    5.39
  -4  10  -5   57.24    4.54
  -4  10  -6   89.73    5.88
  -4  10  -6   97.94    6.07
  -4  10  -6   84.48    5.71
  -4  10  -7   18.94    4.15
  -4  10  -7   14.25    3.92
  -4  10  -7   13.64    6.80
  -4  10  -8  699.16   22.35
  -4  10  -8  690.24   24.18
  -4  10  -9   55.70    6.05
  -4  10  -9   55.06    3.17
  -4  10 -10  505.12   19.56
  -4  10 -11    3.94    4.51
  -4  10 -12  262.11   13.71
  -4  10 -13    3.07    5.13
  -4  10 -14  202.12   12.95
  -4  10 -15   34.70   12.04
  -4  10 -16   21.96    7.33
  -4  10 -17   88.71   10.70
  -4  10 -18   68.90   10.76
  -4  10 -19   30.51    9.11
  -4  10 -20   54.88   11.00
  -4  10 -21   57.84   11.53
  -4  10 -22    6.49    8.49
   4  -9 -21    7.74    7.52
   4  -9 -21    9.91    7.29
  -4   9  21   26.67   10.26
   4  -9 -20   86.06   11.18
   4  -9 -20   85.78   10.22
  -4   9  20   86.86    8.96
   4  -9 -19   16.94    6.45
   4  -9 -19   -0.76    5.68
  -4   9  19    2.45    9.01
   4  -9 -18  200.22   14.46
   4  -9 -18  188.12   19.26
  -4   9  18  196.28   12.25
   4  -9 -17   -5.50    5.60
   4  -9 -17   -1.68    7.44
  -4   9  17    0.21    4.55
   4  -9 -16   46.89    6.89
   4  -9 -16   24.55    5.51
  -4   9  16   26.16    5.76
   4  -9 -15  189.72   12.05
   4  -9 -15  161.78    9.55
  -4   9  15  184.77    9.99
   4  -9 -14    0.10    5.03
   4  -9 -14    5.36    3.78
  -4   9  14    5.44    6.73
   4  -9 -13   90.75    8.34
   4  -9 -13   88.76    6.22
  -4   9  13   87.16    6.47
   4  -9 -12  215.67   12.63
   4  -9 -12  231.30    9.60
  -4   9  12  226.29   10.12
   4  -9 -11   -0.46    4.47
   4  -9 -11    2.60    5.09
  -4   9  11    6.44    3.29
   4  -9 -10  281.30   13.13
   4  -9 -10  286.63   10.10
  -4   9  10  275.45   15.87
   4  -9  -9  159.60   14.13
   4  -9  -9  137.05    6.33
  -4   9   9  170.24   10.76
   4  -9  -8    0.24    3.83
   4  -9  -8    4.19    2.59
  -4   9   8   -0.05    4.65
   4  -9  -7  333.89   13.13
   4  -9  -7  341.31   10.24
  -4   9   7  357.16   15.64
   4  -9  -6   17.11    3.95
   4  -9  -6   18.65    2.76
  -4   9   6   10.66    4.83
  -4   9   6   19.60    4.97
   4  -9  -5  670.20   21.52
   4  -9  -5  640.26   18.18
  -4   9   5  695.52   23.79
  -4   9   5  667.64   18.55
   4  -9  -4   21.59    2.86
   4  -9  -4   13.89    3.62
  -4   9   4   25.20    2.84
  -4   9   4   15.40    6.78
   4  -9  -3  279.43    8.21
   4  -9  -3  261.32    9.29
  -4   9   3  266.53    9.88
  -4   9   3  274.21   11.75
   4  -9  -2  270.93    8.19
   4  -9  -2  301.67    9.15
  -4   9   2  267.46    9.27
  -4   9   2  271.08    8.01
   4  -9  -1    3.97    2.40
  -4   9   1    4.16    2.72
  -4   9   1    6.10    2.39
   4  -9   0  514.98   13.33
  -4   9   0  473.06   13.34
  -4   9   0  509.07   13.71
  -4   9  -1  418.44   10.91
  -4   9  -1  441.26   16.39
  -4   9  -2   27.75    3.35
  -4   9  -2   30.96    4.35
  -4   9  -3  988.19   30.88
  -4   9  -3 1000.61   29.82
  -4   9  -4   10.35    3.16
  -4   9  -4   19.51    5.48
  -4   9  -4   16.90    3.48
  -4   9  -5  115.65    5.58
  -4   9  -5   72.81    5.25
  -4   9  -5   94.06    5.40
  -4   9  -6  155.04    7.31
  -4   9  -6  139.57    4.18
  -4   9  -6  127.91   11.22
  -4   9  -7  154.39    4.39
  -4   9  -7  161.59    7.77
  -4   9  -8   37.42    4.83
  -4   9  -8   31.05    2.35
  -4   9  -9  145.34   13.44
  -4   9 -10   68.51    6.60
  -4   9 -11   53.96   11.25
  -4   9 -12   64.47    7.28
  -4   9 -13  179.24   18.31
  -4   9 -14   21.72    6.35
  -4   9 -15   48.99    7.89
  -4   9 -16  158.46   13.02
  -4   9 -17    5.12    6.46
  -4   9 -18  152.09   23.38
  -4   9 -19   47.17   10.19
  -4   9 -20   19.50    8.65
  -4   9 -21   19.96    9.25
  -4   9 -22   61.80   12.57
  -4   9 -23    4.29    4.12
  -4   9 -23    8.49   14.44
   4  -8 -22   41.96   15.43
   4  -8 -22   22.88    9.00
  -4   8  22   62.94   12.75
   4  -8 -21   14.03    7.40
   4  -8 -21   13.77    7.27
  -4   8  21   12.53    6.29
   4  -8 -20   34.98    8.07
   4  -8 -20   23.51    7.55
  -4   8  20   24.64   11.20
   4  -8 -19   49.16    8.86
   4  -8 -19   35.20    8.14
  -4   8  19   72.79    7.68
   4  -8 -18   11.56    5.99
   4  -8 -18   -0.18    5.37
  -4   8  18   12.51    8.66
   4  -8 -17  205.85   13.83
   4  -8 -17  209.44   12.27
  -4   8  17  204.70   12.11
   4  -8 -16   50.52    8.12
   4  -8 -16   64.60    6.57
  -4   8  16   57.03   11.22
   4  -8 -15   21.29    6.53
   4  -8 -15   39.07    8.80
  -4   8  15   33.37    5.56
   4  -8 -14  646.26   27.30
   4  -8 -14  614.74   23.16
  -4   8  14  646.34   24.03
   4  -8 -13   53.56    5.50
   4  -8 -13   69.33    7.13
  -4   8  13   52.75    9.59
   4  -8 -12  343.36   12.95
   4  -8 -12  347.46   16.21
  -4   8  12  349.41   13.65
   4  -8 -11   53.68    6.46
   4  -8 -11   52.87    4.87
  -4   8  11   59.90    5.24
   4  -8 -10  225.69   17.19
   4  -8 -10  197.10    8.21
  -4   8  10  206.06    8.64
   4  -8  -9   -2.40    6.40
   4  -8  -9    2.86    2.72
  -4   8   9    0.29    2.90
   4  -8  -8  162.31    8.62
   4  -8  -8  176.20   10.52
  -4   8   8  179.88    7.18
   4  -8  -7   29.39    4.40
   4  -8  -7   35.53    3.36
  -4   8   7   28.65    3.59
   4  -8  -6  187.32   13.21
   4  -8  -6  202.00    6.95
  -4   8   6  220.27    7.24
   4  -8  -5    4.98    2.96
   4  -8  -5    3.69    2.38
  -4   8   5    4.51    2.49
  -4   8   5   -3.93    3.69
   4  -8  -4  903.07   34.03
   4  -8  -4  866.88   24.70
  -4   8   4  891.71   30.85
  -4   8   4  908.44   28.54
   4  -8  -3   76.43    3.96
   4  -8  -3   76.74    4.28
  -4   8   3   82.13    7.61
  -4   8   3   61.63    3.85
   4  -8  -2  314.33    8.84
   4  -8  -2  290.03    8.82
  -4   8   2  310.32    9.39
  -4   8   2  317.75    8.93
   4  -8  -1  872.36   24.07
   4  -8  -1  845.71   22.34
  -4   8   1  850.38   23.01
  -4   8   1  868.92   30.26
   4  -8   0   74.92    3.32
  -4   8   0   62.86    5.54
  -4   8   0   73.21    4.01
  -4   8  -1 1013.94   31.25
  -4   8  -1 1020.35   29.11
  -4   8  -2  120.37    5.29
  -4   8  -2  120.82    3.82
  -4   8  -3   44.53    3.78
  -4   8  -3   32.64    3.60
  -4   8  -4  189.26    7.51
  -4   8  -4  186.87    6.37
  -4   8  -4  174.61    6.86
  -4   8  -5  193.28    7.75
  -4   8  -5  167.44    4.06
  -4   8  -5  180.91   11.22
  -4   8  -6    2.54    3.60
  -4   8  -6   10.34    1.55
  -4   8  -6    5.88    3.27
  -4   8  -7  162.48    8.01
  -4   8  -7  167.74    6.05
  -4   8  -8  183.48    9.08
  -4   8  -9  105.90    7.35
  -4   8 -10    0.38    4.12
  -4   8 -11  373.59   16.36
  -4   8 -12   48.86    6.86
  -4   8 -13   39.11    6.78
  -4   8 -14  378.76   19.37
  -4   8 -15   14.46    6.25
  -4   8 -16   99.22   10.40
  -4   8 -17  112.22   11.80
  -4   8 -18  155.85   23.36
  -4   8 -19    8.62    7.72
  -4   8 -20   80.04   12.39
  -4   8 -21   10.07    8.28
  -4   8 -22   25.13    9.83
  -4   8 -22   20.54    4.43
  -4   8 -23   19.29   16.53
  -4   8 -23   17.79    4.47
   4  -7 -22   -5.57    6.75
   4  -7 -22    8.35    6.69
  -4   7  22    5.62    5.83
   4  -7 -21  118.39   12.54
   4  -7 -21  127.27   12.55
  -4   7  21  129.62   11.21
   4  -7 -20   34.34    8.00
   4  -7 -20   53.67   13.56
  -4   7  20   31.04    7.43
   4  -7 -19  130.49   11.25
   4  -7 -19  111.87   19.03
  -4   7  19  123.75   10.60
   4  -7 -18   15.90    6.31
   4  -7 -18   38.18   11.61
  -4   7  18   27.89    6.26
   4  -7 -17   41.00   11.84
   4  -7 -17   73.20    8.48
  -4   7  17   56.90   12.29
   4  -7 -16   31.35    6.51
   4  -7 -16   21.56    9.05
  -4   7  16   18.65    5.66
   4  -7 -15  256.59   15.24
   4  -7 -15  292.54   13.52
  -4   7  15  295.47   20.58
   4  -7 -14   71.51    7.69
   4  -7 -14   57.91    6.23
  -4   7  14   76.93    6.80
   4  -7 -13  724.27   28.24
   4  -7 -13  664.62   24.39
  -4   7  13  694.95   25.71
   4  -7 -12   10.10    4.53
   4  -7 -12   -2.40    3.42
  -4   7  12    2.82    3.66
   4  -7 -11  491.95   16.58
   4  -7 -11  464.66   28.81
  -4   7  11  489.36   24.63
   4  -7 -10   55.55   10.46
   4  -7 -10   70.22    4.96
  -4   7  10   67.57    5.27
   4  -7  -9  436.94   16.06
   4  -7  -9  429.98   13.64
  -4   7   9  460.17   14.60
   4  -7  -8   -2.09    3.64
   4  -7  -8    5.64    2.84
  -4   7   8   10.44    3.00
   4  -7  -7    2.05    2.61
   4  -7  -7    4.85    3.33
  -4   7   7    4.04    2.75
   4  -7  -6  442.94   20.13
   4  -7  -6  444.14   17.57
  -4   7   6  452.72   13.02
   4  -7  -5   24.88    3.26
   4  -7  -5   20.68    2.96
  -4   7   5   16.49    5.00
   4  -7  -4   56.08    6.41
   4  -7  -4   60.16    3.73
  -4   7   4   57.96    3.69
   4  -7  -3  722.42   18.91
   4  -7  -3  701.67   19.62
  -4   7   3  738.33   19.79
  -4   7   3  754.43   20.95
   4  -7  -2  104.20    7.11
   4  -7  -2   88.82    3.97
  -4   7   2  106.22    6.93
  -4   7   2   81.42    7.10
   4  -7  -1  254.97    6.53
   4  -7  -1  263.70   11.93
  -4   7   1  261.06    7.82
  -4   7   1  256.34    6.94
   4  -7   0 1182.51   35.10
  -4   7   0 1236.06   36.51
  -4   7   0 1214.45   31.87
   4  -7   1    6.98    1.63
  -4   7  -1   11.82    1.79
  -4   7  -1   13.38    2.73
  -4   7  -2  483.36   13.49
  -4   7  -2  447.50    9.10
  -4   7  -3  176.77    6.79
  -4   7  -3  161.02    3.54
  -4   7  -4  284.03    7.34
  -4   7  -4  309.85   10.19
  -4   7  -5    7.87    3.20
  -4   7  -5   16.92    3.46
  -4   7  -5   11.53    1.22
  -4   7  -6  196.57    3.67
  -4   7  -6  187.83    7.68
  -4   7  -7  394.65   13.69
  -4   7  -8   47.06    8.73
  -4   7  -9  807.70   28.86
  -4   7 -10   -4.23    4.34
  -4   7 -11  209.35   11.32
  -4   7 -12  105.56    8.77
  -4   7 -13  374.33   17.93
  -4   7 -14   10.98    5.86
  -4   7 -15  489.10   23.96
  -4   7 -16    1.88    5.80
  -4   7 -17  282.33   18.21
  -4   7 -18   15.50   13.08
  -4   7 -19  167.68   15.49
  -4   7 -20    8.04    7.43
  -4   7 -20   -4.34    3.24
  -4   7 -21   86.02   12.77
  -4   7 -22   18.59    4.24
  -4   7 -22   27.37    9.62
  -4   7 -23    7.84    3.98
   4  -6 -23   23.71    8.56
   4  -6 -23   30.22    8.41
  -4   6  23   23.05    7.69
   4  -6 -22   24.78    8.18
   4  -6 -22   22.57    8.20
  -4   6  22   29.02    7.44
   4  -6 -21    3.04    6.45
   4  -6 -21    2.64    6.32
  -4   6  21    5.11    5.94
   4  -6 -20  216.79   14.76
   4  -6 -20  184.34   14.75
  -4   6  20  207.36   14.09
   4  -6 -19   27.53    7.55
   4  -6 -19   35.28    7.25
  -4   6  19   33.22    6.94
   4  -6 -18  126.83   10.30
   4  -6 -18  112.26   10.55
  -4   6  18  128.64   10.15
   4  -6 -17   69.68    7.59
   4  -6 -17   63.34    8.21
  -4   6  17   59.11    7.78
   4  -6 -16  130.07    9.30
   4  -6 -16  145.44   16.97
  -4   6  16  147.08    9.83
   4  -6 -15    5.04    4.46
   4  -6 -15   10.05    9.04
  -4   6  15   10.41    4.73
   4  -6 -14  273.30   22.09
   4  -6 -14  248.68   18.18
  -4   6  14  248.18   18.99
  -4   6  14  247.55   18.95
   4  -6 -13  136.94   15.41
   4  -6 -13  136.23    7.84
  -4   6  13  127.00    8.48
   4  -6 -12   99.74   13.40
   4  -6 -12  102.45    6.62
  -4   6  12  106.78    7.18
   4  -6 -11   15.58    6.56
   4  -6 -11   14.39    8.60
  -4   6  11   24.43    4.23
   4  -6 -10  331.62   21.33
   4  -6 -10  373.25   12.38
  -4   6  10  347.02   19.10
   4  -6  -9   26.45    4.63
   4  -6  -9   31.93    3.84
  -4   6   9   28.74    6.74
   4  -6  -8  434.35   14.68
   4  -6  -8  414.02   13.10
  -4   6   8  436.11   19.64
   4  -6  -7   10.65    3.37
   4  -6  -7   10.70    2.82
  -4   6   7    7.28    5.12
   4  -6  -6   17.77    5.66
   4  -6  -6   14.53    2.99
  -4   6   6   18.27    5.12
   4  -6  -5  581.67   16.39
   4  -6  -5  614.47   16.70
  -4   6   5  604.28   16.58
   4  -6  -4  136.45    5.36
   4  -6  -4  133.89    5.13
  -4   6   4  139.53    5.43
   4  -6  -3   53.75    3.23
   4  -6  -3   53.62    3.91
  -4   6   3   66.81    3.76
   4  -6  -2 1054.62   26.76
   4  -6  -2 1043.08   29.90
  -4   6   2 1064.75   30.03
   4  -6  -1   67.54    2.88
   4  -6  -1   74.40    4.14
  -4   6   1   72.09    3.33
  -4   6   1   90.72    4.17
   4  -6   0  880.87   25.10
   4  -6   0  885.03   19.62
  -4   6   0  915.30   25.60
  -4   6   0  873.97   20.13
   4  -6   1    2.31    1.21
  -4   6  -1    4.49    2.60
  -4   6  -1    1.04    2.33
  -4   6  -2 1499.75   41.85
  -4   6  -2 1592.97   60.30
  -4   6  -3    4.61    2.78
  -4   6  -3    0.54    0.92
  -4   6  -4  378.00    6.03
  -4   6  -4  407.95   12.78
  -4   6  -5  379.96   13.04
  -4   6  -5  371.43    5.80
  -4   6  -5  374.37   11.64
  -4   6  -6  135.38    3.35
  -4   6  -6  139.06    6.40
  -4   6  -7    1.03    5.45
  -4   6  -8 1500.44   53.13
  -4   6  -9  371.70   14.56
  -4   6 -10 1521.74   74.98
  -4   6 -11   16.98    5.13
  -4   6 -12  528.49   22.46
  -4   6 -13    1.78    5.04
  -4   6 -14  508.45   24.05
  -4   6 -15    0.50    5.38
  -4   6 -16  340.66   19.41
  -4   6 -17   43.85    4.13
  -4   6 -17   52.27    8.74
  -4   6 -18  202.76   25.67
  -4   6 -18  191.42    7.90
  -4   6 -19   11.21    7.65
  -4   6 -20  193.38    8.39
  -4   6 -20  194.28   17.72
  -4   6 -21    9.33    7.81
  -4   6 -21    4.77    3.38
  -4   6 -22   20.50    7.15
  -4   6 -22   24.06    9.50
  -4   6 -23   52.32    5.46
   4  -5 -24   11.66    7.54
   4  -5 -24   -0.68    7.23
  -4   5  24    3.12   11.47
   4  -5 -23    8.28    6.70
   4  -5 -23   -9.59    6.80
  -4   5  23    4.68    6.08
   4  -5 -22   45.50    8.96
   4  -5 -22   23.30   14.36
  -4   5  22   33.87   13.17
   4  -5 -21   11.65    7.76
   4  -5 -21   25.51    7.79
  -4   5  21   36.14    7.41
   4  -5 -20    3.48    6.37
   4  -5 -20    7.28    6.28
  -4   5  20   10.35    6.13
   4  -5 -19   19.84    6.18
   4  -5 -19   12.52    6.31
  -4   5  19    0.09    6.11
   4  -5 -18  110.14    9.86
   4  -5 -18   86.80    9.86
  -4   5  18  112.52    9.88
   4  -5 -17   20.31   10.11
   4  -5 -17   12.60    6.31
  -4   5  17   31.60    5.92
   4  -5 -16  112.22   13.06
   4  -5 -16   85.87    8.91
  -4   5  16   92.54   13.65
   4  -5 -15  252.60   12.48
   4  -5 -15  243.40   13.61
  -4   5  15  265.69   13.08
   4  -5 -14   65.35    6.19
   4  -5 -14   58.42   11.68
  -4   5  14   52.57    6.65
   4  -5 -13   43.69    5.47
   4  -5 -13   64.46   10.76
  -4   5  13   55.18    9.79
   4  -5 -12  303.41   21.07
   4  -5 -12  295.18   12.00
  -4   5  12  299.89   12.58
   4  -5 -11   14.64    6.95
   4  -5 -11    0.50    3.49
  -4   5  11    4.97    3.69
   4  -5 -10   95.42    9.02
   4  -5 -10   92.75   10.95
  -4   5  10   79.79    5.73
   4  -5  -9  785.59   24.47
   4  -5  -9  762.85   25.33
  -4   5   9  809.81   24.33
   4  -5  -8  334.52   10.96
   4  -5  -8  351.88   12.01
  -4   5   8  352.36   16.87
   4  -5  -7 1123.84   42.43
   4  -5  -7 1109.91   34.33
  -4   5   7 1119.93   34.22
   4  -5  -6   31.48    3.49
   4  -5  -6   30.27    3.52
  -4   5   6   36.94    3.47
   4  -5  -5  813.21   28.48
   4  -5  -5  818.25   23.39
  -4   5   5  849.90   23.61
   4  -5  -4    1.49    2.17
   4  -5  -4    2.09    2.56
  -4   5   4    4.77    2.51
   4  -5  -3 1325.89   40.41
   4  -5  -3 1336.56   36.43
  -4   5   3 1374.48   49.63
   4  -5  -2   26.58    3.61
   4  -5  -2   28.62    3.28
  -4   5   2   25.14    3.18
   4  -5  -1  507.22   10.29
   4  -5  -1  513.56   19.75
  -4   5   1  496.27   13.96
   4  -5   0  219.39    7.74
   4  -5   0  239.69    6.21
  -4   5   0  236.26    7.67
   4  -5   1 1958.62   49.06
  -4   5  -1 1527.39   41.62
  -4   5  -1 2108.88   76.24
  -4   5  -2  508.94   10.03
  -4   5  -2  506.91   21.01
  -4   5  -3 4090.41  208.22
  -4   5  -3 4019.39  154.81
  -4   5  -4   47.16    4.29
  -4   5  -4   38.43    1.18
  -4   5  -5  563.82   17.34
  -4   5  -5  529.59    8.29
  -4   5  -5  535.97   15.99
  -4   5  -6  439.14   13.82
  -4   5  -7  133.90   10.77
  -4   5  -8    4.20    3.56
  -4   5  -9  944.55   32.92
  -4   5 -10   20.01    8.54
  -4   5 -11  539.46   21.43
  -4   5 -12    0.67    4.46
  -4   5 -13    5.95    2.43
  -4   5 -14    2.57    5.25
  -4   5 -14   -1.76    2.27
  -4   5 -15  212.21   13.55
  -4   5 -15  204.58    6.98
  -4   5 -16  209.33   15.00
  -4   5 -16  222.82   11.76
  -4   5 -17   70.97    4.49
  -4   5 -17   69.30    9.55
  -4   5 -18   68.54   16.08
  -4   5 -18   49.47    4.22
  -4   5 -19  116.14   13.50
  -4   5 -19  122.87    6.41
  -4   5 -20   12.36    6.06
  -4   5 -21  119.63   14.76
  -4   5 -21  135.65    7.11
  -4   5 -22   12.80    9.49
  -4   5 -22   18.77    4.28
  -4   5 -23   18.58    7.38
   4  -4 -24    0.78    7.66
   4  -4 -24    3.92    7.56
  -4   4  24   23.80    7.33
   4  -4 -23   30.30    9.89
   4  -4 -23   54.33    9.76
  -4   4  23   61.23    9.21
   4  -4 -22    1.01    6.74
   4  -4 -22    2.98    6.54
  -4   4  22    8.64    6.52
   4  -4 -21   56.22    9.41
   4  -4 -21   81.22    9.08
  -4   4  21   43.98    9.31
   4  -4 -20   -5.96    5.94
   4  -4 -20   -4.68    9.48
  -4   4  20   15.02    9.52
   4  -4 -19  164.33   12.37
   4  -4 -19  132.60   12.20
  -4   4  19  163.44   12.10
   4  -4 -18   13.62    6.12
   4  -4 -18   16.26    6.16
  -4   4  18   20.63   10.25
   4  -4 -17  208.00   12.94
   4  -4 -17  203.44   13.32
  -4   4  17  206.75   12.94
   4  -4 -16  118.14    9.91
   4  -4 -16  135.01   10.05
  -4   4  16  154.45    9.79
   4  -4 -15   20.44    5.57
   4  -4 -15   13.98    5.21
  -4   4  15   20.08    5.48
   4  -4 -14  546.70   31.27
   4  -4 -14  553.38   23.04
  -4   4  14  591.98   23.09
   4  -4 -13   55.31    5.81
   4  -4 -13   52.45    6.44
  -4   4  13   42.51   10.21
   4  -4 -12  257.96   11.26
   4  -4 -12  288.46   19.68
  -4   4  12  268.39   12.17
   4  -4 -11  231.01   18.60
   4  -4 -11  237.91   15.81
  -4   4  11  263.28   10.97
   4  -4 -10   94.30   11.01
   4  -4 -10   80.22    5.78
  -4   4  10   91.94    6.10
   4  -4  -9    4.95    6.35
   4  -4  -9    7.58    3.25
  -4   4   9    7.62    3.33
   4  -4  -8 1330.69   43.85
   4  -4  -8 1389.89   57.53
  -4   4   8 1390.22   44.79
   4  -4  -7  348.44   15.78
   4  -4  -7  334.10   10.76
  -4   4   7  346.18   10.90
   4  -4  -6 1689.07   54.88
   4  -4  -6 1719.37   57.66
  -4   4   6 1823.44   60.02
   4  -4  -5  148.13    5.38
   4  -4  -5  143.71    5.93
  -4   4   5  149.14    6.00
   4  -4  -4 4025.95  189.08
   4  -4  -4 4061.50  187.01
  -4   4   4 4159.22  189.87
   4  -4  -3  378.66   11.13
   4  -4  -3  397.02    9.06
  -4   4   3  393.43   11.14
   4  -4  -2 1214.95   29.67
   4  -4  -2 1207.42   36.03
  -4   4   2 1230.74   36.16
   4  -4  -1  968.91   28.13
   4  -4  -1  988.95   21.23
  -4   4   1  975.86   28.15
   4  -4   0   12.28    1.06
   4  -4   0    5.32    2.95
  -4   4   0    7.36    5.01
   4  -4   1  597.47   10.48
  -4   4  -1  618.32   24.05
  -4   4  -2 1283.53   39.87
  -4   4  -3  529.26   16.27
  -4   4  -4 2122.06   91.26
  -4   4  -5  124.88    6.44
  -4   4  -5  123.03    5.80
  -4   4  -6   20.17    0.91
  -4   4  -6   27.66    6.14
  -4   4  -7  939.59   30.19
  -4   4  -7 1028.12   21.42
  -4   4  -8    1.16    1.65
  -4   4  -8   -8.39    3.31
  -4   4  -9  352.68   14.28
  -4   4  -9  364.68    9.36
  -4   4 -10   49.19   10.07
  -4   4 -10   53.59    3.84
  -4   4 -11  145.76    9.07
  -4   4 -11  136.01    6.12
  -4   4 -12  195.82    5.41
  -4   4 -12  200.07   11.54
  -4   4 -13    5.15    5.14
  -4   4 -13    5.01    2.17
  -4   4 -14  348.54    9.75
  -4   4 -14  361.64   18.21
  -4   4 -15    4.53    2.49
  -4   4 -15    4.40    5.59
  -4   4 -16  156.85   12.79
  -4   4 -16  169.25    9.87
  -4   4 -17  274.23    9.47
  -4   4 -17  287.21   17.80
  -4   4 -18   38.46    4.05
  -4   4 -18   41.82    8.86
  -4   4 -19   33.24    4.32
  -4   4 -19   43.90    9.00
  -4   4 -20  238.29   14.96
  -4   4 -20  239.63   30.10
  -4   4 -21   -0.17    3.51
  -4   4 -22   82.60    6.50
  -4   4 -22   89.99   13.05
  -4   4 -23   10.16    4.31
  -4   4 -23   21.26    9.04
   4  -3 -25    6.10    8.17
   4  -3 -25    8.66    7.94
  -4   3  25   13.26   12.88
   4  -3 -24   18.41   14.68
   4  -3 -24   18.07    8.38
  -4   3  24   30.19    8.22
   4  -3 -23   12.01   12.55
   4  -3 -23   17.91   12.42
  -4   3  23    5.62   11.91
   4  -3 -22   16.25   12.83
   4  -3 -22   14.68    7.42
  -4   3  22   23.26    7.60
   4  -3 -21   58.30   16.35
   4  -3 -21   81.92    9.27
  -4   3  21   61.38    9.82
   4  -3 -20   -6.57   10.32
   4  -3 -20   -5.75    5.89
  -4   3  20   -3.45    6.26
   4  -3 -19   62.39   15.05
   4  -3 -19   72.06    9.16
  -4   3  19   78.17    9.30
   4  -3 -18   80.17   14.69
   4  -3 -18   79.50   14.99
  -4   3  18   78.49    9.11
   4  -3 -17   -0.28    4.93
   4  -3 -17    0.73    5.13
  -4   3  17    2.72    5.10
   4  -3 -16  234.76   12.90
   4  -3 -16  233.56   13.50
  -4   3  16  221.51   13.02
   4  -3 -15  250.20   13.01
   4  -3 -15  267.67   13.93
  -4   3  15  241.53   13.38
   4  -3 -14  168.27    9.64
   4  -3 -14  134.60   10.62
  -4   3  14  160.29   10.11
   4  -3 -13 1098.15   53.90
   4  -3 -13 1176.16   45.17
  -4   3  13 1161.64   43.22
   4  -3 -12   47.08    5.33
  -4   3  12   50.21    5.76
   4  -3 -11  459.70   16.31
  -4   3  11  499.45   17.61
   4  -3 -10   52.93    4.91
  -4   3  10   48.87    5.00
   4  -3  -9  418.24   13.93
  -4   3   9  430.03   13.79
   4  -3  -8  111.25    5.69
  -4   3   8  110.05    5.87
   4  -3  -7  274.80   14.00
  -4   3   7  287.48    9.65
   4  -3  -6  139.36    6.16
  -4   3   6  152.79    6.42
   4  -3  -5  744.87   21.24
  -4   3   5  751.63   21.37
   4  -3  -4  326.55   10.09
  -4   3   4  334.44   10.01
   4  -3  -3 2311.81   95.40
   4  -3  -3 2361.91   76.76
  -4   3   3 2290.16   82.52
   4  -3  -2   -0.79    2.62
   4  -3  -2    5.68    2.54
  -4   3   2    2.55    2.63
   4  -3  -1    8.32    2.08
   4  -3  -1   11.37    2.98
  -4   3   1   12.20    2.94
   4  -3   0 1921.92   66.30
   4  -3   0 1974.28   50.66
  -4   3   0 1955.70   76.99
   4  -3   1  462.77   13.31
   4  -3   1  438.83    6.00
  -4   3  -1  484.40   19.31
  -4   3  -2 1445.51   46.00
  -4   3  -3  275.66    9.55
  -4   3  -4    8.43    5.61
  -4   3  -5  567.62   17.82
  -4   3  -5  543.91   16.10
  -4   3  -6  652.92    9.74
  -4   3  -6  626.59   26.63
  -4   3  -7  101.69    5.56
  -4   3  -7   91.48    1.75
  -4   3  -8  463.29    8.29
  -4   3  -8  441.60   15.26
  -4   3  -9   -0.79    2.13
  -4   3  -9   -2.66    3.63
  -4   3 -10  445.14   26.49
  -4   3 -10  446.91   12.92
  -4   3 -11    4.56    4.56
  -4   3 -11    7.54    1.94
  -4   3 -12  214.51    6.34
  -4   3 -12  225.65   12.22
  -4   3 -13  156.19    5.52
  -4   3 -13  153.60   10.63
  -4   3 -14   32.56    3.16
  -4   3 -14   27.66    6.71
  -4   3 -15  458.46   18.26
  -4   3 -15  417.77   21.50
  -4   3 -16   22.62    5.58
  -4   3 -16   25.77    7.08
  -4   3 -17  155.44    6.77
  -4   3 -17  154.88   12.80
  -4   3 -18  117.86    6.32
  -4   3 -18  134.04   12.41
  -4   3 -19  135.53    6.95
  -4   3 -19  134.25   13.45
  -4   3 -20   -8.84    6.90
  -4   3 -20   -0.30    3.39
  -4   3 -21  158.27   13.26
  -4   3 -21  171.23   15.81
  -4   3 -22    8.72    4.09
  -4   3 -23   31.77   10.88
  -4   3 -23   47.38    5.54
   4  -2 -25    6.45    7.76
   4  -2 -25    0.35    7.70
  -4   2  25    4.72    7.51
   4  -2 -24   26.76    9.03
   4  -2 -24   30.71    8.55
  -4   2  24   24.12    8.56
   4  -2 -23   19.14    7.76
   4  -2 -23    8.84    7.38
  -4   2  23    0.95   12.66
   4  -2 -22   71.36    9.76
   4  -2 -22    6.94   15.27
  -4   2  22   53.32    9.65
   4  -2 -21    7.36    6.88
   4  -2 -21    8.36    6.48
  -4   2  21    2.80   11.06
   4  -2 -20  347.11   20.06
   4  -2 -20  352.05   20.26
  -4   2  20  300.36   20.10
   4  -2 -19   48.25    8.14
   4  -2 -19   49.99    8.47
  -4   2  19   43.26    8.35
   4  -2 -18  210.96   13.81
   4  -2 -18  222.33   14.47
  -4   2  18  193.22   13.69
   4  -2 -17   94.80    8.66
  -4   2  17   57.67    8.76
   4  -2 -16   11.34    9.43
  -4   2  16   17.27    5.82
   4  -2 -15  129.08    9.10
  -4   2  15  106.69   15.52
  -4   2  15  120.10   15.47
   4  -2 -14  197.43   11.05
  -4   2  14  205.73   11.69
   4  -2 -13   -6.48    4.17
  -4   2  13   -3.24    4.46
   4  -2 -12  428.40   24.37
  -4   2  12  474.78   26.55
   4  -2 -11    2.70    3.52
  -4   2  11    4.92    3.80
   4  -2 -10  617.15   20.14
  -4   2  10  619.25   20.37
   4  -2  -9   10.34    3.51
  -4   2   9   14.06    3.60
   4  -2  -8  166.66   11.52
  -4   2   8  173.19    7.35
   4  -2  -7 1362.60   44.00
  -4   2   7 1405.26   45.00
   4  -2  -6  148.64    6.57
  -4   2   6  170.03    6.71
   4  -2  -5  310.13    9.80
  -4   2   5  296.07    9.73
   4  -2  -4  167.01    6.63
  -4   2   4  166.97    6.56
   4  -2  -3  310.25    9.72
  -4   2   3  319.31   14.37
   4  -2  -2 1873.26   62.64
  -4   2   2 1920.61   63.88
   4  -2  -1  203.11   11.28
  -4   2   1  189.85    7.06
   4  -2   0   13.88    3.02
  -4   2   0    7.45    3.03
   4  -2   1 1562.41   50.56
   4  -2   1 1598.18   34.46
  -4   2  -1 1568.10   60.91
  -4   2  -2    1.03    2.75
  -4   2  -3  790.63   31.15
  -4   2  -4   93.46    8.86
  -4   2  -5  387.69   12.75
  -4   2  -6 1005.87   18.99
  -4   2  -6  948.90   38.42
  -4   2  -7   18.25    1.17
  -4   2  -7   26.25    3.63
  -4   2  -8  582.75   11.10
  -4   2  -8  546.88   18.33
  -4   2  -9   24.29    4.49
  -4   2  -9   22.75    3.04
  -4   2 -10  167.38    9.81
  -4   2 -10  183.94    4.89
  -4   2 -11  124.46    6.60
  -4   2 -11  110.69    8.34
  -4   2 -12    4.84    3.82
  -4   2 -12    7.77    4.65
  -4   2 -13   40.81    5.44
  -4   2 -13   50.59   11.03
  -4   2 -14  259.17   12.45
  -4   2 -14  272.33   14.60
  -4   2 -15   38.64    6.24
  -4   2 -15   50.73   12.38
  -4   2 -16  541.18   22.30
  -4   2 -16  473.26   24.37
  -4   2 -17   39.37    6.97
  -4   2 -17   50.89   13.39
  -4   2 -18  158.98   14.13
  -4   2 -18  162.78    7.51
  -4   2 -19   36.63    4.43
  -4   2 -19   11.83    8.54
  -4   2 -20  124.04    7.47
  -4   2 -20  158.47   13.44
  -4   2 -21   18.33    8.59
  -4   2 -21   21.80    4.53
  -4   2 -22   20.87    5.06
  -4   2 -22   56.00    9.44
  -4   2 -23   16.44    8.59
  -4   2 -23   33.92    9.80
   4  -1 -26   16.62    9.07
   4  -1 -26   12.36    8.89
  -4   1  26   11.38   14.16
   4  -1 -25   85.15   13.21
   4  -1 -25   88.23   20.97
  -4   1  25   93.68   12.66
   4  -1 -24   -9.99    7.43
   4  -1 -24    0.16    7.52
  -4   1  24   -0.24    6.95
   4  -1 -23   20.77    8.91
   4  -1 -23   40.06    9.18
  -4   1  23   32.11    9.02
   4  -1 -22   19.15    8.35
   4  -1 -22   46.64    8.67
  -4   1  22   18.57    8.44
   4  -1 -21   48.69    9.05
   4  -1 -21   42.83    9.32
  -4   1  21   42.16   14.73
   4  -1 -20    5.19    6.41
  -4   1  20    6.04    6.35
   4  -1 -19  330.72   20.00
  -4   1  19  378.77   31.41
   4  -1 -18    3.39    5.72
  -4   1  18    2.78    5.71
   4  -1 -17   11.04    5.82
  -4   1  17    8.37   10.11
   4  -1 -16   92.24    9.21
  -4   1  16  103.18    9.49
   4  -1 -15   15.44    5.48
  -4   1  15   15.67    9.46
   4  -1 -14  207.33   18.86
  -4   1  14  241.16   12.52
   4  -1 -13   12.17    4.51
  -4   1  13   10.86    4.84
   4  -1 -12  242.82   11.13
  -4   1  12  268.22   18.28
   4  -1 -11   59.57    9.25
  -4   1  11   69.94    5.99
   4  -1 -10    5.77    3.49
  -4   1  10    8.28    3.65
   4  -1  -9 1216.15   49.24
  -4   1   9 1161.33   38.12
   4  -1  -8    7.35    3.32
  -4   1   8    8.41    3.35
   4  -1  -7  285.56   10.12
  -4   1   7  319.25   10.51
   4  -1  -6  408.29   12.45
  -4   1   6  405.86   12.62
   4  -1  -5  138.63    6.10
  -4   1   5  139.44    6.09
   4  -1  -4   12.09    3.30
  -4   1   4   20.00    3.07
   4  -1  -3 1848.01   62.27
  -4   1   3 1887.08   73.12
   4  -1  -2 1201.04   35.86
  -4   1   2 1212.55   35.82
   4  -1  -1 1776.80   58.50
  -4   1   1 1788.97   58.49
   4  -1   0  565.91   15.98
  -4   1   0  574.64   16.10
   4  -1   1 1278.45   38.66
  -4   1  -1 1292.50   38.62
   4  -1   2   47.23    1.15
  -4   1  -2   46.37    6.67
   4  -1   3 1220.04   24.73
  -4   1  -3 1206.56   46.71
  -4   1  -4   10.98    3.18
  -4   1  -5 1233.18   38.66
  -4   1  -5 1159.98   35.15
  -4   1  -5 1200.94   25.08
  -4   1  -6  147.65    6.80
  -4   1  -6  173.34    3.10
  -4   1  -7  594.68   25.62
  -4   1  -7  641.75   14.86
  -4   1  -8   87.41    5.76
  -4   1  -8   83.30    2.68
  -4   1  -9 1223.26   36.36
  -4   1  -9 1144.68   40.47
  -4   1 -10  169.84    9.41
  -4   1 -10  184.08    5.21
  -4   1 -11  214.01   17.19
  -4   1 -11  226.74    6.40
  -4   1 -12   86.76    7.60
  -4   1 -12   87.43    6.71
  -4   1 -13   12.19    5.34
  -4   1 -13   10.23    4.59
  -4   1 -14    5.78    5.35
  -4   1 -14   11.98    4.80
  -4   1 -15  344.36   18.52
  -4   1 -15  375.38   11.93
  -4   1 -16   49.86    7.28
  -4   1 -16   47.73    7.88
  -4   1 -17   96.35    9.19
  -4   1 -17   81.52   10.05
  -4   1 -18   85.38    9.65
  -4   1 -18   89.13   10.50
  -4   1 -19  212.48   23.37
  -4   1 -19  159.72   13.04
  -4   1 -20   -1.56    3.53
  -4   1 -20    4.18    6.40
  -4   1 -21   92.44    7.03
  -4   1 -22   32.43    5.34
  -4   1 -22   31.56    9.47
  -4   1 -23    4.82    4.57
  -4   1 -23   15.48    8.19
   4   0 -26   33.89   10.56
  -4   0  26   35.89   17.15
   4   0 -25   24.15    9.32
   4   0 -25   20.61    9.73
  -4   0  25   29.02    9.14
   4   0 -24   54.32   11.52
   4   0 -24   87.94   11.94
  -4   0  24   60.82   10.79
   4   0 -23   -4.52    6.90
  -4   0  23    2.10    6.96
   4   0 -22   -5.82    6.57
  -4   0  22    0.22    6.81
   4   0 -21   77.67   10.47
  -4   0  21   63.74   17.40
   4   0 -20   19.07    7.34
  -4   0  20   16.82    7.59
   4   0 -19   -4.60    5.82
  -4   0  19    2.22   10.38
   4   0 -18   91.89    9.46
  -4   0  18   77.36    9.67
   4   0 -17   14.54    6.14
  -4   0  17    7.76   10.74
   4   0 -16    7.51    5.39
  -4   0  16    3.18    5.45
   4   0 -15   -8.44    4.89
  -4   0  15   10.79    8.70
   4   0 -14   74.13    8.10
  -4   0  14  121.78    8.54
   4   0 -13  134.78   13.96
  -4   0  13  135.46    8.92
   4   0 -12   24.08    4.64
  -4   0  12   17.25    8.38
   4   0 -11  171.62    8.92
  -4   0  11  208.63    9.41
   4   0 -10  346.01   12.59
  -4   0  10  349.59   12.74
   4   0  -9   85.03    5.87
  -4   0   9  100.72    5.99
   4   0  -8 2758.15  112.73
  -4   0   8 2821.69  113.87
   4   0  -7  860.21   26.44
  -4   0   7  893.15   27.22
   4   0  -6 1742.20   70.27
  -4   0   6 1755.78   58.65
   4   0  -5  184.24   11.13
  -4   0   5  182.88    7.03
   4   0  -4  337.33   15.70
  -4   0   4  356.72   10.79
   4   0  -3  435.93   12.51
  -4   0   3  416.78   12.24
   4   0  -2 2139.33   74.31
  -4   0   2 2182.28   87.53
   4   0  -1  970.46   27.32
  -4   0   1  953.58   27.26
   4   0   0 1981.84   67.19
  -4   0   0 2049.32   69.39
   4   0   1  407.94    6.53
   4   0   1  428.36   11.95
  -4   0  -1  429.18   11.91
   4   0   2 2453.55   75.08
  -4   0  -2 2438.76   89.84
   4   0   3  721.25   12.96
  -4   0  -3  738.66   20.95
   4   0   4 3423.57  129.83
  -4   0  -4 3554.79  154.05
   4   0   5    0.97    1.20
  -4   0  -5    0.09    2.85
  -4   0  -5    3.67    2.63
  -4   0  -5    2.92    1.14
  -4   0  -6  174.39    6.75
  -4   0  -6  178.85    5.45
  -4   0  -7  558.56   11.48
  -4   0  -7  530.53   16.57
  -4   0  -8  187.05    4.74
  -4   0  -8  179.07   12.68
  -4   0  -9   26.36    4.00
  -4   0  -9   20.51    4.29
  -4   0 -10  606.38   15.31
  -4   0 -10  568.82   20.74
  -4   0 -11    3.00    2.25
  -4   0 -11   -6.76    4.00
  -4   0 -12   65.28    6.44
  -4   0 -12   54.68    6.53
  -4   0 -13   19.58    5.24
  -4   0 -13   15.82    5.45
  -4   0 -14  240.89    8.54
  -4   0 -14  212.74   20.13
  -4   0 -15  116.46    9.64
  -4   0 -15  107.64    5.97
  -4   0 -16   57.94    4.83
  -4   0 -16   37.42   12.97
  -4   0 -17  109.38    6.54
  -4   0 -17  121.35   10.90
  -4   0 -18   62.53    5.62
  -4   0 -18   86.99    9.54
  -4   0 -19   44.93    5.19
  -4   0 -19   45.20    8.84
  -4   0 -20  181.32   14.79
  -4   0 -20  197.87   15.67
  -4   0 -21    6.73    6.73
  -4   0 -21   -5.02    6.53
  -4   0 -22   94.47   12.60
  -4   0 -22   95.85   12.67
   4   1 -26   19.98    8.82
  -4  -1  26    2.22    8.74
   4   1 -25   19.49    8.73
  -4  -1  25    4.95    8.57
   4   1 -24   -4.12   12.27
  -4  -1  24    9.32   12.11
   4   1 -23   25.14   13.70
  -4  -1  23   13.86    8.40
   4   1 -22    5.67   13.58
  -4  -1  22   29.01    8.36
   4   1 -21   21.36   12.69
  -4  -1  21   21.91    7.84
   4   1 -20    8.21   10.65
  -4  -1  20  -10.47    6.63
   4   1 -19   69.03   15.03
  -4  -1  19   60.93   15.54
   4   1 -18   -7.17   10.40
  -4  -1  18  -10.99    6.39
   4   1 -17   60.49    8.48
  -4  -1  17   98.06   15.16
   4   1 -16   18.39    5.93
  -4  -1  16   17.44    6.28
   4   1 -15  147.85   10.60
  -4  -1  15  152.57   17.61
  -4  -1  15  164.73   17.68
   4   1 -14  118.34    9.17
  -4  -1  14  138.21    9.79
   4   1 -13  785.92   30.04
  -4  -1  13  816.94   30.73
   4   1 -12   21.68    4.69
  -4  -1  12   14.64    4.95
   4   1 -11  184.79    8.88
  -4  -1  11  211.67    9.69
   4   1 -10  109.02   10.94
  -4  -1  10  129.02    7.06
   4   1  -9  667.41   21.00
  -4  -1   9  676.74   29.80
   4   1  -8  317.98   11.12
  -4  -1   8  324.89   17.09
   4   1  -7 2393.85  105.30
  -4  -1   7 2439.16   93.10
   4   1  -6  596.06   17.50
  -4  -1   6  578.15   24.68
   4   1  -5 1030.32   30.54
  -4  -1   5 1037.62   39.05
   4   1  -4  423.82   17.88
  -4  -1   4  420.26   12.31
   4   1  -3 1076.31   31.64
  -4  -1   3 1107.10   31.76
   4   1  -2  438.70   12.19
  -4  -1   2  469.72   12.77
   4   1  -1 1196.08   34.71
  -4  -1   1 1210.42   43.11
   4   1   0   10.25    2.61
  -4  -1   0    6.44    2.66
   4   1   1  274.63    8.37
   4   1   1  265.71    6.83
  -4  -1  -1  266.36    8.06
   4   1   2   56.88    1.88
  -4  -1  -2   49.77    3.73
   4   1   3 2287.62   74.42
  -4  -1  -3 2314.53   83.55
   4   1   4  246.90    7.09
  -4  -1  -4  238.74    8.07
   4   1   5 1406.11   36.32
  -4  -1  -5 1435.75   45.61
  -4  -1  -5 1337.31   42.14
  -4  -1  -5 1443.19   36.77
   4   1   6  114.49    5.61
  -4  -1  -6  118.04    5.74
  -4  -1  -6  109.14    5.25
  -4  -1  -6  108.93    3.23
  -4  -1  -7    3.41    1.81
  -4  -1  -7   13.52    3.05
  -4  -1  -8  482.37   11.45
  -4  -1  -8  448.86   15.23
  -4  -1  -9   67.78    5.76
  -4  -1  -9   60.35    9.38
  -4  -1 -10   76.33    6.25
  -4  -1 -10   81.88    4.10
  -4  -1 -11   41.12    3.55
  -4  -1 -11   45.33    5.56
  -4  -1 -12   32.36    6.02
  -4  -1 -12   28.63    9.49
  -4  -1 -13  233.04    8.26
  -4  -1 -13  197.92   11.60
  -4  -1 -14   11.21    3.40
  -4  -1 -14   12.94    5.32
  -4  -1 -15  363.82   12.56
  -4  -1 -15  323.21   17.00
  -4  -1 -16   11.94    3.74
  -4  -1 -16    5.05    5.91
  -4  -1 -17   47.80    5.23
  -4  -1 -17   57.57    8.31
  -4  -1 -18   72.95    6.16
  -4  -1 -18   79.01    9.36
  -4  -1 -19   69.65    9.25
  -4  -1 -19   54.23    6.06
  -4  -1 -20   -3.22    4.15
  -4  -1 -20   -2.10   10.78
  -4  -1 -21  177.16   15.80
  -4  -1 -21  190.93   10.84
  -4  -1 -22   10.37    4.84
  -4  -1 -22    0.19    7.46
   4   2 -26    4.67   13.60
  -4  -2  26   -6.61    8.17
   4   2 -25  -11.63   13.31
  -4  -2  25    8.09    7.74
   4   2 -24   42.70   10.24
  -4  -2  24   42.66   16.85
   4   2 -23   -7.07    7.87
  -4  -2  23  -13.80    7.91
   4   2 -22   45.02    9.59
  -4  -2  22   48.85   10.08
   4   2 -21   12.86    7.34
  -4  -2  21   15.45    7.58
   4   2 -20  182.90   14.61
  -4  -2  20  191.76   15.44
   4   2 -19   90.88   10.86
  -4  -2  19  161.42   19.17
   4   2 -18  191.94   14.02
  -4  -2  18  212.76   14.63
   4   2 -17   10.08    9.10
  -4  -2  17   -7.08    5.74
   4   2 -16   -4.82    5.41
  -4  -2  16   -8.13    5.71
   4   2 -15   22.70    5.92
  -4  -2  15   22.15    6.32
   4   2 -14  389.92   17.60
  -4  -2  14  403.32   18.41
   4   2 -13  130.49    9.09
  -4  -2  13  175.47   15.78
   4   2 -12  686.05   35.01
  -4  -2  12  704.39   26.38
   4   2 -11    6.45    3.73
  -4  -2  11    5.62    3.97
   4   2 -10   72.91    5.50
  -4  -2  10   80.38    9.50
   4   2  -9  160.21    7.46
  -4  -2   9  166.03    7.59
   4   2  -8  104.23    5.92
  -4  -2   8  120.11    6.25
   4   2  -7  252.85    8.84
  -4  -2   7  232.62    8.78
   4   2  -6   11.42    3.16
  -4  -2   6   16.33    3.24
   4   2  -5   82.20    4.62
  -4  -2   5   86.91    4.72
   4   2  -4  176.19    6.44
  -4  -2   4  177.59    6.50
   4   2  -3  189.74    6.68
  -4  -2   3  195.19   10.41
   4   2  -2  990.05   27.36
  -4  -2   2 1004.00   27.88
   4   2  -1   11.82    2.60
  -4  -2   1    4.58    2.58
   4   2   0   -2.11    2.16
  -4  -2   0    1.90    2.29
   4   2   1 1790.92   56.80
   4   2   1 1711.98   47.86
  -4  -2  -1 1797.57   65.76
   4   2   2   68.51    2.51
  -4  -2  -2   60.63    6.35
   4   2   3  212.93    4.90
  -4  -2  -3  198.48   10.41
   4   2   4 1050.37   25.64
  -4  -2  -4 1089.20   38.82
   4   2   5   31.61    2.36
  -4  -2  -5   35.75    3.50
  -4  -2  -5   34.34    3.29
  -4  -2  -5   31.73    2.29
   4   2   6  506.79   15.94
  -4  -2  -6  479.78   13.92
  -4  -2  -6  498.97   15.05
  -4  -2  -6  505.63   11.88
   4   2   7   14.70    4.05
  -4  -2  -7   -0.36    3.00
  -4  -2  -7   16.76    3.78
  -4  -2  -7   11.93    3.17
  -4  -2  -8  233.55    7.01
  -4  -2  -8  226.79    8.98
  -4  -2  -9   61.43    3.85
  -4  -2  -9   52.84    5.25
  -4  -2 -10   12.34    2.95
  -4  -2 -10   19.11    7.08
  -4  -2 -11  172.14   10.83
  -4  -2 -11  182.21    9.16
  -4  -2 -12   39.43    3.89
  -4  -2 -12   19.26    5.46
  -4  -2 -13   53.88    4.61
  -4  -2 -13   54.25   10.46
  -4  -2 -14  321.77   15.74
  -4  -2 -14  340.74   12.05
  -4  -2 -15   26.94    4.39
  -4  -2 -15   29.98   10.84
  -4  -2 -16  363.96   19.97
  -4  -2 -16  334.25   18.64
  -4  -2 -17    5.74    6.35
  -4  -2 -17    2.47    9.41
  -4  -2 -18    9.16    7.37
  -4  -2 -18   19.71    6.40
  -4  -2 -19   84.96   15.44
  -4  -2 -19   57.34   10.71
  -4  -2 -20   42.62    9.90
  -4  -2 -20   41.61    8.67
  -4  -2 -21    4.85    4.78
  -4  -2 -21   10.40    6.95
   4   3 -27  -12.33   15.32
  -4  -3  27   15.58    8.72
   4   3 -26   21.52    9.86
  -4  -3  26   27.05    9.96
   4   3 -25   64.06   11.88
  -4  -3  25   57.81   11.52
   4   3 -24    9.57    8.33
  -4  -3  24   23.34   14.00
   4   3 -23   23.30    8.94
  -4  -3  23   36.37    9.49
   4   3 -22    6.48    7.24
  -4  -3  22    5.00    7.37
   4   3 -21   66.58    9.96
  -4  -3  21   35.13   16.95
   4   3 -20   69.71   10.15
  -4  -3  20   84.83   10.65
   4   3 -19  293.60   18.35
  -4  -3  19  292.10   19.22
   4   3 -18   54.66    9.03
  -4  -3  18   92.83    9.85
   4   3 -17   88.66    9.14
  -4  -3  17   63.17    9.58
   4   3 -16   39.66   11.31
  -4  -3  16   31.00    7.26
   4   3 -15   25.09    6.17
  -4  -3  15   31.83    6.39
   4   3 -14   79.90    7.57
  -4  -3  14   79.99    8.22
   4   3 -13   84.18    6.86
  -4  -3  13   60.10    7.51
   4   3 -12   29.72    7.96
  -4  -3  12   16.39    5.02
   4   3 -11   30.09    4.85
  -4  -3  11   39.49    5.08
   4   3 -10  177.92    8.24
  -4  -3  10  178.89    8.62
   4   3  -9    7.73    3.40
  -4  -3   9   12.80    3.51
   4   3  -8  290.37   15.27
  -4  -3   8  299.10   10.50
   4   3  -7   12.00    3.27
  -4  -3   7   16.61    3.30
   4   3  -6  761.43   22.04
  -4  -3   6  776.73   22.19
   4   3  -5  370.68   10.74
  -4  -3   5  349.20   10.62
   4   3  -4  828.68   23.09
  -4  -3   4  857.56   23.57
   4   3  -3  380.48   10.48
  -4  -3   3  373.74   10.49
   4   3  -2  779.57   20.90
  -4  -3   2  817.60   21.33
   4   3  -1 1565.33   56.34
  -4  -3   1 1643.46   58.13
   4   3   0   24.91    2.33
   4   3   0   24.39    2.84
  -4  -3   0   33.57    2.92
   4   3   1    6.82    2.30
   4   3   1    2.79    2.92
  -4  -3  -1    1.97    2.22
   4   3   2  386.15    8.69
  -4  -3  -2  392.40   10.29
   4   3   3  115.11    3.86
  -4  -3  -3  125.21    4.86
   4   3   4    1.14    1.82
  -4  -3  -4    1.48    2.26
   4   3   5  623.62   20.27
  -4  -3  -5  633.89   17.51
  -4  -3  -5  624.73   22.25
   4   3   6   94.99    6.90
  -4  -3  -6  104.30    8.13
  -4  -3  -6   91.69    7.92
  -4  -3  -6   99.68    6.84
   4   3   7  550.19   15.36
  -4  -3  -7  568.06   16.98
  -4  -3  -7  591.76   15.45
  -4  -3  -7  568.15   23.41
   4   3   8   75.90    7.79
  -4  -3  -8   88.32    4.51
  -4  -3  -8   96.11    8.72
  -4  -3  -9  508.71   17.05
  -4  -3  -9  544.52   15.56
  -4  -3 -10    4.40    4.89
  -4  -3 -10    3.05    3.62
  -4  -3 -11  136.43    6.74
  -4  -3 -11  146.37   13.15
  -4  -3 -12  272.36    9.96
  -4  -3 -12  233.75   11.48
  -4  -3 -13   -1.97    5.39
  -4  -3 -13   -1.12    4.11
  -4  -3 -14   49.39    8.22
  -4  -3 -14   37.24   10.46
  -4  -3 -15  283.73   11.59
  -4  -3 -15  254.88   14.68
  -4  -3 -16    7.37    4.08
  -4  -3 -16    3.19    9.20
  -4  -3 -17   71.47    8.60
  -4  -3 -17   65.67    6.37
  -4  -3 -18   23.75    5.42
  -4  -3 -18   48.05    7.23
  -4  -3 -19   -9.28    4.25
  -4  -3 -19   23.18    5.75
  -4  -3 -20   43.23    9.18
  -4  -3 -20   68.33    7.08
  -4  -3 -21   34.18    6.19
  -4  -3 -21   35.46    8.37
   4   4 -27   14.14    9.45
  -4  -4  27    9.51    9.10
   4   4 -26   13.34   10.38
  -4  -4  26   43.83   10.36
   4   4 -25   51.00   11.46
  -4  -4  25   48.22   11.13
   4   4 -24   70.06   12.12
  -4  -4  24   77.38   11.95
   4   4 -23  -15.99    7.82
  -4  -4  23   -2.82    8.08
   4   4 -22    4.29    6.90
  -4  -4  22    7.80    7.34
   4   4 -21   21.56    7.97
  -4  -4  21   26.88   14.08
   4   4 -20   16.52    6.69
  -4  -4  20    1.89    7.29
   4   4 -19    8.41    6.56
  -4  -4  19    7.44    6.91
   4   4 -18  220.38   15.14
  -4  -4  18  234.81   15.72
   4   4 -17   16.80    6.62
  -4  -4  17   28.68    7.13
   4   4 -16    8.00    8.51
  -4  -4  16   -1.95    5.37
   4   4 -15   67.63    7.65
  -4  -4  15   76.50    8.43
   4   4 -14   10.46    4.85
  -4  -4  14    7.40    5.24
   4   4 -13   86.11    7.14
  -4  -4  13   76.97    7.80
   4   4 -12   -1.41    6.42
  -4  -4  12    2.15    4.11
   4   4 -11  164.61    8.50
  -4  -4  11  183.28    9.36
   4   4 -10   12.77    3.67
  -4  -4  10   13.02    3.96
   4   4  -9   10.28    3.26
  -4  -4   9    5.67    3.47
   4   4  -8  867.45   33.80
  -4  -4   8  852.32   35.18
   4   4  -7   71.81    4.68
  -4  -4   7   79.60    4.89
   4   4  -6    6.83    2.76
  -4  -4   6    6.47    2.95
   4   4  -5  926.78   26.25
  -4  -4   5  961.71   27.32
   4   4  -4  216.77   10.63
  -4  -4   4  228.27    7.32
   4   4  -3   41.33    3.16
  -4  -4   3   47.39    5.43
   4   4  -2 1055.57   28.75
  -4  -4   2 1080.16   29.62
   4   4  -1  894.16   23.49
  -4  -4   1  914.51   24.20
   4   4   0 2312.41   79.51
   4   4   0 2323.59   80.81
  -4  -4   0 2341.11   81.25
   4   4   1  219.40    6.25
  -4  -4  -1  222.54    6.50
   4   4   2  373.44    9.29
  -4  -4  -2  385.63   13.67
   4   4   3   33.97    4.62
  -4  -4  -3   32.26    4.82
   4   4   4  540.74   13.89
  -4  -4  -4  564.01   19.11
  -4  -4  -4  536.07   13.76
   4   4   5   15.24    2.65
  -4  -4  -5   14.68    2.63
  -4  -4  -5   15.78    2.71
   4   4   6  236.24    7.69
  -4  -4  -6  245.06    7.81
  -4  -4  -6  220.53    7.57
  -4  -4  -6  245.86    8.03
   4   4   7    4.09    2.67
  -4  -4  -7    4.22    2.65
  -4  -4  -7   -0.16    2.66
  -4  -4  -7    0.83    2.73
   4   4   8  359.50   11.33
  -4  -4  -8  361.29   11.66
  -4  -4  -8  343.58   10.98
  -4  -4  -8  340.52   11.42
   4   4   9   92.12    5.67
  -4  -4  -9  107.79    5.45
  -4  -4  -9   78.98    5.81
  -4  -4 -10  822.36   38.69
  -4  -4 -10  922.20   29.24
  -4  -4 -11    2.41    3.87
  -4  -4 -11    8.40    3.37
  -4  -4 -12    0.98    3.77
  -4  -4 -12   -1.04    3.21
  -4  -4 -13  295.22   14.10
  -4  -4 -13  353.25   12.97
  -4  -4 -14    1.83    4.63
  -4  -4 -14   -8.66    3.87
  -4  -4 -15   35.13    6.61
  -4  -4 -15   49.94    5.51
  -4  -4 -16   40.12    7.43
  -4  -4 -16   66.25    6.12
  -4  -4 -17   13.55    4.98
  -4  -4 -17   19.44    6.05
  -4  -4 -18   -3.59    4.60
  -4  -4 -18  -10.13    5.72
  -4  -4 -19   20.73    5.79
  -4  -4 -19   32.09    7.22
  -4  -4 -20   24.87    5.77
  -4  -4 -20    7.92    7.01
   4   5 -27    9.61    8.98
  -4  -5  27    1.37    8.54
   4   5 -26    4.39    9.19
  -4  -5  26   17.82    9.18
   4   5 -25    6.65    8.89
  -4  -5  25   20.56    8.89
   4   5 -24    2.79    8.30
  -4  -5  24   16.76    8.26
   4   5 -23   25.70    9.11
  -4  -5  23   30.79    9.41
   4   5 -22   18.28    7.61
  -4  -5  22    9.38    8.02
   4   5 -21   -9.18    6.78
  -4  -5  21    1.85    7.05
   4   5 -20   -1.16    6.47
  -4  -5  20   14.43    6.85
   4   5 -19   66.39    9.78
  -4  -5  19   88.72   10.36
   4   5 -18   43.47    8.28
  -4  -5  18   61.97   14.66
   4   5 -17   76.45    9.03
  -4  -5  17   88.70    9.54
   4   5 -16   69.26    8.43
  -4  -5  16   90.86   15.31
   4   5 -15  212.87   17.26
  -4  -5  15  139.63   11.51
   4   5 -14   60.88    7.40
  -4  -5  14   92.04    7.97
   4   5 -13  170.49    9.82
  -4  -5  13  164.82   10.76
   4   5 -12   12.19    6.95
  -4  -5  12    0.51    7.82
   4   5 -11   47.18    5.24
  -4  -5  11   56.40    5.77
   4   5 -10   11.10    3.85
  -4  -5  10   20.64    4.15
   4   5  -9  549.55   17.53
  -4  -5   9  602.32   19.15
   4   5  -8  626.35   19.10
  -4  -5   8  665.40   20.33
   4   5  -7 1898.16   76.35
  -4  -5   7 1901.19   66.86
   4   5  -6  572.22   15.92
  -4  -5   6  569.19   16.38
   4   5  -5  210.64   10.48
  -4  -5   5  225.38    7.30
   4   5  -4   78.66    4.01
  -4  -5   4   92.63    4.08
   4   5  -3  121.15    4.53
  -4  -5   3  132.82    4.60
   4   5  -2  181.30    8.35
  -4  -5   2  194.26    5.79
   4   5  -1 1400.57   40.54
  -4  -5   1 1433.32   41.43
   4   5   0  649.45   20.61
   4   5   0  639.66   16.86
  -4  -5   0  663.31   21.11
   4   5   1  929.55   25.34
  -4  -5  -1  914.43   23.80
   4   5   2  193.47    6.40
  -4  -5  -2  197.94    5.77
   4   5   3  576.75   21.01
  -4  -5  -3  569.08   14.31
   4   5   4  104.16    4.74
  -4  -5  -4  103.69    4.22
  -4  -5  -4   95.95    4.02
   4   5   5  326.13   10.03
  -4  -5  -5  334.51    9.08
  -4  -5  -5  306.47   12.74
   4   5   6   24.04    3.55
  -4  -5  -6   25.93    4.87
  -4  -5  -6   20.15    5.14
  -4  -5  -6   25.33    3.42
   4   5   7    0.41    2.90
  -4  -5  -7    2.89    2.48
  -4  -5  -7   -8.24    4.42
  -4  -5  -7   -4.71    2.92
   4   5   8   74.38    8.73
  -4  -5  -8   77.27    4.84
  -4  -5  -8   81.29    7.99
  -4  -5  -8   81.35    5.30
   4   5   9  338.67   12.14
  -4  -5  -9  337.11   11.59
  -4  -5  -9  350.36   12.21
  -4  -5  -9  326.97   11.64
   4   5  10   62.11    5.18
  -4  -5 -10   33.85    4.75
  -4  -5 -10   48.25    7.97
  -4  -5 -11  237.93    9.88
  -4  -5 -11  206.05   15.71
  -4  -5 -12   19.32    4.77
  -4  -5 -12   31.88    4.66
  -4  -5 -13    3.37    3.77
  -4  -5 -13   -0.15    4.19
  -4  -5 -14   72.39    7.24
  -4  -5 -14   73.04   10.73
  -4  -5 -15   23.74    5.51
  -4  -5 -15   15.28    8.29
  -4  -5 -16   13.23    4.82
  -4  -5 -16    9.56    5.42
  -4  -5 -17   10.68    5.03
  -4  -5 -17   16.37    5.84
  -4  -5 -18   10.60    6.13
  -4  -5 -18   17.81    5.42
  -4  -5 -19    5.89    5.91
  -4  -5 -19    9.90    5.28
   4   6 -27   -5.18    8.78
  -4  -6  27   -4.61    8.48
   4   6 -26    4.53    8.60
  -4  -6  26    9.13   14.37
   4   6 -25    3.07    8.96
  -4  -6  25   26.42    8.86
   4   6 -24   17.33    8.42
  -4  -6  24    6.30    8.44
   4   6 -23   36.52    9.66
  -4  -6  23   41.46   16.77
   4   6 -22   33.19    8.93
  -4  -6  22   40.97    9.42
   4   6 -21   19.82    7.84
  -4  -6  21   25.41    8.28
   4   6 -20   61.14    9.07
  -4  -6  20   41.35    9.57
   4   6 -19   54.81    9.01
  -4  -6  19   73.76    9.89
   4   6 -18  170.39   12.26
  -4  -6  18  138.70   13.17
   4   6 -17  216.04   14.43
  -4  -6  17  250.11   15.55
   4   6 -16  139.24   10.69
  -4  -6  16  148.90   11.77
   4   6 -15  172.89   18.59
  -4  -6  15  212.54   13.00
   4   6 -14  661.53   27.02
  -4  -6  14  702.46   28.86
   4   6 -13  743.92   28.06
  -4  -6  13  737.32   29.77
   4   6 -12  772.07   38.31
  -4  -6  12  797.43   30.42
   4   6 -11   49.47    5.16
  -4  -6  11   54.12    5.91
   4   6 -10   74.50    8.38
  -4  -6  10   60.92    5.79
   4   6  -9    7.67    3.01
  -4  -6   9    0.12    3.42
   4   6  -8  623.23   18.35
  -4  -6   8  623.91   27.17
   4   6  -7  740.79   27.75
  -4  -6   7  767.02   22.82
   4   6  -6  688.29   25.24
  -4  -6   6  716.97   20.41
   4   6  -5   68.00    3.61
  -4  -6   5   67.49    3.95
   4   6  -4   92.75    3.95
  -4  -6   4   88.13    4.06
   4   6  -3   10.16    2.24
  -4  -6   3   13.29    2.32
   4   6  -2  199.68    5.64
  -4  -6   2  207.56    5.78
   4   6  -1   12.24    2.92
   4   6  -1   11.39    3.41
  -4  -6   1   16.69    3.62
   4   6   0   39.93    2.75
   4   6   0   49.78    3.63
  -4  -6   0   56.78    4.51
   4   6   1   17.62    3.19
  -4  -6  -1   26.60    2.34
   4   6   2   72.15    7.15
  -4  -6  -2   72.58    3.23
   4   6   3   48.00    6.90
  -4  -6  -3   56.62    2.95
   4   6   4  679.60   26.50
  -4  -6  -4  656.52   16.43
  -4  -6  -4  669.55   16.96
   4   6   5  167.00   11.19
  -4  -6  -5  168.45    5.57
  -4  -6  -5  163.21    5.63
   4   6   6  121.65    9.57
  -4  -6  -6  112.10    4.49
  -4  -6  -6   96.48    4.69
   4   6   7   82.72    5.62
  -4  -6  -7   72.88    6.90
  -4  -6  -7   86.82    4.68
  -4  -6  -7   99.58    5.83
   4   6   8   45.75    4.59
  -4  -6  -8   36.56    3.82
  -4  -6  -8   32.85    3.48
  -4  -6  -8   37.82    4.66
   4   6   9    1.30    3.30
  -4  -6  -9    3.20    4.44
  -4  -6  -9   -6.26    3.38
  -4  -6  -9    0.36    2.93
   4   6  10  250.39   10.75
  -4  -6 -10  228.07    9.09
  -4  -6 -10  234.79   10.21
   4   6  11   26.08    5.07
  -4  -6 -11   25.29    4.05
  -4  -6 -11   28.82    4.63
  -4  -6 -11   19.95    4.32
  -4  -6 -12  102.68    7.43
  -4  -6 -12  126.99   12.10
  -4  -6 -13    1.47    3.95
  -4  -6 -13    2.23    4.05
  -4  -6 -14   91.29    7.20
  -4  -6 -14   71.84    7.25
  -4  -6 -15    5.77    4.68
  -4  -6 -15   10.62    7.83
  -4  -6 -16  112.61    9.35
  -4  -6 -16  129.69    9.26
  -4  -6 -17   -8.66    5.17
  -4  -6 -17   -3.44    4.96
  -4  -6 -18   11.41    5.95
  -4  -6 -18   16.69    5.75
  -4  -6 -19   22.43    6.44
  -4  -6 -19   15.41    6.26
   4   7 -26  -13.65    9.25
  -4  -7  26  -11.94   15.05
   4   7 -25    8.01    8.82
  -4  -7  25   13.19    8.80
   4   7 -24   13.83    9.22
  -4  -7  24   35.97    9.26
   4   7 -23   40.14    9.38
  -4  -7  23   22.76   15.86
   4   7 -22   11.59    7.78
  -4  -7  22   18.07    8.22
   4   7 -21   57.72    9.51
  -4  -7  21   49.14   10.10
   4   7 -20  113.51   11.60
  -4  -7  20  110.10   20.50
   4   7 -19  209.90   14.96
  -4  -7  19  193.59   15.51
   4   7 -18  302.52   18.18
  -4  -7  18  348.78   19.36
   4   7 -17   55.11    7.98
  -4  -7  17   56.65   14.23
   4   7 -16   37.21   10.57
  -4  -7  16   26.52    7.15
   4   7 -15   86.26    7.87
  -4  -7  15   85.76    8.95
   4   7 -14  155.49    9.46
  -4  -7  14  140.78   10.48
   4   7 -13  454.17   18.21
  -4  -7  13  470.48   20.26
   4   7 -12  254.88   17.10
  -4  -7  12  237.45   12.54
   4   7 -11  107.67    6.72
  -4  -7  11  114.05    7.74
   4   7 -10   41.99    7.28
  -4  -7  10   47.53    5.16
   4   7  -9    1.06    2.92
  -4  -7   9    3.91    3.36
   4   7  -8    1.28    2.65
  -4  -7   8    2.43    3.02
   4   7  -7   78.22    4.18
  -4  -7   7   66.03    4.56
   4   7  -6   12.80    2.57
  -4  -7   6   11.15    4.89
   4   7  -5    4.30    2.26
  -4  -7   5   10.54    2.52
   4   7  -4   97.23    3.94
  -4  -7   4  106.57    4.23
   4   7  -3   12.67    2.03
  -4  -7   3    6.53    2.23
   4   7  -2   -3.86    3.01
  -4  -7   2   -1.89    1.94
   4   7  -1   79.30    3.23
   4   7  -1   70.57    4.90
  -4  -7   1   80.86    5.22
   4   7   0   19.40    3.43
  -4  -7   0   15.37    3.44
   4   7   1   49.62    4.28
  -4  -7  -1   44.01    2.60
   4   7   2  193.16    7.57
  -4  -7  -2  184.89    5.28
   4   7   3   41.68    4.12
  -4  -7  -3   41.19    2.57
  -4  -7  -3   37.24    4.20
   4   7   4  120.97    9.68
  -4  -7  -4  111.74    4.09
  -4  -7  -4  107.87    4.04
   4   7   5  421.72   20.99
  -4  -7  -5  427.31   10.69
  -4  -7  -5  443.14   11.28
   4   7   6   36.43    4.75
  -4  -7  -6   47.61    3.13
  -4  -7  -6   47.90    3.37
   4   7   7  175.47    8.55
  -4  -7  -7  194.81    6.72
  -4  -7  -7  174.55    6.11
   4   7   8   -1.15    3.51
  -4  -7  -8   -2.57    2.32
  -4  -7  -8    5.74    2.67
  -4  -7  -8    2.80    3.64
   4   7   9  143.12    8.55
  -4  -7  -9  167.07   11.13
  -4  -7  -9  167.63    6.50
  -4  -7  -9  157.84    8.71
   4   7  10   81.11    6.24
  -4  -7 -10   69.10    4.67
  -4  -7 -10   64.99    5.25
  -4  -7 -10   80.52   10.32
   4   7  11  165.46   10.69
  -4  -7 -11  185.69    8.01
  -4  -7 -11  199.47    9.86
  -4  -7 -11  177.40    8.86
  -4  -7 -12    0.16    3.35
  -4  -7 -12   10.28    6.23
  -4  -7 -12    3.69    4.07
  -4  -7 -13   58.74    4.92
  -4  -7 -13   30.82    5.47
  -4  -7 -13   37.22    5.86
  -4  -7 -14   -4.65    3.76
  -4  -7 -14   -2.37    6.78
  -4  -7 -14    1.99    7.23
  -4  -7 -15  122.89    9.24
  -4  -7 -15  179.40   15.93
  -4  -7 -16   38.11    6.33
  -4  -7 -16   22.65    9.84
  -4  -7 -17   92.88    8.49
  -4  -7 -17   89.73    8.84
  -4  -7 -18    4.97    5.69
  -4  -7 -18   22.55    9.13
   4   8 -26   -1.63    8.66
  -4  -8  26   -8.44    8.24
   4   8 -25   10.16    9.26
  -4  -8  25   25.77    9.17
   4   8 -24   25.30    8.47
  -4  -8  24    2.13    8.59
   4   8 -23    7.80    7.42
  -4  -8  23    9.34    7.70
   4   8 -22   -8.25    6.82
  -4  -8  22    9.21   12.20
   4   8 -21   -5.42    6.15
  -4  -8  21    7.08    6.61
   4   8 -20   -1.14    6.36
  -4  -8  20    9.44    6.82
   4   8 -19   69.13    9.43
  -4  -8  19   71.74   16.73
   4   8 -18   44.44    7.93
  -4  -8  18   51.30    8.47
   4   8 -17   92.33    9.50
  -4  -8  17  115.37   10.59
   4   8 -16    6.81    8.74
  -4  -8  16    7.74    5.76
   4   8 -15    8.37    5.06
  -4  -8  15   10.61    5.67
   4   8 -14    3.53    4.19
  -4  -8  14   -9.64    8.16
   4   8 -13   15.23    4.39
  -4  -8  13    5.36    5.05
   4   8 -12   63.84    5.74
  -4  -8  12   63.79    6.66
   4   8 -11    1.93    3.42
  -4  -8  11    3.76    4.03
   4   8 -10   -2.09    2.98
  -4  -8  10    6.69    3.66
   4   8  -9    1.41    4.69
  -4  -8   9    2.15    3.39
   4   8  -8    9.17    2.94
  -4  -8   8   16.21    5.74
   4   8  -7    1.25    2.35
  -4  -8   7   -4.06    2.76
   4   8  -6    0.25    2.15
  -4  -8   6    0.83    2.44
   4   8  -5  188.47    8.56
  -4  -8   5  180.65    9.67
   4   8  -4  132.43    4.33
  -4  -8   4  123.67    4.83
   4   8  -3   86.85    3.36
  -4  -8   3   89.10    3.78
   4   8  -2   84.71    5.64
   4   8  -2   77.84    3.11
  -4  -8   2   81.67    3.45
   4   8  -1  209.26    5.40
   4   8  -1  211.64    8.57
  -4  -8   1  208.80    8.16
   4   8   0  212.19    8.88
  -4  -8   0  221.44    8.11
   4   8   1    1.52    3.26
  -4  -8  -1    3.69    1.68
   4   8   2    1.46    3.27
  -4  -8  -2    0.89    1.62
  -4  -8  -2    4.56    1.68
   4   8   3    7.45    3.47
  -4  -8  -3    5.98    1.78
  -4  -8  -3    6.82    1.81
   4   8   4  148.20   12.06
  -4  -8  -4  145.60    4.53
  -4  -8  -4  157.99    7.04
   4   8   5   77.17    9.88
  -4  -8  -5   82.55    3.74
  -4  -8  -5   84.72    3.54
   4   8   6  323.90   12.59
  -4  -8  -6  306.84    8.18
  -4  -8  -6  309.91    8.63
   4   8   7   16.73    4.13
  -4  -8  -7   10.46    2.39
  -4  -8  -7   10.49    2.71
   4   8   8  101.90    7.23
  -4  -8  -8  110.87    7.13
  -4  -8  -8  109.30    8.15
   4   8   9  109.79   11.36
  -4  -8  -9   84.97    4.48
  -4  -8  -9   83.35    7.96
  -4  -8  -9   97.94    7.26
   4   8  10  210.51   11.03
  -4  -8 -10  212.60   11.27
  -4  -8 -10  204.66    8.74
  -4  -8 -10  222.00   11.28
   4   8  11   29.44    5.49
  -4  -8 -11   21.04    3.56
  -4  -8 -11   19.30    4.13
  -4  -8 -11   22.98    8.81
   4   8  12   12.87    5.13
  -4  -8 -12    6.46    3.32
  -4  -8 -12    7.10    4.73
  -4  -8 -12    6.70    3.79
  -4  -8 -13   40.72    7.79
  -4  -8 -13   42.94    5.27
  -4  -8 -13   46.87    6.58
  -4  -8 -14    1.08    3.49
  -4  -8 -14   -4.16    3.78
  -4  -8 -14    1.14    4.58
  -4  -8 -15    9.18    4.10
  -4  -8 -15    3.45    4.41
  -4  -8 -15    8.15    5.20
  -4  -8 -16   68.81    6.78
  -4  -8 -16   73.51    7.37
  -4  -8 -16   78.36    8.47
  -4  -8 -17    3.34    4.23
  -4  -8 -17   -6.82    4.99
  -4  -8 -17    0.28    4.42
   4   9 -26   -1.73    8.55
  -4  -9  26   10.71    8.27
   4   9 -25   13.14    9.11
  -4  -9  25   11.94   14.54
   4   9 -24   20.21    8.11
  -4  -9  24    0.24    8.46
   4   9 -23    3.40    6.63
  -4  -9  23   -3.86    6.93
   4   9 -22    4.93    6.96
  -4  -9  22    8.20    7.34
   4   9 -21   49.73    9.94
  -4  -9  21  100.09   11.04
   4   9 -20   34.12    7.74
  -4  -9  20   22.72    8.50
   4   9 -19   10.08    6.63
  -4  -9  19   23.00    7.33
   4   9 -18   34.42    7.65
  -4  -9  18   66.72   13.97
   4   9 -17    5.43    9.31
  -4  -9  17   12.02    6.26
   4   9 -16   -1.28    4.56
  -4  -9  16   -0.01    5.32
   4   9 -15    0.86    4.54
  -4  -9  15   -7.46    5.12
   4   9 -14    7.97    4.38
  -4  -9  14   -0.60    5.07
   4   9 -13   26.04    7.90
  -4  -9  13   19.10    5.73
   4   9 -12   12.75    3.99
  -4  -9  12   17.20    4.84
   4   9 -11   -9.81    5.43
  -4  -9  11    8.22    3.96
   4   9 -10    8.01    3.09
  -4  -9  10    3.24    3.89
   4   9  -9   14.98    3.19
  -4  -9   9    6.53    3.87
   4   9  -8  155.94    9.26
  -4  -9   8  147.08    7.20
   4   9  -7  289.85   12.73
  -4  -9   7  296.29   10.25
   4   9  -6  140.82    7.97
  -4  -9   6  141.79    5.89
   4   9  -5    1.37    2.02
  -4  -9   5    4.04    3.88
   4   9  -4   61.88    4.78
  -4  -9   4   59.92    3.45
   4   9  -3    9.78    3.97
   4   9  -3    8.07    1.93
  -4  -9   3   10.21    2.16
   4   9  -2   37.95    2.36
   4   9  -2   37.43    4.77
  -4  -9   2   35.23    2.52
   4   9  -1  260.65   16.85
  -4  -9   1  266.11    6.59
   4   9   0  178.12    9.25
  -4  -9   0  196.41    5.00
   4   9   1   77.04    6.24
  -4  -9  -1   85.60    4.53
   4   9   2    5.33    3.80
  -4  -9  -2    9.38    1.59
  -4  -9  -2    6.19    2.73
   4   9   3   25.16    4.39
  -4  -9  -3   19.61    1.96
  -4  -9  -3   18.68    3.17
   4   9   4    0.95    3.55
  -4  -9  -4    3.96    1.71
  -4  -9  -4   -2.04    1.54
   4   9   5   33.35    8.52
  -4  -9  -5   39.69    2.45
  -4  -9  -5   38.89    2.77
   4   9   6   14.90    4.82
  -4  -9  -6   34.95    2.39
  -4  -9  -6   26.60    2.69
   4   9   7    1.14    3.85
  -4  -9  -7    2.76    2.26
  -4  -9  -7    1.18    3.07
   4   9   8   -0.89    4.12
  -4  -9  -8    2.51    3.36
  -4  -9  -8    4.63    4.25
   4   9   9   48.78    5.92
  -4  -9  -9   39.17    3.20
  -4  -9  -9   35.67    6.29
   4   9  10   58.43    6.13
  -4  -9 -10   37.06    5.67
  -4  -9 -10   34.73    4.29
  -4  -9 -10   57.05    6.36
   4   9  11   67.92   11.88
  -4  -9 -11   54.40    4.15
  -4  -9 -11   68.40    8.03
  -4  -9 -11   64.58    7.09
   4   9  12   -3.26    5.54
  -4  -9 -12   16.15    5.06
  -4  -9 -12    7.69    3.61
  -4  -9 -12   12.70    5.20
  -4  -9 -13   19.71    3.80
  -4  -9 -13   20.98    7.17
  -4  -9 -13   32.53    6.08
  -4  -9 -14   83.87    5.97
  -4  -9 -14   85.83   14.30
  -4  -9 -14   80.00    6.61
  -4  -9 -15    3.18    3.63
  -4  -9 -15    5.90    6.71
  -4  -9 -15   -2.45    8.84
  -4  -9 -16    6.80    4.08
  -4  -9 -16    6.62    4.39
  -4  -9 -16    8.29    5.81
   4  10 -26    6.89    9.66
  -4 -10  26   28.76    9.45
   4  10 -25   -0.30    8.34
  -4 -10  25  -10.59    7.88
   4  10 -24    0.08    7.37
  -4 -10  24   -8.01   12.87
   4  10 -23   17.68    8.34
  -4 -10  23   18.95    8.55
   4  10 -22    6.52    6.95
  -4 -10  22    3.83    7.16
   4  10 -21   -5.48    6.79
  -4 -10  21  -13.06    7.19
   4  10 -20  -11.06    6.40
  -4 -10  20   -6.15    7.01
   4  10 -19    4.58    5.89
  -4 -10  19    7.80    6.69
   4  10 -18    3.41    8.94
  -4 -10  18    0.91    5.88
   4  10 -17   44.46    6.87
  -4 -10  17   32.32   12.93
   4  10 -16   40.29    6.25
  -4 -10  16   30.32    7.09
   4  10 -15  113.14    8.36
  -4 -10  15  108.90    9.95
   4  10 -14  186.32   16.23
  -4 -10  14  206.19   19.04
   4  10 -13  283.72   12.38
  -4 -10  13  290.79   14.53
   4  10 -12  150.87    8.29
  -4 -10  12  176.60   10.14
   4  10 -11  141.48    7.13
  -4 -10  11  149.41    8.74
   4  10 -10   18.07    3.47
  -4 -10  10   17.88    4.36
   4  10  -9   58.68    4.24
  -4 -10   9   53.38    8.57
   4  10  -8  109.21    5.17
  -4 -10   8  130.00    6.52
   4  10  -7  534.48   14.80
  -4 -10   7  548.40   23.72
   4  10  -6  582.43   15.55
  -4 -10   6  590.15   17.37
   4  10  -5  251.12    9.93
  -4 -10   5  244.90   11.12
   4  10  -4   15.85    4.40
   4  10  -4    8.52    1.96
  -4 -10   4   12.01    2.33
   4  10  -3   19.17    7.68
   4  10  -3   13.62    1.89
  -4 -10   3   15.04    2.23
   4  10  -2    1.35    2.45
   4  10  -2    4.93    3.65
  -4 -10   2   -0.94    2.78
   4  10  -1   27.96    4.78
  -4 -10   1   25.02    3.43
   4  10   0   46.37    5.59
  -4 -10   0   58.10    3.85
   4  10   1   -5.72    6.36
  -4 -10  -1    3.15    1.46
  -4 -10  -1    3.92    2.12
   4  10   2    4.88    3.85
  -4 -10  -2    1.88    1.42
  -4 -10  -2    4.18    1.37
   4  10   3    6.67    4.03
  -4 -10  -3    2.42    1.44
  -4 -10  -3    1.63    1.43
   4  10   4   33.60    5.22
  -4 -10  -4   40.13    2.23
  -4 -10  -4   31.02    3.24
   4  10   5   -1.49    6.39
  -4 -10  -5   -0.80    2.70
  -4 -10  -5    0.76    2.41
   4  10   6    5.94    4.13
  -4 -10  -6    4.65    2.02
  -4 -10  -6    4.28    2.80
   4  10   7  105.18    7.63
  -4 -10  -7   86.61    5.51
  -4 -10  -7   97.33    4.26
   4  10   8   55.63   10.38
  -4 -10  -8   41.85    3.33
  -4 -10  -8   39.45    2.75
   4  10   9    7.23    4.67
  -4 -10  -9    2.66    2.09
  -4 -10  -9    6.27    4.32
   4  10  10   50.48    6.37
  -4 -10 -10   40.13    3.81
  -4 -10 -10   24.77    4.92
   4  10  11   29.04   10.20
  -4 -10 -11   17.02    3.68
  -4 -10 -11   32.10    3.08
   4  10  12   20.17    5.94
  -4 -10 -12    7.73    4.78
  -4 -10 -12    8.72    3.42
  -4 -10 -12    6.44    5.57
  -4 -10 -13    7.93    3.02
  -4 -10 -13    2.62    3.63
  -4 -10 -13   16.60    5.63
  -4 -10 -14    0.47    3.00
  -4 -10 -14   -5.25    3.50
  -4 -10 -14   -5.34    5.54
  -4 -10 -15   16.02    6.63
   4  11 -25    7.80    8.48
  -4 -11  25   12.30    8.51
   4  11 -24   28.70    8.75
  -4 -11  24   10.40    8.70
   4  11 -23    1.20    7.29
  -4 -11  23   13.60   12.59
   4  11 -22   59.75   10.12
  -4 -11  22   63.27   10.61
   4  11 -21   20.63    7.65
  -4 -11  21   20.20    7.98
   4  11 -20   30.78   12.67
  -4 -11  20   31.00    8.13
   4  11 -19   21.89   11.30
  -4 -11  19   22.88    7.70
   4  11 -18  107.12   10.34
  -4 -11  18  129.84   11.34
   4  11 -17    6.97    5.36
  -4 -11  17   13.06    6.13
   4  11 -16   68.36    7.32
  -4 -11  16   54.10   13.87
   4  11 -15   37.60    5.98
  -4 -11  15   45.88    6.94
   4  11 -14  178.62    9.91
  -4 -11  14  193.90   11.64
   4  11 -13  216.55   10.44
  -4 -11  13  242.28   12.68
   4  11 -12  471.07   25.55
  -4 -11  12  554.92   21.50
   4  11 -11  161.40    7.43
  -4 -11  11  159.01    9.21
   4  11 -10   41.78    4.22
  -4 -11  10   52.97    5.41
   4  11  -9    9.71    4.46
  -4 -11   9    2.41    3.54
   4  11  -8   74.98    6.75
  -4 -11   8   89.33    5.34
   4  11  -7  138.20    7.99
  -4 -11   7  142.97   10.00
   4  11  -6  259.05    7.26
  -4 -11   6  254.88    8.70
   4  11  -5  166.86    5.05
  -4 -11   5  169.97    6.11
   4  11  -4   -1.97    4.55
   4  11  -4    6.86    1.78
  -4 -11   4    3.28    2.13
   4  11  -3    4.89    1.53
   4  11  -3   -3.60    4.17
  -4 -11   3    6.10    3.04
   4  11  -2    2.87    4.06
  -4 -11   2    1.31    1.57
   4  11  -1   -3.31    3.95
  -4 -11   1    1.24    1.39
   4  11   0    9.07    4.39
  -4 -11   0    8.26    1.23
  -4 -11   0    6.79    2.31
   4  11   1    7.06    4.82
  -4 -11  -1   15.02    2.45
  -4 -11  -1   20.49    1.33
   4  11   2   30.58    9.17
  -4 -11  -2   32.21    1.67
  -4 -11  -2   33.98    1.60
   4  11   3   -4.42    4.11
  -4 -11  -3   -1.36    1.18
  -4 -11  -3    0.89    2.01
   4  11   4   32.85    5.24
  -4 -11  -4   20.29    2.51
  -4 -11  -4   24.73    1.77
   4  11   5   82.42    6.75
  -4 -11  -5   65.69    2.70
  -4 -11  -5   62.83    3.53
   4  11   6    4.26    4.41
  -4 -11  -6    2.28    1.73
  -4 -11  -6    1.47    2.28
   4  11   7    0.54    4.54
  -4 -11  -7    1.34    1.87
  -4 -11  -7    4.49    2.46
   4  11   8   38.75    9.61
  -4 -11  -8   23.56    4.19
  -4 -11  -8   15.86    3.29
   4  11   9    3.08    4.90
  -4 -11  -9    1.25    2.22
  -4 -11  -9    3.98    2.94
   4  11  10   27.10    5.85
  -4 -11 -10   15.47    4.67
  -4 -11 -10   12.48    2.30
   4  11  11   94.36    9.36
   4  11  12   35.30    7.58
   4  11  13   17.29    7.19
  -4 -11 -14    1.11    5.68
   4  12 -25    5.79    8.83
  -4 -12  25   24.16    8.92
   4  12 -24    2.28    7.36
  -4 -12  24    2.00    7.42
   4  12 -23   23.75    8.87
  -4 -12  23   31.33    8.77
   4  12 -22  -10.95   11.36
  -4 -12  22    2.75   11.40
   4  12 -21   38.51   14.13
  -4 -12  21   40.95    9.17
   4  12 -20    3.76   11.28
  -4 -12  20   21.81    7.09
   4  12 -19   91.58    9.94
  -4 -12  19  111.02   10.88
   4  12 -18   27.14    6.57
  -4 -12  18   29.06   12.17
   4  12 -17   84.51    8.33
  -4 -12  17   76.54    9.57
   4  12 -16    6.03    4.40
  -4 -12  16   -3.78    5.32
   4  12 -15   -0.34    4.03
  -4 -12  15   -3.84    5.01
   4  12 -14    1.70    3.72
  -4 -12  14   -7.74    7.59
   4  12 -13  112.47   11.57
  -4 -12  13  125.58    8.94
   4  12 -12   91.75    6.17
  -4 -12  12  101.06    7.74
   4  12 -11  164.32   10.98
  -4 -12  11  152.48    8.92
   4  12 -10   15.31    3.30
  -4 -12  10   21.35    7.02
   4  12  -9    5.34    2.58
  -4 -12   9    3.99    3.40
   4  12  -8   -0.38    2.26
  -4 -12   8   -2.21    2.99
   4  12  -7   34.94    2.89
  -4 -12   7   37.96    6.28
   4  12  -6   20.11    3.93
  -4 -12   6   18.73    5.00
   4  12  -5    3.21    4.64
   4  12  -5    1.68    1.71
  -4 -12   5    3.68    2.24
   4  12  -4    7.33    5.04
   4  12  -4   13.80    1.73
  -4 -12   4    8.83    2.25
   4  12  -3   23.82    1.73
   4  12  -3   23.70    5.16
  -4 -12   3   20.24    3.54
   4  12  -2   13.31    4.75
  -4 -12   2   10.42    1.63
   4  12  -1   20.75    5.30
  -4 -12   1   27.11    2.58
  -4 -12   1   23.89    1.20
   4  12   0   13.48    7.67
  -4 -12   0    6.36    1.09
  -4 -12   0    5.35    1.43
   4  12   1    4.51    4.42
  -4 -12  -1    2.20    1.41
  -4 -12  -1    3.16    0.78
   4  12   2   -1.66    4.12
  -4 -12  -2    0.17    0.71
  -4 -12  -2    0.22    1.12
   4  12   3    5.11    7.81
  -4 -12  -3    3.41    1.18
  -4 -12  -3    6.64    1.36
   4  12   4   45.21    6.19
  -4 -12  -4   34.24    1.12
  -4 -12  -4   36.07    1.26
   4  12   5  108.20    7.98
  -4 -12  -5   81.96    2.01
  -4 -12  -5   77.71    2.61
  -4 -12  -6   88.52    2.08
  -4 -12  -6   87.59    3.53
   4  12   7   29.14    5.42
  -4 -12  -7   12.36    2.29
  -4 -12  -7    7.51    1.15
   4  12   8    8.07    9.18
   4  12   9    4.17    5.34
   4  12  10   43.64    7.61
   4  12  11   49.13    8.02
   4  12  12   61.29    9.14
   4  12  13   -0.40    6.26
   4  13 -24   11.04   14.33
  -4 -13  24   23.38    9.05
   4  13 -23   -2.20   12.15
  -4 -13  23   -6.69    7.46
   4  13 -22  -13.27    6.76
  -4 -13  22    3.51    6.94
   4  13 -21   25.66    7.42
  -4 -13  21   10.51    7.46
   4  13 -20   -9.38    6.07
  -4 -13  20    5.90   10.91
   4  13 -19    5.94    5.89
  -4 -13  19   10.53    6.32
   4  13 -18   20.22    6.22
  -4 -13  18   24.37    6.98
   4  13 -17   -3.23    4.95
  -4 -13  17   13.34    5.50
   4  13 -16   12.40    4.89
  -4 -13  16   14.35    9.53
   4  13 -15   25.90    5.26
  -4 -13  15   29.98    6.46
   4  13 -14    6.01    3.93
  -4 -13  14    1.85    4.88
   4  13 -13    5.82    3.63
  -4 -13  13    7.85    4.69
   4  13 -12   25.31    5.94
  -4 -13  12    6.94    4.84
   4  13 -11    9.40    3.25
  -4 -13  11    9.21    6.99
   4  13 -10   15.21    3.07
  -4 -13  10   10.28    4.09
   4  13  -9   -3.31    2.41
  -4 -13   9    1.28    3.31
   4  13  -8   21.82    2.85
  -4 -13   8   24.05    3.92
   4  13  -7   19.66    2.48
  -4 -13   7   16.52    3.42
   4  13  -6   69.86    8.39
  -4 -13   6   95.22    7.47
   4  13  -5   40.22    3.75
   4  13  -5   52.54    6.75
  -4 -13   5   40.99    5.42
   4  13  -4    7.13    2.34
   4  13  -4    3.25    4.82
  -4 -13   4    4.44    3.42
   4  13  -3    2.09    4.63
  -4 -13   3    2.02    2.63
   4  13  -2   48.43   10.99
  -4 -13   2   44.06    2.79
   4  13  -1  108.02    8.49
  -4 -13   1   93.48    1.84
  -4 -13   1   97.08    2.34
   4  13   0  134.90    9.78
   4  13   1   47.58    6.85
   4  13   2    2.08    4.80
   4  13   3   -5.47    5.03
   4  13   4   34.13    6.43
   4  13   5   56.92    7.67
   4  13   6   25.11   10.71
   4  13   7   29.35    6.69
   4  13   8   -3.25    5.59
   4  13   9    7.28    6.05
   4  13  10   -5.02    6.05
   4  13  11   14.97    6.93
   4  14 -23   19.09    7.69
  -4 -14  23    3.78   13.60
   4  14 -22    3.14    6.92
  -4 -14  22    9.98    7.09
   4  14 -21   13.37    6.89
  -4 -14  21   11.18    7.19
   4  14 -20   73.65    9.61
  -4 -14  20   79.49   10.06
   4  14 -19   11.67    5.86
  -4 -14  19    7.69    6.28
   4  14 -18    3.76    8.76
  -4 -14  18   10.84    9.98
   4  14 -17   -0.87    4.93
  -4 -14  17   10.71    5.54
   4  14 -16    2.43    4.42
  -4 -14  16    4.21    5.23
   4  14 -15   12.78    4.48
  -4 -14  15    9.87    5.39
   4  14 -14   -3.67    3.54
  -4 -14  14    6.42    4.35
   4  14 -13    9.71    3.80
  -4 -14  13   21.14    7.94
   4  14 -12    2.57    3.20
  -4 -14  12   -0.32    6.94
   4  14 -11   20.78    5.87
  -4 -14  11   31.92    8.14
   4  14 -10   -1.01    4.37
  -4 -14  10   -5.51    3.81
   4  14  -9   11.45    4.36
  -4 -14   9    7.23    3.67
   4  14  -8   15.99    4.28
  -4 -14   8   21.73    3.77
   4  14  -7  150.42   11.93
   4  14  -7  152.40    4.97
  -4 -14   7  167.20    6.63
   4  14  -6  107.24    5.57
   4  14  -6  153.33   16.61
  -4 -14   6  111.36    4.86
   4  14  -5   84.71    2.75
   4  14  -5   87.95    8.82
  -4 -14   5   97.26    5.57
   4  14  -4    7.20    5.68
  -4 -14   4   13.19    1.51
   4  14  -3    7.34    5.24
  -4 -14   3    6.38    0.73
   4  14  -2   15.05    5.71
   4  14  -1   68.46   12.98
   4  14   0   49.13    7.31
   4  14   1   41.36    6.79
   4  14   2    0.33    4.85
   4  14   3   -9.83    5.58
   4  14   4   -1.16    8.62
   4  14   5    3.87    5.41
   4  14   6   -4.71    9.45
   4  14   7   15.38    6.50
   4  14   8   23.47    7.28
   4  14   9   11.23    6.73
   4  14  10   -9.84    6.81
   4  15 -22   17.19    7.77
  -4 -15  22   17.48    7.81
   4  15 -21    1.82    6.03
  -4 -15  21   -1.03   10.66
   4  15 -20    7.79    9.11
  -4 -15  20   -4.29    6.08
   4  15 -19   16.24   10.15
  -4 -15  19   13.81    6.68
   4  15 -18    7.22    4.91
  -4 -15  18   -3.56    5.57
   4  15 -17    3.73    4.59
  -4 -15  17    0.16    5.19
   4  15 -16   15.46    8.44
  -4 -15  16   21.51    5.77
   4  15 -15    1.77    3.86
  -4 -15  15    2.24    7.66
   4  15 -14   27.05    4.56
  -4 -15  14   24.99    9.72
   4  15 -13   18.44    4.00
  -4 -15  13   17.23    8.72
   4  15 -12   72.91    9.11
  -4 -15  12  105.83    7.55
   4  15 -11   14.57    3.24
  -4 -15  11   15.71    4.45
   4  15 -10   14.85    2.98
  -4 -15  10   15.83    3.99
   4  15  -9    4.55    2.38
  -4 -15   9   -0.25    5.16
   4  15  -8   21.16    6.49
   4  15  -8   10.72    3.86
  -4 -15   8   12.99    4.65
   4  15  -7    7.43    1.81
   4  15  -7   -1.22    9.87
  -4 -15   7    3.80    2.21
   4  15  -6  102.50    3.15
   4  15  -6  143.81   10.53
  -4 -15   6  111.83    3.60
   4  15  -5   65.62   13.75
  -4 -15   5   55.90    1.80
   4  15  -4   52.92    7.79
   4  15  -3   -5.00    5.50
   4  15  -2    3.98    5.30
   4  15  -1   -2.43    5.29
   4  15   0    0.62    4.94
   4  15   1   12.92    6.06
   4  15   2    7.15    9.69
   4  15   3   25.99    6.86
   4  15   4    8.91    6.13
   4  15   5   -3.25    5.79
   4  15   6    4.02    6.16
   4  15   7   26.11    7.64
   4  15   8   24.99    7.91
   4  16 -21   31.60   13.84
  -4 -16  21   44.00    8.82
   4  16 -20    4.82    6.04
  -4 -16  20    6.93    6.46
   4  16 -19   29.44    7.15
  -4 -16  19   38.26    7.43
   4  16 -18    9.46    5.42
  -4 -16  18    6.72    9.74
   4  16 -17    5.83    7.56
  -4 -16  17   -3.16    8.91
   4  16 -16    9.60    4.52
  -4 -16  16    5.63    9.14
   4  16 -15    7.28    4.03
  -4 -16  15   -0.58    5.10
   4  16 -14    8.46    3.82
  -4 -16  14    1.11    4.93
   4  16 -13   40.87    7.07
  -4 -16  13   22.23    5.53
   4  16 -12   15.57    3.54
  -4 -16  12   21.85    4.60
   4  16 -11   78.13    4.82
  -4 -16  11   85.28    9.50
   4  16 -10   14.33    6.01
   4  16 -10    0.59    2.33
  -4 -16  10    1.06    4.83
   4  16  -9   -1.67    6.10
   4  16  -9    2.01    2.12
  -4 -16   9    2.71    2.46
   4  16  -8   27.90    2.50
   4  16  -8   46.50   13.24
  -4 -16   8   42.64    2.79
   4  16  -7   21.47    6.02
  -4 -16   7    3.44    1.52
   4  16  -6   -5.26    9.84
   4  16  -5   41.50    7.93
   4  16  -4    6.21    9.99
   4  16  -3    2.67    5.76
   4  16  -2    2.27    5.50
   4  16  -1   12.20    6.27
   4  16   0    9.16    6.31
   4  16   1    5.38    5.92
   4  16   2   25.42    7.28
   4  16   3   10.12    6.44
   4  16   4    4.41    6.28
   4  16   5   14.14    7.31
   4  16   6   10.84    7.21
   4  17 -19   -6.79    8.63
  -4 -17  19    0.69    5.76
   4  17 -18   30.68    6.71
  -4 -17  18   43.78    7.77
   4  17 -17   -0.21    4.34
  -4 -17  17   -2.60    5.38
   4  17 -16   -0.03    6.92
  -4 -17  16    3.04    5.22
   4  17 -15   25.79    4.86
  -4 -17  15   19.97    5.92
   4  17 -14   -2.74    5.75
  -4 -17  14    2.96    4.23
   4  17 -13    7.58    3.57
  -4 -17  13   12.82    4.33
   4  17 -12    8.70    3.20
  -4 -17  12    7.62    6.14
   4  17 -11   -3.16    6.74
   4  17 -11   -1.86    2.44
  -4 -17  11   -1.89    4.71
   4  17 -10   47.57    8.18
  -4 -17  10   17.51    2.88
   4  17  -9    2.95   11.14
   4  17  -8   17.01    7.30
   4  17  -7   -3.27   10.35
   4  17  -6    1.04    5.99
   4  17  -5   -2.23   10.22
   4  17  -4   26.76    7.67
   4  17  -3    5.11   10.73
   4  17  -2   26.29    7.72
   4  17  -1   12.51   11.57
   4  17   0   66.29    9.70
   4  17   1   12.94   11.96
   4  17   2    8.07    6.92
   4  17   3   14.34   12.39
   4  17   4   17.16    7.78
   4  18 -17   19.96    8.82
  -4 -18  17   15.67    6.24
   4  18 -16    7.24    4.30
  -4 -18  16    0.20    4.97
   4  18 -15   -2.99    6.23
  -4 -18  15    5.03    4.27
   4  18 -14   21.95    4.30
  -4 -18  14   23.31    4.80
  -4 -18  13   -3.65    3.33
   4  18 -12   21.56    8.84
   4  18 -11   27.17    9.02
   4  18 -10   -3.68    7.03
   4  18  -9   60.08   10.34
   4  18  -8    8.09   12.31
   4  18  -7    3.17    6.85
   4  18  -6   -3.74   11.55
   4  18  -5   47.62    9.44
   4  18  -4   -5.83    6.88
   4  18  -3   17.46    7.87
   4  18  -2    5.06    6.87
   4  18  -1   72.49   10.97
   4  18   0   35.18    8.86
   4  18   1   64.72   10.64
   4  19 -14   18.09    9.44
   4  19 -13  -10.03    8.77
   4  19 -12   11.05   14.79
   4  19 -11    5.44    7.96
   4  19 -10   10.75    8.04
   4  19  -9    7.45   13.41
   4  19  -8   11.27    8.13
   4  19  -7    4.21   12.72
   4  19  -6   39.15    9.90
   4  19  -5   12.38    7.98
   4  19  -4   18.37    8.51
   4  19  -3  -13.86    8.10
  -5  20   2    3.51    6.16
  -5  20   1    6.17    6.14
  -5  20   0   11.25    6.41
  -5  20  -1   -2.25    9.32
  -5  20  -2   17.45    6.22
  -5  20  -3    3.17    5.18
  -5  20  -4   23.86   10.19
  -5  20  -5   -2.86    4.71
  -5  20  -6   18.23    4.11
  -5  20  -6   16.83    5.58
  -5  20  -6   21.71    6.73
  -5  20  -7    1.20    3.55
  -5  20  -7    4.61    5.97
  -5  20  -8   13.04    4.47
  -5  20  -8   12.23    4.43
  -5  20  -9   -0.28    3.98
  -5  20  -9    6.83    6.86
  -5  20 -10   24.38    9.11
  -5  20 -10   13.45    8.39
  -5  20 -11    4.19    4.29
  -5  20 -11   -5.18    4.76
  -5  19   5   31.65    8.66
  -5  19   4   -3.50    6.15
  -5  19   3   24.73    7.31
  -5  19   2   11.44   10.43
  -5  19   1   48.49    7.86
  -5  19   0    2.56    5.41
  -5  19  -1   44.52   11.58
  -5  19  -2   -4.63    5.03
  -5  19  -3   31.79    9.65
  -5  19  -3   21.16    3.40
  -5  19  -3   22.71    5.74
  -5  19  -4    4.32    4.41
  -5  19  -4   -2.23    5.09
  -5  19  -4    3.16    4.75
  -5  19  -5   89.69    5.91
  -5  19  -5   99.97    7.92
  -5  19  -5   95.12    9.66
  -5  19  -6   51.80    5.22
  -5  19  -6   52.65    5.05
  -5  19  -7   47.99    5.58
  -5  19  -7   76.33    5.80
  -5  19  -8   -0.21    3.66
  -5  19  -8    4.49    6.06
  -5  19  -9   19.78    8.03
  -5  19  -9   21.89    5.00
  -5  19 -10   -4.20    4.21
  -5  19 -10    7.32    4.41
  -5  19 -11   20.29    5.39
  -5  19 -11   16.82    5.66
  -5  19 -12   -8.29    4.92
  -5  19 -12   42.36    8.54
  -5  19 -13   22.55   10.74
  -5  19 -13   31.94    7.08
  -5  19 -14   10.29    6.15
  -5  19 -14   15.72    6.46
   5 -18  -8   18.40    7.19
   5 -18  -7   -0.91    5.76
  -5  18   7   -3.38    6.83
  -5  18   6   46.33    9.16
  -5  18   5    3.67    6.31
  -5  18   4   49.27    8.24
  -5  18   3   32.74    7.06
  -5  18   2  129.99   17.10
  -5  18   1   32.67    6.60
  -5  18   0  115.30    5.19
  -5  18   0  133.87    9.24
  -5  18   0   90.01    4.69
  -5  18  -1   18.16    5.37
  -5  18  -1   16.39    4.92
  -5  18  -1   15.14    3.13
  -5  18  -2   31.24    6.11
  -5  18  -2   35.24    3.62
  -5  18  -2   38.44    3.82
  -5  18  -3    2.16    7.39
  -5  18  -3    4.70    3.02
  -5  18  -3    5.22    2.88
  -5  18  -4   26.30    5.08
  -5  18  -4   19.95    5.97
  -5  18  -4   19.10    3.83
  -5  18  -5   -3.89    3.03
  -5  18  -5    5.45    6.40
  -5  18  -5    0.92    3.11
  -5  18  -6   40.53    5.09
  -5  18  -6   25.00    4.47
  -5  18  -6   34.71    4.44
  -5  18  -7   11.17    6.95
  -5  18  -7   20.70    4.16
  -5  18  -7   17.76    4.47
  -5  18  -8   37.98    4.90
  -5  18  -8   31.80    8.23
  -5  18  -8   26.72    5.03
  -5  18  -9   -3.54    3.59
  -5  18  -9   -2.04    3.98
  -5  18  -9    0.27    4.01
  -5  18 -10    4.67    4.41
  -5  18 -10    4.36    7.41
  -5  18 -10    8.89    6.20
  -5  18 -11    2.83    4.63
  -5  18 -11    5.69    4.94
  -5  18 -12    5.54    5.03
  -5  18 -12    5.96    5.28
  -5  18 -13   13.86    5.61
  -5  18 -13    7.12    5.80
  -5  18 -14   53.81   11.81
  -5  18 -14   16.34   12.78
  -5  18 -15    6.40    6.05
  -5  18 -15    3.57    6.17
  -5  18 -16    0.03    6.20
   5 -17 -10   17.88    7.06
   5 -17  -9   59.67    9.00
   5 -17  -8    3.32    9.76
   5 -17  -7   36.62    7.11
  -5  17   7   25.93    8.43
   5 -17  -6    3.06    5.34
  -5  17   6    7.62    6.22
  -5  17   5    5.50   10.00
  -5  17   4    2.38    1.90
  -5  17   4    1.28    2.26
  -5  17   4   12.41    5.28
  -5  17   3    3.93    2.38
  -5  17   3    6.18    5.15
  -5  17   3    4.55    2.08
  -5  17   2    2.91    3.82
  -5  17   2   -1.26    1.97
  -5  17   2    4.16    7.72
  -5  17   1   78.04    6.68
  -5  17   1   60.47    7.55
  -5  17   1   65.25    6.08
  -5  17   0   42.60   10.63
  -5  17   0   42.57    3.37
  -5  17   0   43.26    3.80
  -5  17  -1   94.67    7.82
  -5  17  -1   90.85    5.02
  -5  17  -1   95.04    7.51
  -5  17  -2   -5.07    4.10
  -5  17  -2    3.75    2.60
  -5  17  -2    2.16    2.75
  -5  17  -3    4.12    4.42
  -5  17  -3    2.00    3.82
  -5  17  -3   -0.10    2.81
  -5  17  -4   47.60    4.28
  -5  17  -4   50.87    5.41
  -5  17  -4   45.29    4.45
  -5  17  -5    6.29    6.30
  -5  17  -5    6.45    3.38
  -5  17  -5    7.50    3.15
  -5  17  -6    4.66    5.89
  -5  17  -6    8.60    3.51
  -5  17  -6    6.38    3.74
  -5  17  -7    0.89    6.03
  -5  17  -7    3.01    3.72
  -5  17  -7   22.78    6.12
  -5  17  -8    0.69    3.50
  -5  17  -8    0.13    3.24
  -5  17  -8   -2.03    3.62
  -5  17  -9   18.41    6.75
  -5  17  -9   22.80    4.84
  -5  17  -9   24.32    8.12
  -5  17 -10    6.47    3.40
  -5  17 -10    4.66    4.37
  -5  17 -10    4.95    4.42
  -5  17 -11   16.20    5.10
  -5  17 -11   12.70    3.70
  -5  17 -11    5.33    5.13
  -5  17 -12    4.93    4.66
  -5  17 -12   -3.80    3.26
  -5  17 -12    4.26    8.04
  -5  17 -13   36.10   10.21
  -5  17 -13   24.88    6.38
  -5  17 -13   16.41    4.14
  -5  17 -14   22.98    6.66
  -5  17 -14   27.00    6.83
  -5  17 -15   21.97    7.30
  -5  17 -15   19.78   11.68
  -5  17 -16   20.00    6.89
  -5  17 -16   -6.15    6.82
  -5  17 -17   22.05    8.31
   5 -16 -12   -6.84    6.52
   5 -16 -11   -3.08    5.93
   5 -16 -10    1.63    9.06
   5 -16  -9    7.71    5.70
   5 -16  -8   22.49    6.33
   5 -16  -7   -4.55    4.87
  -5  16   7    1.19    5.68
  -5  16   7    1.50    3.88
   5 -16  -6   12.73    5.56
  -5  16   6    7.36    4.40
  -5  16   6   14.29    6.13
   5 -16  -5   14.93    4.66
  -5  16   5    7.66    5.01
  -5  16   5   -3.47    2.38
   5 -16  -4   11.59    4.95
  -5  16   4    9.79    2.68
  -5  16   4    6.93    5.29
  -5  16   3   28.86    3.26
  -5  16   3   22.90    6.02
  -5  16   2   12.47    2.78
  -5  16   2    2.22    8.29
  -5  16   2    8.74    2.39
  -5  16   1    7.22    4.75
  -5  16   1   12.60    4.88
  -5  16   1   14.72    4.14
  -5  16   0   47.85    3.46
  -5  16   0   46.05    9.92
  -5  16   0   48.82    6.12
  -5  16  -1   12.13    4.23
  -5  16  -1    9.08    2.93
  -5  16  -1    1.93    4.50
  -5  16  -2   46.57    4.19
  -5  16  -2   71.30    6.13
  -5  16  -2   78.93    4.45
  -5  16  -3    3.54    3.44
  -5  16  -3    0.42    2.86
  -5  16  -3    2.39    4.45
  -5  16  -4    4.27    3.34
  -5  16  -4    2.99    3.00
  -5  16  -4   -0.68    2.81
  -5  16  -5    6.46    5.39
  -5  16  -5    2.94    5.23
  -5  16  -5    5.80    3.41
  -5  16  -6    0.53    3.20
  -5  16  -6   -0.83    3.25
  -5  16  -6    5.23    3.15
  -5  16  -7    1.77    3.13
  -5  16  -7    1.21    3.56
  -5  16  -7    3.64    3.38
  -5  16  -8   13.64    3.60
  -5  16  -8   14.27    7.22
  -5  16  -8   21.54    4.40
  -5  16  -9    1.08    2.95
  -5  16  -9   -0.80    3.86
  -5  16  -9    1.42    3.82
  -5  16 -10   23.79    9.14
  -5  16 -10   34.81    5.62
  -5  16 -10   32.84    4.01
  -5  16 -11   -1.45    4.40
  -5  16 -11    3.06    3.00
  -5  16 -11   -2.80    4.53
  -5  16 -12  123.77   14.68
  -5  16 -12   88.73    8.99
  -5  16 -12  103.31    6.03
  -5  16 -13    1.45    5.33
  -5  16 -13    2.36    3.18
  -5  16 -13    3.64    8.48
  -5  16 -14   24.02    6.81
  -5  16 -14   14.93    3.85
  -5  16 -14   31.07    6.61
  -5  16 -15   -4.37    6.14
  -5  16 -15    9.32    5.89
  -5  16 -15    4.20    5.32
  -5  16 -16   15.46   11.68
  -5  16 -17    7.32    7.12
  -5  16 -18   35.79    9.43
   5 -15 -14   -8.84    6.94
   5 -15 -13    2.87   10.55
   5 -15 -12   28.39    7.54
   5 -15 -11    8.70    3.20
   5 -15 -11   21.07    6.31
   5 -15 -10   15.70    3.16
   5 -15 -10   16.63    6.05
  -5  15  10   10.48    5.72
  -5  15  10    2.96    5.65
   5 -15  -9    4.86    2.99
   5 -15  -9   21.29    5.57
  -5  15   9   12.55    5.25
   5 -15  -8    3.69    2.72
   5 -15  -8    0.51    8.59
  -5  15   8    7.26    4.82
   5 -15  -7    2.86    4.57
  -5  15   7    2.75    4.46
  -5  15   7    0.85    5.69
   5 -15  -6    6.88    4.45
  -5  15   6   -1.58    4.22
  -5  15   6   -5.07    5.02
   5 -15  -5   17.35    8.88
  -5  15   5   19.73    5.96
  -5  15   5   21.63    5.14
   5 -15  -4   -0.48    4.28
  -5  15   4   -3.82    2.53
  -5  15   4    4.46    4.38
   5 -15  -3   -1.50    3.89
  -5  15   3    0.37    2.47
  -5  15   3   -3.20    4.23
  -5  15   2   30.94    3.33
  -5  15   2   18.98    8.91
  -5  15   1    2.29    2.34
  -5  15   1    0.36    3.95
  -5  15   1    4.09    2.65
  -5  15   0    0.18    2.38
  -5  15   0   12.10    6.55
  -5  15   0    3.13    2.66
  -5  15  -1   91.81    6.20
  -5  15  -1   84.00    7.57
  -5  15  -1   73.91    4.27
  -5  15  -2   64.35    9.30
  -5  15  -2   72.58    4.31
  -5  15  -2   78.46    7.57
  -5  15  -3  172.38    7.63
  -5  15  -3  174.39   10.66
  -5  15  -3  134.14    6.36
  -5  15  -4   50.67    7.05
  -5  15  -4   41.60    7.65
  -5  15  -4   58.39    4.60
  -5  15  -5   90.44    5.78
  -5  15  -5   78.45    5.51
  -5  15  -5  100.35    5.37
  -5  15  -6   35.48    4.51
  -5  15  -6   31.69    4.26
  -5  15  -6   26.98    6.41
  -5  15  -7  123.59    6.06
  -5  15  -7  117.16    6.98
  -5  15  -7  127.56   11.64
  -5  15  -8   13.93    5.15
  -5  15  -8    7.47    4.13
  -5  15  -8    7.17    4.10
  -5  15  -9   19.17    4.68
  -5  15  -9   14.57    3.28
  -5  15  -9    6.76    7.82
  -5  15 -10    2.53    4.55
  -5  15 -10    8.42    4.98
  -5  15 -10    6.27    4.52
  -5  15 -11   72.66    4.92
  -5  15 -11  105.15   12.75
  -5  15 -11   67.35    7.36
  -5  15 -12   12.15    6.33
  -5  15 -12   14.99    5.93
  -5  15 -12   28.97    3.52
  -5  15 -13   78.91    9.23
  -5  15 -13   79.64    5.13
  -5  15 -13   84.76    8.52
  -5  15 -14   -2.53    5.55
  -5  15 -14    4.40    8.61
  -5  15 -14    1.13    2.75
  -5  15 -15   27.93    6.96
  -5  15 -15   20.41    3.68
  -5  15 -16   13.11    6.74
  -5  15 -16    9.34    5.72
  -5  15 -17   17.33   11.98
  -5  15 -17   10.57    3.48
  -5  15 -18   11.78    7.90
  -5  15 -19   27.16    9.46
   5 -14 -15    1.15    3.73
   5 -14 -15    6.64    6.43
   5 -14 -14   -5.45    5.65
   5 -14 -14    2.25    6.00
  -5  14  14   -0.96    3.80
   5 -14 -13    4.97    3.35
   5 -14 -13   -8.30    5.72
  -5  14  13   -6.02    3.60
   5 -14 -12   -1.12    3.24
   5 -14 -12    6.97    5.42
  -5  14  12    3.37    3.40
   5 -14 -11    2.10    3.02
   5 -14 -11   -0.69    5.21
  -5  14  11    1.90    5.35
   5 -14 -10    4.43    2.99
   5 -14 -10    5.85    5.16
  -5  14  10   -0.97    5.38
   5 -14  -9    4.93    2.75
   5 -14  -9   -4.76    4.74
  -5  14   9   -2.95    2.93
   5 -14  -8    3.12    2.80
   5 -14  -8    1.12    4.78
  -5  14   8    4.48    2.94
   5 -14  -7    3.29    2.66
   5 -14  -7   -2.23    4.35
  -5  14   7   -3.29    2.76
  -5  14   7  -10.92    5.47
   5 -14  -6    4.02    2.93
   5 -14  -6   23.18    8.08
  -5  14   6   25.81    3.25
  -5  14   6   18.86    5.84
   5 -14  -5  112.26    7.60
  -5  14   5   98.61    8.04
  -5  14   5   89.31    8.66
   5 -14  -4  180.67    9.82
  -5  14   4  198.15   10.57
  -5  14   4  167.73   10.23
   5 -14  -3   78.20    6.66
  -5  14   3   69.44    7.37
  -5  14   3   90.29    6.96
  -5  14   2   51.05    9.28
  -5  14   2   47.14    3.92
  -5  14   1    6.07    4.11
  -5  14   1   10.50    2.86
  -5  14   0  128.45   12.04
  -5  14   0  131.81    5.94
  -5  14  -1   88.30    5.86
  -5  14  -1   85.39    4.60
  -5  14  -1   94.03    5.03
  -5  14  -2  188.55   13.43
  -5  14  -2  218.72    8.16
  -5  14  -2  212.03    7.31
  -5  14  -3   87.57    5.24
  -5  14  -3   89.53    5.17
  -5  14  -3   63.43    4.63
  -5  14  -4  133.78    6.68
  -5  14  -4  137.58    9.72
  -5  14  -4  131.21    6.25
  -5  14  -5   91.58    5.69
  -5  14  -5  101.42    9.63
  -5  14  -5   93.06    5.07
  -5  14  -6  285.60    9.29
  -5  14  -6  268.02   10.81
  -5  14  -6  300.85   11.77
  -5  14  -7  102.82    5.16
  -5  14  -7  107.12    7.02
  -5  14  -7   92.61    6.53
  -5  14  -8  152.31   13.35
  -5  14  -8  141.16    8.28
  -5  14  -8  137.52    5.93
  -5  14  -9    3.19    4.18
  -5  14  -9    1.93    4.24
  -5  14  -9   -2.01    3.90
  -5  14 -10    8.49    7.91
  -5  14 -10    5.38    2.75
  -5  14 -10    7.93    7.66
  -5  14 -11   21.10    5.81
  -5  14 -11   12.99    5.25
  -5  14 -11   18.75    5.13
  -5  14 -12    5.91    5.37
  -5  14 -12    8.74    8.22
  -5  14 -12    3.66    2.70
  -5  14 -13    3.05    5.14
  -5  14 -13   -4.65    2.60
  -5  14 -14   27.02    7.02
  -5  14 -14   32.56    3.56
  -5  14 -15    2.43    9.35
  -5  14 -15   -0.04    2.64
  -5  14 -16   14.86    7.07
  -5  14 -16   15.63    3.31
  -5  14 -17   -8.90    7.15
  -5  14 -18   19.91   14.24
  -5  14 -19   22.83    9.15
  -5  14 -20   16.48    8.96
   5 -13 -16   -6.46    6.39
   5 -13 -16    2.48    4.33
  -5  13  16   19.05    7.54
   5 -13 -15   19.70    6.71
   5 -13 -15    3.81    4.39
  -5  13  15    8.88    4.67
   5 -13 -14   18.33    6.67
   5 -13 -14   12.52    7.28
  -5  13  14   15.99    4.66
   5 -13 -13   21.17    6.32
   5 -13 -13    6.95    4.13
  -5  13  13   25.70    6.94
   5 -13 -12   17.84   10.62
   5 -13 -12   20.17    4.05
  -5  13  12   15.40    6.89
   5 -13 -11   69.86    5.52
   5 -13 -11   89.64   13.60
  -5  13  11   78.80    5.65
   5 -13 -10   73.31    5.41
   5 -13 -10   97.34    8.34
  -5  13  10   86.59    5.72
   5 -13  -9   60.83    4.83
   5 -13  -9   69.83    7.24
  -5  13   9   63.80    4.80
   5 -13  -8   29.00    3.70
   5 -13  -8   27.60    5.72
  -5  13   8   29.40    3.73
   5 -13  -7    7.44    3.03
   5 -13  -7   10.57    7.76
  -5  13   7    8.64    3.09
   5 -13  -6   23.42    5.70
   5 -13  -6   30.81    5.14
  -5  13   6   29.69    6.09
  -5  13   6   22.23    3.55
   5 -13  -5   57.08    4.36
   5 -13  -5   64.48    6.14
  -5  13   5   70.55    4.41
  -5  13   5   69.85    7.09
   5 -13  -4  100.31    6.48
  -5  13   4   81.74    5.04
  -5  13   4   91.51   12.10
   5 -13  -3  218.33    9.93
  -5  13   3  225.28    7.92
  -5  13   3  207.37   10.36
   5 -13  -2  135.25    7.17
  -5  13   2  110.03    7.54
  -5  13   2  128.21    5.79
  -5  13   1  167.55    8.42
  -5  13   1  182.61   10.36
  -5  13   0  139.49    7.05
  -5  13   0  134.72    9.41
  -5  13  -1  271.84    9.72
  -5  13  -1  242.11   13.40
  -5  13  -2   43.25    6.43
  -5  13  -2   30.83    6.37
  -5  13  -2   35.01    3.60
  -5  13  -3   20.46    3.21
  -5  13  -3   13.60    5.75
  -5  13  -3   10.86    5.43
  -5  13  -4   11.47    3.29
  -5  13  -4    7.71    4.74
  -5  13  -4   10.08    3.19
  -5  13  -5   24.64    3.93
  -5  13  -5   17.58    4.06
  -5  13  -5   24.48    3.07
  -5  13  -6   55.31    3.78
  -5  13  -6   50.08    5.04
  -5  13  -6   66.50    5.29
  -5  13  -7  269.01   12.63
  -5  13  -7  265.20   11.80
  -5  13  -7  327.51   12.66
  -5  13  -8   42.58    5.48
  -5  13  -8   37.98    3.14
  -5  13  -8   27.32    5.06
  -5  13  -9  121.11   13.91
  -5  13  -9  132.60    8.18
  -5  13  -9  120.34    5.07
  -5  13 -10    1.04    4.73
  -5  13 -10    2.50    3.87
  -5  13 -10    3.76    4.23
  -5  13 -11    7.14    4.88
  -5  13 -11   -7.42    4.61
  -5  13 -11   -3.22    2.28
  -5  13 -12   17.84    5.73
  -5  13 -12   19.44    2.80
  -5  13 -13    6.52    4.23
  -5  13 -13   11.15    9.36
  -5  13 -14    7.41    5.66
  -5  13 -14    5.43    2.62
  -5  13 -15    7.06    6.08
  -5  13 -16    4.12    6.32
  -5  13 -17   70.32   10.13
  -5  13 -18    0.97   11.18
  -5  13 -19   59.13   11.14
  -5  13 -20   -0.36    7.43
  -5  13 -21   12.67   15.43
   5 -12 -18   -6.47    7.92
  -5  12  18    2.70    4.82
   5 -12 -17   50.04    8.65
   5 -12 -17   28.50    6.54
  -5  12  17   32.57   10.44
   5 -12 -16   66.82   14.86
   5 -12 -16   43.59    6.74
  -5  12  16   54.86    6.75
   5 -12 -15   51.35   14.92
   5 -12 -15   62.35    6.47
  -5  12  15   59.64    6.47
   5 -12 -14    7.81   11.24
   5 -12 -14   18.33    7.90
  -5  12  14   32.04    8.01
   5 -12 -13    8.91    5.50
   5 -12 -13    4.34    3.87
  -5  12  13    4.11    3.93
   5 -12 -12   16.29    5.69
   5 -12 -12   10.26    3.96
  -5  12  12   10.28    4.02
   5 -12 -11   43.98    6.63
   5 -12 -11   24.75    4.49
  -5  12  11   45.75    4.63
   5 -12 -10  118.87    8.95
   5 -12 -10   97.61    6.19
  -5  12  10  112.93    6.37
   5 -12  -9  122.48    8.62
   5 -12  -9  113.28    6.24
  -5  12   9  110.52    9.98
   5 -12  -8   28.13    6.11
   5 -12  -8   21.73    5.35
  -5  12   8   30.99    6.35
   5 -12  -7   15.86    3.27
   5 -12  -7   13.95    4.64
  -5  12   7    7.34    5.50
   5 -12  -6   -3.46    2.77
   5 -12  -6   -2.16    3.84
  -5  12   6   -2.29    4.64
  -5  12   6    3.12    4.65
   5 -12  -5    3.46    4.60
   5 -12  -5    2.77    3.67
  -5  12   5    2.46    4.73
  -5  12   5    6.91    4.36
   5 -12  -4   21.28    3.19
   5 -12  -4   18.71    4.04
  -5  12   4   14.35    3.17
  -5  12   4   15.36    4.73
   5 -12  -3   18.30    3.78
  -5  12   3   15.54    4.11
  -5  12   3   11.90    3.16
   5 -12  -2    5.54    5.23
  -5  12   2    1.29    3.31
  -5  12   2   -0.69    2.55
   5 -12  -1    5.99    3.14
  -5  12   1    5.14    3.44
  -5  12   1    8.39    2.89
  -5  12   0   98.46    5.71
  -5  12   0   99.67    5.34
  -5  12  -1  101.27    5.35
  -5  12  -1   99.25    5.29
  -5  12  -2  186.94    6.94
  -5  12  -2  173.37    7.44
  -5  12  -3   -0.35    2.94
  -5  12  -3   10.67    3.09
  -5  12  -3    4.59    2.56
  -5  12  -4   23.14    3.84
  -5  12  -4   21.44    4.82
  -5  12  -4   21.37    3.65
  -5  12  -5   89.84    9.50
  -5  12  -5   86.59    4.06
  -5  12  -5   81.08    5.58
  -5  12  -6    4.20    2.19
  -5  12  -6   -0.35    3.61
  -5  12  -6   -0.67    3.42
  -5  12  -7   11.09    4.19
  -5  12  -7    2.82    3.78
  -5  12  -7    4.78    6.47
  -5  12  -8  330.72   14.03
  -5  12  -8  294.60   11.86
  -5  12  -8  283.70   12.84
  -5  12  -9   78.86    7.76
  -5  12  -9   84.56    3.87
  -5  12  -9   98.43   11.28
  -5  12 -10   91.81    8.14
  -5  12 -10   75.25    7.36
  -5  12 -10   85.12    3.84
  -5  12 -11   51.77    3.05
  -5  12 -11   38.20    6.50
  -5  12 -12   76.53    7.90
  -5  12 -12   67.55    5.82
  -5  12 -13   16.78    5.45
  -5  12 -13    7.23    2.39
  -5  12 -14    4.55    5.63
  -5  12 -15   -2.04    5.75
  -5  12 -16    9.70   10.95
  -5  12 -17    1.36    6.38
  -5  12 -18  165.90   15.27
  -5  12 -19   11.28    8.27
  -5  12 -20   39.50   10.77
  -5  12 -21   -3.02    8.52
   5 -11 -19    9.00    6.62
   5 -11 -19   -1.38    8.78
  -5  11  19   -2.35    5.26
   5 -11 -18   -1.02    7.02
   5 -11 -18   20.16    5.66
  -5  11  18   11.19    9.32
   5 -11 -17   11.41    6.78
   5 -11 -17   11.20    5.25
  -5  11  17   12.56    5.37
   5 -11 -16   60.36    8.35
   5 -11 -16   34.42    6.49
  -5  11  16   47.67    6.41
   5 -11 -15   69.53    8.54
   5 -11 -15   53.36   10.43
  -5  11  15   53.50   10.79
   5 -11 -14   41.34    6.46
   5 -11 -14   10.56    4.79
  -5  11  14   23.74    4.81
   5 -11 -13    5.11    5.03
   5 -11 -13   -1.92    3.65
  -5  11  13    2.70    3.81
   5 -11 -12   17.08    5.64
   5 -11 -12   12.63    6.77
  -5  11  12   11.83    7.08
   5 -11 -11   22.72    5.51
   5 -11 -11   16.10    4.17
  -5  11  11   22.08    4.25
   5 -11 -10   -6.84    7.36
   5 -11 -10    2.96    5.33
  -5  11  10   -2.87    3.26
   5 -11  -9    6.44    4.19
   5 -11  -9    2.66    3.00
  -5  11   9    1.06    3.20
   5 -11  -8    5.34    4.25
   5 -11  -8    5.88    5.37
  -5  11   8    9.55    3.24
   5 -11  -7    3.51    3.84
   5 -11  -7    2.00    2.96
  -5  11   7    4.75    2.95
   5 -11  -6    2.39    2.78
   5 -11  -6   -1.87    3.47
  -5  11   6    2.08    2.87
   5 -11  -5   -0.51    2.68
   5 -11  -5    7.26    3.37
  -5  11   5   -2.16    2.76
  -5  11   5    2.14    4.12
   5 -11  -4   26.86    5.93
   5 -11  -4   35.59    7.29
  -5  11   4   29.05    3.58
  -5  11   4   27.73    4.91
   5 -11  -3   92.34    5.07
   5 -11  -3   96.97    5.55
  -5  11   3   93.07   10.36
  -5  11   3   83.16    5.17
   5 -11  -2  327.77   10.98
  -5  11   2  314.76   11.59
  -5  11   2  342.80   10.60
   5 -11  -1  235.85    8.34
  -5  11   1  218.97   13.19
  -5  11   1  227.88   12.17
  -5  11   0    4.66    2.89
  -5  11   0    9.68    4.90
  -5  11  -1  216.04   11.23
  -5  11  -1  234.40   12.60
  -5  11  -2  314.40    9.43
  -5  11  -2  337.93   16.24
  -5  11  -3  243.86    8.99
  -5  11  -3  214.13    6.88
  -5  11  -4   15.51    3.64
  -5  11  -4   19.71    3.88
  -5  11  -4   18.52    4.25
  -5  11  -5    7.90    3.57
  -5  11  -5    1.87    2.11
  -5  11  -5    9.08    3.38
  -5  11  -6    3.90    6.30
  -5  11  -6   11.31    2.19
  -5  11  -6   10.48    6.86
  -5  11  -7   54.77    5.85
  -5  11  -7   48.78    2.93
  -5  11  -7   45.54    5.43
  -5  11  -8   73.28    6.74
  -5  11  -8   93.30   11.74
  -5  11  -8   78.35    3.31
  -5  11  -9  149.70    9.95
  -5  11  -9  149.18    6.99
  -5  11  -9  156.24    9.01
  -5  11 -10  136.83    6.53
  -5  11 -10  143.43    9.32
  -5  11 -11  153.70   10.28
  -5  11 -11  164.36    7.27
  -5  11 -12  186.89   11.57
  -5  11 -12  175.58    5.33
  -5  11 -13  198.24   12.81
  -5  11 -14   14.52   10.18
  -5  11 -15   -0.62    5.49
  -5  11 -16   26.55    7.26
  -5  11 -17    2.67    6.55
  -5  11 -18   11.81    7.67
  -5  11 -19   72.70   19.00
  -5  11 -20   33.31   10.23
  -5  11 -21   19.51    9.89
   5 -10 -20    4.82    6.67
   5 -10 -20   11.91    5.71
  -5  10  20  -10.86    5.60
   5 -10 -19    0.11    6.37
   5 -10 -19   -0.33    5.34
  -5  10  19  -11.03    8.87
   5 -10 -18   52.98    9.12
   5 -10 -18   73.02    7.80
  -5  10  18   50.56    7.91
   5 -10 -17    1.15    6.34
   5 -10 -17   11.67    5.24
  -5  10  17    8.46    5.14
   5 -10 -16    2.32    5.25
   5 -10 -16   -4.56    7.23
  -5  10  16    0.96    4.39
   5 -10 -15   27.45    6.38
   5 -10 -15   21.57    5.19
  -5  10  15   16.97    5.15
   5 -10 -14   12.22    5.52
   5 -10 -14    7.25    4.34
  -5  10  14    9.32    7.42
   5 -10 -13   -0.78    4.80
   5 -10 -13   -4.67    6.23
  -5  10  13   -2.12    3.85
   5 -10 -12   62.29    6.96
   5 -10 -12   51.30    5.53
  -5  10  12   60.75    5.63
   5 -10 -11   39.05   10.46
   5 -10 -11   47.31    4.88
  -5  10  11   37.40    5.04
   5 -10 -10  137.21    7.07
   5 -10 -10  118.68    8.67
  -5  10  10  142.31    7.10
   5 -10  -9   19.64    4.80
   5 -10  -9   18.36    3.78
  -5  10   9   21.28    6.37
   5 -10  -8   59.88    5.67
   5 -10  -8   53.78    4.58
  -5  10   8   53.90    7.81
   5 -10  -7   -1.32    5.85
   5 -10  -7    5.05    4.74
  -5  10   7   -6.96    4.88
   5 -10  -6    4.43    3.29
   5 -10  -6   -3.54    2.72
  -5  10   6    4.82    4.70
   5 -10  -5   91.25    5.03
   5 -10  -5   81.14    5.76
  -5  10   5   89.91    8.16
   5 -10  -4   51.71    4.22
   5 -10  -4   51.42    4.59
  -5  10   4   54.70    5.64
  -5  10   4   60.21    6.94
   5 -10  -3   -9.01    4.67
   5 -10  -3   -1.70    4.89
  -5  10   3    3.09    3.37
  -5  10   3   -2.85    2.70
   5 -10  -2  137.18    6.26
   5 -10  -2  132.56    5.87
  -5  10   2  143.88   10.57
  -5  10   2  135.89    6.01
   5 -10  -1  174.53    6.47
  -5  10   1  173.77    6.89
  -5  10   1  181.98    7.02
   5 -10   0   76.47    4.17
  -5  10   0   84.90    7.23
  -5  10   0   87.46    5.03
  -5  10  -1  113.40    4.81
  -5  10  -1  115.66    5.79
  -5  10  -2  356.03    9.56
  -5  10  -2  378.67   12.21
  -5  10  -3  620.68   20.17
  -5  10  -3  649.17   28.39
  -5  10  -4  362.93   13.15
  -5  10  -4  344.04   12.22
  -5  10  -4  356.09    8.59
  -5  10  -5  132.17   11.31
  -5  10  -5  139.37    7.58
  -5  10  -5  133.09    4.04
  -5  10  -6   93.70    3.29
  -5  10  -6  101.01    6.86
  -5  10  -6   98.29    6.29
  -5  10  -7   55.30    6.17
  -5  10  -7   55.45    2.55
  -5  10  -7   60.98    5.64
  -5  10  -8   33.22    5.60
  -5  10  -8   31.80    2.10
  -5  10  -8   31.71    5.14
  -5  10  -9    2.89    4.49
  -5  10  -9    8.30    4.27
  -5  10  -9    1.28    1.59
  -5  10 -10    6.89    1.68
  -5  10 -10    9.69    7.81
  -5  10 -11   42.53    6.52
  -5  10 -11   45.23    2.46
  -5  10 -12  131.63   15.79
  -5  10 -13  118.56   10.25
  -5  10 -14   88.77    9.22
  -5  10 -15    4.03    5.95
  -5  10 -16    7.18    6.41
  -5  10 -17   60.27   10.09
  -5  10 -18   -1.75    6.69
  -5  10 -19  -10.47    7.84
  -5  10 -20   -4.11    7.91
  -5  10 -21    3.12    8.39
   5  -9 -21    0.23    6.92
   5  -9 -21   -8.24    6.49
  -5   9  21   -2.22    6.17
   5  -9 -20   22.39   12.69
   5  -9 -20    5.93    6.91
  -5   9  20   48.12   11.26
   5  -9 -19    4.19   12.99
   5  -9 -19   42.90    7.20
  -5   9  19   26.00    7.16
   5  -9 -18   18.99    9.74
   5  -9 -18   20.14   11.72
  -5   9  18   11.92   10.05
   5  -9 -17   67.52    7.79
   5  -9 -17   72.79   15.22
  -5   9  17   79.49    7.97
   5  -9 -16    0.02    4.38
   5  -9 -16   -3.27    8.82
  -5   9  16    0.69    4.30
   5  -9 -15    6.39    4.48
   5  -9 -15   -4.39    9.05
  -5   9  15    5.15    4.41
   5  -9 -14   54.23   12.93
   5  -9 -14   56.15   10.49
  -5   9  14   70.57    6.59
   5  -9 -13   10.46    9.47
   5  -9 -13   17.72    4.56
  -5   9  13   22.18    4.72
   5  -9 -12   79.94    7.67
   5  -9 -12   86.38    6.44
  -5   9  12   93.57   10.72
   5  -9 -11    2.54    4.14
   5  -9 -11   -2.24    5.65
  -5   9  11    1.41    3.51
   5  -9 -10   65.65    6.73
   5  -9 -10   74.04    5.71
  -5   9  10   84.57    5.78
   5  -9  -9    5.45    3.96
   5  -9  -9    6.09    3.27
  -5   9   9    2.45    3.39
   5  -9  -8    2.69    3.61
   5  -9  -8   -5.64    3.04
  -5   9   8    0.13    3.04
   5  -9  -7   78.82    5.51
   5  -9  -7   53.90    4.55
  -5   9   7   62.34    4.89
   5  -9  -6   55.01    5.12
   5  -9  -6   79.13    7.59
  -5   9   6   59.50    4.62
   5  -9  -5  194.02   12.44
   5  -9  -5  203.06    7.87
  -5   9   5  197.31    7.70
   5  -9  -4  874.54   27.67
   5  -9  -4  903.04   27.54
  -5   9   4  902.61   27.95
   5  -9  -3  320.65   10.55
   5  -9  -3  320.19   10.03
  -5   9   3  321.61   10.56
   5  -9  -2  114.51    5.98
   5  -9  -2  106.30    8.18
  -5   9   2  128.14    5.89
  -5   9   2  119.77    5.87
   5  -9  -1   28.19    4.80
  -5   9   1   37.09    5.91
  -5   9   1   36.01    3.79
   5  -9   0    9.22    2.23
  -5   9   0    4.44    2.46
  -5   9   0   11.12    3.14
  -5   9  -1   11.08    3.91
  -5   9  -1   12.13    3.33
  -5   9  -2  137.63    6.46
  -5   9  -2  129.90    4.31
  -5   9  -3  137.52    4.20
  -5   9  -3  158.62    7.22
  -5   9  -4  154.45    7.66
  -5   9  -4  145.11    3.98
  -5   9  -5  169.43    8.19
  -5   9  -5  163.31    7.54
  -5   9  -5  149.25    3.77
  -5   9  -6  192.05    4.26
  -5   9  -6  203.92    9.74
  -5   9  -6  188.31    8.93
  -5   9  -7  148.93   12.95
  -5   9  -7  122.24    3.10
  -5   9  -7  126.49   11.94
  -5   9  -8   23.44    5.41
  -5   9  -8   24.43    2.74
  -5   9  -8   30.39    4.95
  -5   9  -9    9.50    4.63
  -5   9  -9    9.24    4.41
  -5   9  -9    4.81    2.24
  -5   9 -10   44.08    6.05
  -5   9 -10   39.76    2.06
  -5   9 -11   41.69    6.59
  -5   9 -12    7.38    5.07
  -5   9 -13   28.61    6.70
  -5   9 -14   37.23    7.36
  -5   9 -15   32.60    7.59
  -5   9 -16    5.35    6.22
  -5   9 -17    4.31   11.30
  -5   9 -18   23.06    8.41
  -5   9 -19   -4.66    2.86
  -5   9 -19   -7.23    7.34
  -5   9 -20    7.05    2.95
  -5   9 -20    1.92    8.13
  -5   9 -21    3.34    8.41
  -5   9 -22   -2.27   14.54
   5  -8 -21   33.90    8.80
   5  -8 -21   28.55   14.12
  -5   8  21   36.35    8.07
   5  -8 -20    9.93    6.89
   5  -8 -20   14.19    6.49
  -5   8  20    3.64    6.28
   5  -8 -19   50.52    7.72
   5  -8 -19   39.92    8.16
  -5   8  19   24.10    7.72
   5  -8 -18    6.26    5.55
   5  -8 -18    4.94    6.11
  -5   8  18    7.63    5.57
   5  -8 -17   22.44    6.79
   5  -8 -17   24.34    5.88
  -5   8  17   17.51    9.93
   5  -8 -16    4.74    4.57
   5  -8 -16   -5.01    5.23
  -5   8  16    5.17    4.51
   5  -8 -15  126.52   10.10
   5  -8 -15  132.06   14.25
  -5   8  15  112.83    8.83
   5  -8 -14   67.84    6.99
   5  -8 -14   43.05    6.09
  -5   8  14   38.82    6.28
   5  -8 -13  276.34   14.21
   5  -8 -13  282.46   12.74
  -5   8  13  288.95   12.90
   5  -8 -12   76.02    7.30
   5  -8 -12   64.12    9.98
  -5   8  12   78.15    6.22
   5  -8 -11  533.42   19.27
   5  -8 -11  562.87   22.10
  -5   8  11  582.70   28.21
   5  -8 -10  300.43   17.98
   5  -8 -10  336.19   14.21
  -5   8  10  340.83   13.06
   5  -8  -9  358.79   13.17
   5  -8  -9  358.90   14.66
  -5   8   9  405.05   13.93
   5  -8  -8   11.40    6.44
   5  -8  -8   11.14    5.69
  -5   8   8    6.21    3.50
   5  -8  -7    7.24    3.57
   5  -8  -7    9.95    3.35
  -5   8   7   11.04    3.43
   5  -8  -6   18.32    3.83
   5  -8  -6   24.52    3.69
  -5   8   6   29.80    3.70
   5  -8  -5  318.66   10.44
   5  -8  -5  302.82   10.39
  -5   8   5  296.56   10.41
   5  -8  -4  319.91   10.09
   5  -8  -4  301.72   15.58
  -5   8   4  320.70   10.67
   5  -8  -3  784.91   24.42
   5  -8  -3  800.30   22.21
  -5   8   3  815.65   24.44
   5  -8  -2   62.17    4.55
   5  -8  -2   55.99    3.58
  -5   8   2   70.69    4.54
   5  -8  -1   53.95    4.09
   5  -8  -1   35.10    2.83
  -5   8   1   43.97    3.45
  -5   8   1   42.94    6.48
   5  -8   0   29.41    2.29
  -5   8   0   23.29    2.71
  -5   8   0   34.98    6.11
  -5   8  -1   10.20    3.61
  -5   8  -1   24.16    2.19
  -5   8  -2    7.61    3.32
  -5   8  -2   10.92    2.97
  -5   8  -3   16.11    3.65
  -5   8  -3   11.34    1.64
  -5   8  -4   86.00    2.43
  -5   8  -4   80.43    5.94
  -5   8  -5   -0.12    3.34
  -5   8  -5    5.63    5.92
  -5   8  -5    0.70    1.06
  -5   8  -6    0.58    3.83
  -5   8  -6    5.47    6.16
  -5   8  -6    3.74    1.68
  -5   8  -7  181.54   10.24
  -5   8  -7  194.93    3.50
  -5   8  -7  182.58    9.20
  -5   8  -8  236.90   11.82
  -5   8  -8  224.10    5.44
  -5   8  -8  224.25   10.97
  -5   8  -9  107.70   12.39
  -5   8  -9   98.77    3.50
  -5   8 -10    6.30    4.66
  -5   8 -11   12.93    5.35
  -5   8 -12    2.00    4.75
  -5   8 -13   34.21    6.89
  -5   8 -14   59.70    8.18
  -5   8 -15   64.31   14.96
  -5   8 -16   31.35    7.75
  -5   8 -17    3.61    2.40
  -5   8 -17    6.63   10.74
  -5   8 -18   62.94    4.03
  -5   8 -18   76.28   10.35
  -5   8 -19   33.07    5.72
  -5   8 -19   53.27    9.60
  -5   8 -20   34.10    9.06
  -5   8 -20   16.34    3.15
  -5   8 -21    2.26    5.34
  -5   8 -21   10.72    8.25
  -5   8 -22   -5.57   15.04
   5  -7 -22   14.19   14.21
   5  -7 -22   28.07    8.90
  -5   7  22   29.25    8.22
   5  -7 -21    5.43    7.11
   5  -7 -21   14.25    7.05
  -5   7  21   -2.11   10.87
   5  -7 -20  146.56   13.23
   5  -7 -20  156.41   13.03
  -5   7  20  128.21   12.24
   5  -7 -19   26.88    7.71
   5  -7 -19   40.58    7.37
  -5   7  19   19.36   11.89
   5  -7 -18  138.82   11.55
   5  -7 -18  115.20   17.38
  -5   7  18  135.91   10.61
   5  -7 -17   -0.71    5.40
   5  -7 -17   -2.11    8.14
  -5   7  17    8.53    4.95
   5  -7 -16  193.98   13.18
   5  -7 -16  216.53   11.96
  -5   7  16  202.48   12.14
   5  -7 -15   68.09    7.55
   5  -7 -15   51.19    6.54
  -5   7  15   50.65    6.94
   5  -7 -14  309.38   15.75
   5  -7 -14  322.18   14.02
  -5   7  14  288.03   21.90
   5  -7 -13   -3.40    4.37
   5  -7 -13    2.69    6.42
  -5   7  13    0.08    3.96
   5  -7 -12  178.74   10.20
   5  -7 -12  170.53    9.09
  -5   7  12  179.50    9.34
   5  -7 -11   70.39    7.24
   5  -7 -11   98.15   10.24
  -5   7  11   91.25    6.46
   5  -7 -10  462.25   16.39
   5  -7 -10  462.20   17.74
  -5   7  10  455.29   16.54
   5  -7  -9  257.14   11.16
   5  -7  -9  246.76   15.42
  -5   7   9  273.33   15.86
   5  -7  -8  236.38    9.53
   5  -7  -8  249.27   15.42
  -5   7   8  257.67   14.77
   5  -7  -7    3.71    3.05
   5  -7  -7    2.21    3.18
  -5   7   7   -3.52    5.27
   5  -7  -6   -3.84    4.98
   5  -7  -6    2.38    2.97
  -5   7   6   10.32    5.12
   5  -7  -5   53.48    4.31
   5  -7  -5   75.26    4.58
  -5   7   5   67.04    7.67
   5  -7  -4   92.84    4.49
   5  -7  -4  103.10    5.46
  -5   7   4   83.80    8.49
   5  -7  -3   29.90    2.83
   5  -7  -3   33.40    3.61
  -5   7   3   23.44    6.10
   5  -7  -2   87.46    5.27
   5  -7  -2   95.58    3.67
  -5   7   2   85.21    5.05
   5  -7  -1   31.04    3.93
   5  -7  -1   36.78    2.32
  -5   7   1   37.45    3.83
   5  -7   0   13.49    3.48
   5  -7   0   19.46    2.90
  -5   7   0   18.00    3.40
  -5   7  -1   -1.39    1.58
  -5   7  -1    1.04    4.78
  -5   7  -2   95.98    2.74
  -5   7  -2   99.25    9.10
  -5   7  -3    1.30    3.12
  -5   7  -3    1.40    1.74
  -5   7  -4   18.06    4.03
  -5   7  -4   19.13    1.79
  -5   7  -5  186.27    3.74
  -5   7  -5  206.62    9.07
  -5   7  -5  193.56    8.63
  -5   7  -6   14.89    4.49
  -5   7  -6   19.98    1.27
  -5   7  -6   17.20    4.17
  -5   7  -7  101.55    7.96
  -5   7  -7  110.78    2.41
  -5   7  -7  113.77    7.14
  -5   7  -8  487.59   19.48
  -5   7  -8  473.89    7.49
  -5   7  -8  483.46   18.14
  -5   7  -9  338.07   14.42
  -5   7 -10  320.09   14.64
  -5   7 -11  117.77   14.83
  -5   7 -12  114.40    9.43
  -5   7 -13    2.15    1.77
  -5   7 -13   91.02    9.57
  -5   7 -14  108.77    3.97
  -5   7 -14  116.78    9.95
  -5   7 -15   23.77    2.45
  -5   7 -15    9.26   11.80
  -5   7 -16   12.90    6.33
  -5   7 -16    5.05    3.65
  -5   7 -17   67.15    3.72
  -5   7 -17   76.20   16.23
  -5   7 -18   79.08   10.55
  -5   7 -18   73.94    4.21
  -5   7 -19  139.54    8.93
  -5   7 -19  111.87   14.13
  -5   7 -20   73.48   11.64
  -5   7 -20   55.07    4.40
  -5   7 -21   15.36    3.91
  -5   7 -21   21.05    9.23
   5  -6 -23   28.98    9.03
   5  -6 -23   32.91   15.48
  -5   6  23   31.80    8.55
   5  -6 -22    6.04    6.58
   5  -6 -22   10.32    6.98
  -5   6  22  -10.30    6.37
   5  -6 -21   89.45   10.81
   5  -6 -21   85.02   11.07
  -5   6  21   87.43   10.37
   5  -6 -20   -3.52    6.00
   5  -6 -20    3.58    6.09
  -5   6  20    4.53    5.86
   5  -6 -19   43.10   14.10
   5  -6 -19   46.24    8.38
  -5   6  19   54.11    7.91
   5  -6 -18   29.29    6.81
   5  -6 -18   16.18    6.57
  -5   6  18   18.76    6.46
   5  -6 -17   56.07    8.37
   5  -6 -17   66.30    7.88
  -5   6  17   78.36    7.97
   5  -6 -16   10.34    5.81
   5  -6 -16   15.28    5.45
  -5   6  16   24.73    9.33
   5  -6 -15  164.22   16.66
   5  -6 -15  181.34   11.71
  -5   6  15  187.68   11.15
   5  -6 -14   31.02    5.24
   5  -6 -14   24.24    6.00
  -5   6  14   26.74    5.58
   5  -6 -13   51.71    5.94
   5  -6 -13   48.65    6.67
  -5   6  13   76.26   10.26
   5  -6 -12   63.00   10.39
   5  -6 -12   60.59    7.11
  -5   6  12  103.53    6.68
   5  -6 -11   -2.40    3.60
   5  -6 -11   -2.83    4.00
  -5   6  11    1.90    3.67
   5  -6 -10    2.45    5.83
   5  -6 -10    0.58    3.71
  -5   6  10    2.74    3.59
   5  -6  -9  139.56    7.36
   5  -6  -9  137.66    7.81
  -5   6   9  146.57    7.55
   5  -6  -8   18.01    6.69
   5  -6  -8   15.11    6.53
  -5   6   8   24.12    3.96
   5  -6  -7   21.58    3.99
   5  -6  -7   30.95    3.92
  -5   6   7   39.88    6.65
   5  -6  -6   42.17    4.17
   5  -6  -6   42.63    3.96
  -5   6   6   46.57    7.05
   5  -6  -5   36.70    5.87
   5  -6  -5   42.79    4.07
  -5   6   5   37.34    3.96
   5  -6  -4   61.40    7.50
   5  -6  -4   58.72    3.63
  -5   6   4   74.92    4.53
   5  -6  -3  142.11    4.58
   5  -6  -3  145.41   10.13
  -5   6   3  153.87    6.53
   5  -6  -2  164.25    6.89
   5  -6  -2  175.59    6.99
  -5   6   2  172.93    6.96
   5  -6  -1   56.23    4.32
   5  -6  -1   43.17    2.21
  -5   6   1   61.57    4.28
   5  -6   0  160.96    6.84
   5  -6   0  154.13    4.89
  -5   6   0  146.69    6.66
   5  -6   1  184.74    3.35
  -5   6  -1  194.50    7.72
  -5   6  -2  394.30   13.33
  -5   6  -3  798.57   34.33
  -5   6  -4  109.40    6.56
  -5   6  -5    6.74    3.74
  -5   6  -6   11.09    6.49
  -5   6  -6    2.09    3.55
  -5   6  -7   10.98    4.36
  -5   6  -7    7.52    3.94
  -5   6  -8   84.33    1.57
  -5   6  -8   85.53    1.52
  -5   6  -8  108.61   11.48
  -5   6  -9  444.51    8.25
  -5   6  -9  455.68   17.71
  -5   6 -10  198.63   11.31
  -5   6 -10  213.73    5.04
  -5   6 -11  299.80    7.65
  -5   6 -11  325.43   23.12
  -5   6 -12  191.06    4.39
  -5   6 -12  197.19   12.12
  -5   6 -13  261.98    6.15
  -5   6 -13  269.43   24.32
  -5   6 -14   84.46    8.57
  -5   6 -14   72.23    3.07
  -5   6 -15   43.00    4.58
  -5   6 -15   54.62   13.70
  -5   6 -16    3.15    2.10
  -5   6 -16    2.00    6.07
  -5   6 -17   16.73    2.74
  -5   6 -17   18.10   12.05
  -5   6 -18    1.65    2.48
  -5   6 -18   -1.59    6.75
  -5   6 -19   25.51    6.03
  -5   6 -19   46.09    9.10
  -5   6 -20   64.51    5.03
  -5   6 -20   48.29   11.64
  -5   6 -21    6.14    3.69
  -5   6 -21   32.61    8.78
   5  -5 -23   45.24   10.14
   5  -5 -23   37.41    9.99
  -5   5  23   55.21    9.72
   5  -5 -22   -2.27    7.03
   5  -5 -22    8.67    7.10
  -5   5  22    8.71   11.25
   5  -5 -21   22.06    7.20
   5  -5 -21   13.82    6.89
  -5   5  21   -2.69    6.80
   5  -5 -20   29.06    7.56
   5  -5 -20   17.45    7.56
  -5   5  20   28.75   11.92
   5  -5 -19   53.35   15.32
   5  -5 -19   77.03    9.12
  -5   5  19   75.23    9.21
   5  -5 -18   26.84    6.76
   5  -5 -18   13.79   11.24
  -5   5  18   29.52   11.14
   5  -5 -17  330.19   26.39
   5  -5 -17  329.05   16.97
  -5   5  17  298.88   16.75
   5  -5 -16   20.33    9.54
   5  -5 -16    6.69    5.35
  -5   5  16   16.79    5.51
   5  -5 -15  146.71   11.02
   5  -5 -15  166.53   10.32
  -5   5  15  196.59   10.71
   5  -5 -14  105.69    8.24
   5  -5 -14   86.32    7.90
  -5   5  14  101.06    8.13
   5  -5 -13   35.74    5.47
   5  -5 -13   38.08    5.95
  -5   5  13   36.37    5.66
   5  -5 -12    1.00    3.64
   5  -5 -12   -2.86    4.00
  -5   5  12    3.53    6.34
   5  -5 -11   57.78    8.56
   5  -5 -11   36.76    5.62
  -5   5  11   44.26    5.39
   5  -5 -10   40.49    4.90
   5  -5 -10   27.41    4.61
  -5   5  10   29.45    4.72
   5  -5  -9    9.60    3.98
   5  -5  -9   16.07    6.44
  -5   5   9   13.79    3.86
   5  -5  -8   11.16    3.50
   5  -5  -8   10.42    3.57
  -5   5   8    8.20    3.67
   5  -5  -7    3.93    3.28
   5  -5  -7   13.59    5.13
  -5   5   7    5.70    3.24
   5  -5  -6  102.18    9.21
   5  -5  -6  111.56    5.06
  -5   5   6   94.71    5.65
   5  -5  -5   33.02    3.93
   5  -5  -5   31.43    3.11
  -5   5   5   29.82    3.84
   5  -5  -4 1411.24   46.89
   5  -5  -4 1383.96   45.77
  -5   5   4 1402.13   45.46
   5  -5  -3  119.74    5.67
   5  -5  -3   94.79    3.78
  -5   5   3  120.67    5.59
   5  -5  -2  175.72    7.13
   5  -5  -2  177.99    4.36
  -5   5   2  186.96    7.19
   5  -5  -1  320.38    8.11
   5  -5  -1  288.15   10.41
  -5   5   1  313.44   10.36
   5  -5   0   10.00    3.31
   5  -5   0   13.56    1.84
  -5   5   0   10.18    3.25
   5  -5   1   18.40    1.40
  -5   5  -1   23.53    3.64
  -5   5  -2  562.50   18.21
  -5   5  -3  603.48   27.43
  -5   5  -4  662.48   22.05
  -5   5  -5   55.13    5.35
  -5   5  -6    6.56    5.98
  -5   5  -6   -1.58    3.39
  -5   5  -7   -1.93    3.93
  -5   5  -7    6.09    3.65
  -5   5  -8    4.75    4.49
  -5   5  -8   19.16    6.98
  -5   5  -9   66.96    1.87
  -5   5  -9   71.26    6.61
  -5   5 -10    2.89    0.94
  -5   5 -10    5.92    4.46
  -5   5 -11   39.14    1.70
  -5   5 -11   38.08    6.24
  -5   5 -12   79.21    4.22
  -5   5 -12   98.58    8.14
  -5   5 -13   90.88    4.97
  -5   5 -13   85.54   15.36
  -5   5 -14  231.48    8.88
  -5   5 -14  253.34   14.36
  -5   5 -15    9.04    2.15
  -5   5 -15   10.17   10.34
  -5   5 -16   30.59    2.89
  -5   5 -16   31.12    7.50
  -5   5 -17   51.68    3.61
  -5   5 -18   13.97    2.97
  -5   5 -18   13.55    7.55
  -5   5 -19    3.65    5.03
  -5   5 -19   -2.33    6.76
  -5   5 -20   10.13    5.79
  -5   5 -20    8.50    8.15
  -5   5 -21    1.41    3.36
  -5   5 -21   -1.01    7.57
  -5   5 -22    3.19    3.74
  -5   5 -22   13.11    8.45
   5  -4 -24  101.07   13.49
   5  -4 -24   80.86   13.25
  -5   4  24  110.82   13.06
   5  -4 -23    7.31    7.85
   5  -4 -23    3.58    7.51
  -5   4  23   14.86    7.58
   5  -4 -22   88.02   11.25
   5  -4 -22   66.45   18.19
  -5   4  22   71.15   10.82
   5  -4 -21   22.04    7.39
   5  -4 -21    4.67    6.98
  -5   4  21   14.21    6.99
   5  -4 -20   23.25    7.58
   5  -4 -20   19.48    7.24
  -5   4  20   27.60    7.23
   5  -4 -19   26.70    6.99
   5  -4 -19   24.05    6.98
  -5   4  19   19.41    7.06
   5  -4 -18   97.65   10.52
   5  -4 -18  118.36   10.45
  -5   4  18  119.27   10.39
   5  -4 -17    5.33    5.66
   5  -4 -17   14.54    5.78
  -5   4  17    9.51    5.65
   5  -4 -16  383.02   26.35
   5  -4 -16  338.49   17.44
  -5   4  16  390.59   18.12
   5  -4 -15  114.05   15.34
   5  -4 -15  109.45    8.92
  -5   4  15  115.90   14.97
   5  -4 -14    3.77    5.37
   5  -4 -14   13.26    4.91
  -5   4  14   20.22    5.06
   5  -4 -13  122.92    9.48
   5  -4 -13  155.44    8.85
  -5   4  13  132.48    9.04
   5  -4 -12   13.52    4.56
   5  -4 -12    3.66    4.10
  -5   4  12    3.27    7.27
   5  -4 -11  204.09   10.68
   5  -4 -11  239.41   10.19
  -5   4  11  215.03   10.56
   5  -4 -10   57.17    5.70
   5  -4 -10   50.89    8.72
  -5   4  10   48.40    5.50
   5  -4  -9  441.70   15.36
   5  -4  -9  399.73   14.96
  -5   4   9  421.74   15.14
   5  -4  -8    9.25    3.40
   5  -4  -8    3.87    3.38
  -5   4   8   -0.72    3.45
   5  -4  -7   47.95    4.62
   5  -4  -7   54.91    4.24
  -5   4   7   43.60    4.55
   5  -4  -6   81.99    4.43
   5  -4  -6   76.79    4.98
  -5   4   6   69.49    4.96
   5  -4  -5  691.92   22.95
   5  -4  -5  679.92   20.70
  -5   4   5  669.71   20.51
   5  -4  -4  269.64    7.06
   5  -4  -4  277.70    9.62
  -5   4   4  256.69    9.31
   5  -4  -3 2128.53   73.80
   5  -4  -3 2142.66   78.76
  -5   4   3 2149.86   78.53
   5  -4  -2  377.45   12.36
   5  -4  -2  399.05    8.11
  -5   4   2  407.74   12.53
   5  -4  -1   97.30    5.57
   5  -4  -1  101.90    3.66
  -5   4   1   96.91    5.55
   5  -4   0  530.90   10.17
   5  -4   0  540.95   23.27
  -5   4   0  535.65   16.39
   5  -4   1  144.07    2.10
  -5   4  -1  159.09    6.77
  -5   4  -2  210.62    8.50
  -5   4  -3   59.21    7.98
  -5   4  -4    5.95    3.56
  -5   4  -5   31.94    4.70
  -5   4  -6   26.17    8.24
  -5   4  -6   33.92    4.54
  -5   4  -7   24.09    4.73
  -5   4  -7   19.83    4.27
  -5   4  -8   99.55    1.51
  -5   4  -8  113.49   11.40
  -5   4  -9   25.30    0.96
  -5   4  -9   21.84    5.14
  -5   4 -10  530.41   21.75
  -5   4 -10  565.09   10.30
  -5   4 -11  197.66    5.99
  -5   4 -11  170.21   17.90
  -5   4 -12  179.19   11.58
  -5   4 -12  181.80    4.62
  -5   4 -13   45.64    2.53
  -5   4 -13   41.96   12.16
  -5   4 -14   43.75    2.83
  -5   4 -14   34.62    7.38
  -5   4 -15   56.81    3.40
  -5   4 -15   91.24    8.68
  -5   4 -16    1.83    2.22
  -5   4 -16   -2.70    5.70
  -5   4 -17    3.80    2.57
  -5   4 -17    7.06   10.80
  -5   4 -18   20.67    3.60
  -5   4 -18   28.11    8.01
  -5   4 -19   -7.30   10.95
  -5   4 -19    0.03    2.99
  -5   4 -20    6.41    3.56
  -5   4 -20   15.26    7.88
  -5   4 -21   11.96    8.14
  -5   4 -21    3.14    6.22
  -5   4 -22   -4.55    8.32
  -5   4 -22    7.73    3.91
   5  -3 -24   10.73   13.14
   5  -3 -24   -1.25    8.03
  -5   3  24   10.33    7.89
   5  -3 -23   46.05   20.38
   5  -3 -23  118.23   12.23
  -5   3  23   62.10   20.34
   5  -3 -22   -3.26   11.30
   5  -3 -22    5.08    6.68
  -5   3  22   -9.87    6.63
   5  -3 -21   22.94   13.00
   5  -3 -21   22.22    7.37
  -5   3  21   17.92    7.61
   5  -3 -20  148.47   13.71
   5  -3 -20  178.07   22.20
  -5   3  20  174.73   13.64
   5  -3 -19    7.69    5.87
   5  -3 -19   -2.54    6.09
  -5   3  19   -1.67    5.91
   5  -3 -18  146.59   12.19
   5  -3 -18  188.65   12.48
  -5   3  18  142.89   11.82
   5  -3 -17   30.49    6.85
   5  -3 -17   39.95    7.52
  -5   3  17   36.47   11.75
   5  -3 -16  133.24   10.32
   5  -3 -16  149.64   11.20
  -5   3  16  137.32   10.48
   5  -3 -15   11.38    5.52
   5  -3 -15   19.59    6.19
  -5   3  15   27.46    5.74
   5  -3 -14  303.82   14.45
  -5   3  14  304.99   15.31
   5  -3 -13   -3.52    3.94
  -5   3  13    3.78    4.18
   5  -3 -12  166.44    9.33
  -5   3  12  163.29    9.31
   5  -3 -11   17.37    4.37
  -5   3  11   24.37    7.88
   5  -3 -10  874.91   30.06
  -5   3  10  868.91   30.25
   5  -3  -9  360.39   13.19
  -5   3   9  365.06   13.80
   5  -3  -8  824.81   26.96
  -5   3   8  843.43   27.29
   5  -3  -7   65.68    5.14
  -5   3   7   72.70    5.13
   5  -3  -6   21.95    3.89
  -5   3   6   27.16    3.81
   5  -3  -5  236.94    9.07
  -5   3   5  248.78    9.08
   5  -3  -4  636.64   26.90
  -5   3   4  638.82   19.26
   5  -3  -3  319.28   16.40
  -5   3   3  345.02   11.48
   5  -3  -2 1229.47   30.13
   5  -3  -2 1212.76   38.95
  -5   3   2 1288.22   40.25
   5  -3  -1    5.76    1.82
   5  -3  -1    5.34    3.07
  -5   3   1    2.73    3.06
   5  -3   0    9.12    3.12
   5  -3   0    8.56    1.30
  -5   3   0    7.19    3.13
   5  -3   1  659.10   20.29
   5  -3   1  673.42    9.07
  -5   3  -1  680.88   20.64
  -5   3  -2  107.73    6.10
  -5   3  -3  475.20   21.93
  -5   3  -4   51.23    4.93
  -5   3  -5  512.80   17.45
  -5   3  -6   -1.80    6.05
  -5   3  -6    2.70    3.36
  -5   3  -7   33.11    4.85
  -5   3  -7   23.80    4.45
  -5   3  -8  293.52    4.97
  -5   3  -8  274.98   18.47
  -5   3  -9   -0.63    4.06
  -5   3  -9    1.57    1.51
  -5   3 -10    3.18    2.09
  -5   3 -10   14.32    4.52
  -5   3 -11  370.26    7.77
  -5   3 -11  345.79   24.62
  -5   3 -12   47.56    6.62
  -5   3 -12   40.39    3.95
  -5   3 -13   26.82    2.45
  -5   3 -13   20.86    6.14
  -5   3 -14  106.19   10.09
  -5   3 -14  128.22    4.59
  -5   3 -15   94.22   10.44
  -5   3 -15  112.41    4.78
  -5   3 -16   89.38    9.91
  -5   3 -16   92.21    4.81
  -5   3 -17   -5.25    5.86
  -5   3 -17    0.75    2.69
  -5   3 -18   39.45    8.13
  -5   3 -18   25.19    3.89
  -5   3 -19    0.56    7.37
  -5   3 -19    9.07    3.45
  -5   3 -20   39.84    4.86
  -5   3 -20   42.85    9.93
  -5   3 -21   -1.42   12.68
  -5   3 -21   -1.19    3.65
  -5   3 -22   -8.87    8.37
  -5   3 -22   -5.38    4.11
   5  -2 -25  178.18   18.64
   5  -2 -25  206.26   18.49
  -5   2  25  174.46   18.18
   5  -2 -24   -2.30    7.55
   5  -2 -24   14.26    7.32
  -5   2  24   -8.08    7.35
   5  -2 -23   52.35   17.39
   5  -2 -23   44.81   10.75
  -5   2  23   58.98   17.13
   5  -2 -22   26.63    8.69
   5  -2 -22   12.60    8.25
  -5   2  22   22.56    7.93
   5  -2 -21  133.87   12.56
   5  -2 -21  116.23   12.57
  -5   2  21   37.47   19.73
   5  -2 -20   -5.84    6.97
   5  -2 -20   -8.14    6.59
  -5   2  20   -2.00    6.59
   5  -2 -19  156.79   16.53
   5  -2 -19  325.76   26.34
  -5   2  19  361.61   26.54
   5  -2 -18   -2.08    9.69
  -5   2  18    7.00    5.84
   5  -2 -17   97.28    9.60
  -5   2  17  104.19   16.20
   5  -2 -16   -1.37    4.73
  -5   2  16    1.43    4.90
   5  -2 -15  393.94   18.51
  -5   2  15  418.30   19.15
   5  -2 -14   63.67    7.32
  -5   2  14   80.07    7.59
   5  -2 -13   48.02    5.77
  -5   2  13   33.02    6.19
   5  -2 -12  117.49    7.81
  -5   2  12  112.16    7.96
   5  -2 -11  111.18   12.53
  -5   2  11  144.17   13.36
   5  -2 -10   -0.97    3.53
  -5   2  10    4.76    3.81
   5  -2  -9  731.37   33.48
  -5   2   9  744.63   24.86
   5  -2  -8   24.75    4.31
  -5   2   8   35.19    4.25
   5  -2  -7  278.23   10.58
  -5   2   7  307.59   10.50
   5  -2  -6  190.44   13.33
  -5   2   6  230.66    8.42
   5  -2  -5   12.79    3.42
  -5   2   5   13.97    3.39
   5  -2  -4  303.13   10.44
  -5   2   4  306.64   10.34
   5  -2  -3  388.23   12.27
  -5   2   3  407.81   12.73
   5  -2  -2   14.69    3.39
  -5   2   2   15.73    3.38
   5  -2  -1  470.70   14.53
  -5   2   1  475.04   14.67
   5  -2   0   43.02    4.12
  -5   2   0   46.91    4.20
   5  -2   1  176.66    7.27
  -5   2  -1  165.80    7.13
  -5   2  -2    8.51    3.27
  -5   2  -3  171.09   11.78
  -5   2  -4  138.59    6.91
  -5   2  -5   14.55    3.89
  -5   2  -6  241.67   16.74
  -5   2  -6  275.09   10.23
  -5   2  -7  359.80   13.76
  -5   2  -7  333.90   12.76
  -5   2  -8  190.15    9.69
  -5   2  -8  203.51   15.34
  -5   2  -8  194.11    4.51
  -5   2  -9  746.48   17.65
  -5   2  -9  718.77   26.51
  -5   2 -10   29.27    3.04
  -5   2 -10   28.94    5.38
  -5   2 -11   62.94    2.69
  -5   2 -11   67.13   11.71
  -5   2 -12   13.64    2.12
  -5   2 -12    6.24    5.11
  -5   2 -13   69.23    3.52
  -5   2 -13   65.06    7.82
  -5   2 -14   29.99    3.01
  -5   2 -14   19.63    6.45
  -5   2 -15  103.55    7.43
  -5   2 -15   76.09    9.37
  -5   2 -16   10.61    5.01
  -5   2 -16    9.31    6.05
  -5   2 -17   69.74    7.80
  -5   2 -17   62.76    9.29
  -5   2 -18    5.02    5.27
  -5   2 -18    0.27    6.28
  -5   2 -19   83.53    9.85
  -5   2 -19   91.53   11.73
  -5   2 -20   28.55    4.80
  -5   2 -20   54.93    9.40
  -5   2 -21   40.56    5.40
  -5   2 -21   40.31   10.25
  -5   2 -22   16.57    7.63
  -5   2 -22   -3.10    4.15
   5  -1 -25   13.72    7.95
  -5   1  25  -15.96    7.82
   5  -1 -24  180.37   16.42
   5  -1 -24  109.06   15.60
  -5   1  24  132.41   15.53
   5  -1 -23    5.23    8.61
   5  -1 -23   -1.86    7.86
  -5   1  23   27.69    7.79
   5  -1 -22   21.62   11.29
   5  -1 -22   75.61   10.38
  -5   1  22   69.93   10.23
   5  -1 -21    9.00    7.36
  -5   1  21   20.24   12.35
   5  -1 -20  118.78   13.14
  -5   1  20  152.84   12.94
   5  -1 -19   86.78   10.05
  -5   1  19   58.42   16.24
   5  -1 -18   20.98    6.69
  -5   1  18   18.84    7.11
   5  -1 -17   67.23   14.29
  -5   1  17   78.87   14.83
   5  -1 -16    7.68    5.34
  -5   1  16    5.78    5.64
   5  -1 -15  147.48   10.24
  -5   1  15  150.47   10.67
   5  -1 -14  220.05   12.19
  -5   1  14  232.62   12.83
   5  -1 -13  105.41    8.13
  -5   1  13  118.24    8.54
   5  -1 -12   15.35    4.75
  -5   1  12   22.85    4.93
   5  -1 -11  646.93   23.65
  -5   1  11  687.60   24.42
   5  -1 -10   80.28    6.13
  -5   1  10   72.13    6.41
   5  -1  -9   16.59    4.04
  -5   1   9   17.32    4.14
   5  -1  -8  962.50   31.69
  -5   1   8  994.94   32.00
   5  -1  -7    7.13    5.45
  -5   1   7    2.72    3.25
   5  -1  -6   70.21    5.42
  -5   1   6   86.01    5.21
   5  -1  -5  147.14    7.07
  -5   1   5  159.00    6.98
   5  -1  -4  238.16    9.01
  -5   1   4  259.90    8.98
   5  -1  -3   81.57    5.18
  -5   1   3   95.62    5.25
   5  -1  -2  855.29   25.53
  -5   1   2  863.77   25.54
   5  -1  -1   30.63    3.64
  -5   1   1   22.14    3.67
   5  -1   0  499.04   15.02
  -5   1   0  493.47   15.24
   5  -1   1  114.35    1.73
   5  -1   1  118.41    5.77
  -5   1  -1  110.67    5.78
   5  -1   2 1581.57   35.21
  -5   1  -2 1595.00   64.24
   5  -1   3  421.08    6.42
  -5   1  -3  421.54   13.76
  -5   1  -4  983.78   31.48
  -5   1  -5   16.72    3.79
  -5   1  -6   57.81    4.90
  -5   1  -6   59.77    5.25
  -5   1  -7   58.38    5.47
  -5   1  -7   47.40    4.99
  -5   1  -8  479.96   18.13
  -5   1  -8  477.95    9.16
  -5   1  -8  473.48   17.27
  -5   1  -9  133.93    3.48
  -5   1  -9  130.10    8.00
  -5   1 -10  391.94   16.04
  -5   1 -10  394.33    8.86
  -5   1 -11    5.45    4.29
  -5   1 -11    2.61    3.11
  -5   1 -12   51.07    3.12
  -5   1 -12   59.22    6.64
  -5   1 -13    0.43    2.09
  -5   1 -13   -2.99    4.51
  -5   1 -14  145.92    8.64
  -5   1 -14  120.57   16.50
  -5   1 -15    4.16    4.65
  -5   1 -15    3.40    5.38
  -5   1 -16   15.33    3.37
  -5   1 -16    6.13   10.86
  -5   1 -17   43.55    4.60
  -5   1 -17   56.35    8.28
  -5   1 -18   10.91    3.72
  -5   1 -18    4.68   12.00
  -5   1 -19   -0.47    3.52
  -5   1 -19    7.80    6.58
  -5   1 -20   91.75   10.95
  -5   1 -20   85.29   20.16
  -5   1 -21    7.13    7.34
  -5   1 -21   12.65    7.85
   5   0 -26   15.75   10.95
   5   0 -26   23.09    9.83
  -5   0  26    8.66   15.48
   5   0 -25   37.22   11.55
  -5   0  25   59.36   11.50
   5   0 -24   61.64   11.94
  -5   0  24   72.54   11.84
   5   0 -23   16.09    8.22
  -5   0  23    7.91    8.05
   5   0 -22   79.51   11.74
  -5   0  22   95.56   11.87
   5   0 -21   71.67   10.84
  -5   0  21   76.96   10.64
   5   0 -20   59.67    9.72
  -5   0  20   58.27    9.60
   5   0 -19   20.50    7.15
  -5   0  19   24.52   12.22
   5   0 -18  199.46   13.63
  -5   0  18  184.44   13.82
   5   0 -17   22.20    6.83
  -5   0  17   26.26   11.50
   5   0 -16  376.32   18.89
  -5   0  16  396.95   19.69
   5   0 -15   62.97    7.28
  -5   0  15   54.32    7.57
   5   0 -14   69.04    7.62
  -5   0  14   94.21    8.14
   5   0 -13  127.67    8.51
  -5   0  13  118.85    8.92
   5   0 -12  336.04   22.43
  -5   0  12  364.12   15.23
   5   0 -11    6.79    4.10
  -5   0  11    6.44    4.22
   5   0 -10  247.40   16.58
  -5   0  10  248.07   10.95
   5   0  -9  576.09   19.53
  -5   0   9  605.15   20.15
   5   0  -8   43.58    4.77
  -5   0   8   45.35    4.80
   5   0  -7  455.81   14.99
  -5   0   7  447.55   14.79
   5   0  -6  219.61    8.71
  -5   0   6  216.22   13.09
   5   0  -5  409.02   13.29
  -5   0   5  422.47   19.17
   5   0  -4  284.45    9.96
  -5   0   4  300.64   15.00
   5   0  -3 1825.83   64.63
  -5   0   3 1997.76   80.18
   5   0  -2  428.71   13.33
  -5   0   2  423.91   19.64
   5   0  -1  674.75   19.82
  -5   0   1  682.49   27.40
   5   0   0   40.44    3.97
  -5   0   0   46.96    6.64
   5   0   1  294.11    9.42
   5   0   1  264.68    5.79
  -5   0  -1  281.60   14.40
   5   0   2   46.10    1.38
  -5   0  -2   51.76    4.13
   5   0   3 1839.34   51.07
  -5   0  -3 1844.18   65.28
   5   0   4   57.56    1.70
  -5   0  -4   59.39    4.73
   5   0   5  211.80    4.16
  -5   0  -5  204.45   13.24
  -5   0  -6  135.09    6.91
  -5   0  -6  151.40    7.32
  -5   0  -7   76.98    5.67
  -5   0  -7   64.64    5.43
  -5   0  -8   85.59    6.68
  -5   0  -8   91.45    6.33
  -5   0  -8   96.87    4.67
  -5   0  -9   53.70    4.21
  -5   0  -9   47.16    9.40
  -5   0 -10  107.56    7.57
  -5   0 -10  113.87    4.02
  -5   0 -11    7.47    2.25
  -5   0 -11    6.77    4.54
  -5   0 -12  165.69    5.75
  -5   0 -12  162.58   16.33
  -5   0 -13   31.90    5.23
  -5   0 -13   23.08    5.86
  -5   0 -14   -3.37    2.56
  -5   0 -14    8.56    4.84
  -5   0 -15  108.26    5.62
  -5   0 -15  102.08    9.51
  -5   0 -16   21.51    3.77
  -5   0 -16   20.87    6.54
  -5   0 -17   19.20    3.90
  -5   0 -17    7.39    6.64
  -5   0 -18  114.28   12.76
  -5   0 -18  134.95    7.46
  -5   0 -19   -5.50    6.32
  -5   0 -19    1.07    3.64
  -5   0 -20    6.77    4.50
  -5   0 -20   26.39    7.62
  -5   0 -21   31.19    5.53
  -5   0 -21   14.40    9.10
   5   1 -26   32.31   10.87
  -5  -1  26   44.19   18.78
   5   1 -25   65.11   13.49
  -5  -1  25   96.73   13.55
   5   1 -24   10.36   14.11
  -5  -1  24   13.69    8.84
   5   1 -23  176.63   26.17
  -5  -1  23  163.41   16.63
   5   1 -22   24.90   13.77
  -5  -1  22   13.94    8.18
   5   1 -21  107.18   11.91
  -5  -1  21   90.19   12.10
   5   1 -20  109.58   11.65
  -5  -1  20  107.43   12.00
   5   1 -19   12.28    6.65
  -5  -1  19    5.61   11.32
   5   1 -18   99.23   10.16
  -5  -1  18   86.94   10.23
   5   1 -17  201.24   13.50
  -5  -1  17  187.72   22.90
   5   1 -16   25.48    6.38
  -5  -1  16   18.44    6.67
   5   1 -15  140.86   14.76
  -5  -1  15   82.70    9.16
   5   1 -14  177.75   10.62
  -5  -1  14  168.23   11.33
   5   1 -13  101.25    7.78
  -5  -1  13   85.82    8.13
   5   1 -12  153.69    8.96
  -5  -1  12  166.62   15.67
   5   1 -11  202.29    9.90
  -5  -1  11  209.39   10.44
   5   1 -10  309.85   12.48
  -5  -1  10  310.87   12.69
   5   1  -9   -0.40    3.50
  -5  -1   9   -7.18    3.63
   5   1  -8  609.18   27.61
  -5  -1   8  618.63   27.97
   5   1  -7   36.69    4.42
  -5  -1   7   52.02    7.38
   5   1  -6  192.49    8.03
  -5  -1   6  198.87    8.03
   5   1  -5  364.29   12.09
  -5  -1   5  395.06   12.44
   5   1  -4  227.53    8.41
  -5  -1   4  234.01    8.61
   5   1  -3   83.11    4.93
  -5  -1   3   84.89    4.98
   5   1  -2 1482.13   48.84
  -5  -1   2 1552.92   50.15
   5   1  -1   29.16    3.36
  -5  -1   1   17.05    3.45
   5   1   0    9.34    2.83
  -5  -1   0    0.31    2.88
   5   1   1  571.74   16.60
   5   1   1  548.33   10.57
  -5  -1  -1  598.83   16.99
   5   1   2   49.23    2.99
  -5  -1  -2   55.62    4.17
   5   1   3  235.41    6.40
  -5  -1  -3  243.48    8.64
   5   1   4   88.51    4.09
  -5  -1  -4   97.86    8.54
   5   1   5  200.96    4.68
  -5  -1  -5  221.76    8.56
   5   1   6    6.37    3.01
  -5  -1  -6    0.91    3.42
  -5  -1  -6   11.03    3.23
  -5  -1  -7  299.67   11.19
  -5  -1  -7  271.07   10.52
  -5  -1  -8   56.74    5.21
  -5  -1  -8   50.30    5.04
  -5  -1  -8   39.42    4.54
  -5  -1  -9  162.20    8.75
  -5  -1  -9  161.37    4.99
  -5  -1  -9  152.06    8.34
  -5  -1 -10   33.47    8.24
  -5  -1 -10   29.89    2.81
  -5  -1 -11  539.32   21.47
  -5  -1 -11  598.25   16.03
  -5  -1 -12   66.40    6.73
  -5  -1 -12   59.71    6.67
  -5  -1 -13  188.40    7.11
  -5  -1 -13  167.09   17.07
  -5  -1 -14  104.42    5.57
  -5  -1 -14   82.61    8.61
  -5  -1 -15    3.35    3.12
  -5  -1 -15    6.55    8.82
  -5  -1 -16   33.97    7.14
  -5  -1 -16   29.41    6.93
  -5  -1 -17   29.20   11.50
  -5  -1 -17   11.82    6.95
  -5  -1 -18   -0.21    6.08
  -5  -1 -18    2.54    6.06
  -5  -1 -19   38.79    9.37
  -5  -1 -19   49.25   14.92
  -5  -1 -20    3.19    7.56
  -5  -1 -20    9.30    7.24
   5   2 -26   -9.95   13.60
  -5  -2  26   11.57   13.78
   5   2 -25  113.74   25.59
  -5  -2  25  130.98   15.64
   5   2 -24   19.01   15.55
  -5  -2  24   22.15    9.66
   5   2 -23   41.28   17.36
  -5  -2  23   50.32   10.55
   5   2 -22  125.50   22.44
  -5  -2  22  123.22   13.68
   5   2 -21   42.18   15.91
  -5  -2  21   56.58   16.19
   5   2 -20    8.94   11.72
  -5  -2  20    9.39    7.01
   5   2 -19  398.55   22.70
  -5  -2  19  394.27   36.03
   5   2 -18   -3.48    5.61
  -5  -2  18    5.28    5.72
   5   2 -17  272.81   16.33
  -5  -2  17  270.85   26.47
   5   2 -16  104.08    9.53
  -5  -2  16   96.94    9.78
   5   2 -15  205.69   12.69
  -5  -2  15  228.31   20.97
   5   2 -14   -3.14    7.61
  -5  -2  14    4.43    4.96
   5   2 -13  115.51    8.69
  -5  -2  13  145.99    9.06
   5   2 -12  666.67   25.04
  -5  -2  12  697.74   26.79
   5   2 -11    8.61    3.89
  -5  -2  11   -2.09    4.25
   5   2 -10  172.05    8.73
  -5  -2  10  171.23    8.87
   5   2  -9  462.78   15.68
  -5  -2   9  456.93   23.94
   5   2  -8    1.45    5.72
  -5  -2   8    8.91    3.60
   5   2  -7  238.27    9.33
  -5  -2   7  251.27    9.50
   5   2  -6 1161.54   37.19
  -5  -2   6 1186.23   37.83
   5   2  -5   47.24    4.28
  -5  -2   5   45.30    4.28
   5   2  -4  849.63   25.51
  -5  -2   4  880.29   25.98
   5   2  -3   65.67    4.39
  -5  -2   3   71.16    4.51
   5   2  -2  123.98    5.47
  -5  -2   2  116.11    5.57
   5   2  -1  256.70    8.57
  -5  -2   1  270.01    8.81
   5   2   0  375.98   11.31
  -5  -2   0  382.20   11.58
   5   2   1   40.27    3.68
   5   2   1   34.93    3.36
  -5  -2  -1   42.68    3.78
   5   2   2  457.13    9.62
  -5  -2  -2  485.64   13.95
   5   2   3    4.45    1.59
  -5  -2  -3    5.93    4.83
   5   2   4  340.71   10.36
  -5  -2  -4  337.41   11.05
   5   2   5   11.23    1.97
  -5  -2  -5    2.69    3.17
  -5  -2  -5   10.73    3.22
   5   2   6  398.13   13.14
  -5  -2  -6  387.82   19.29
  -5  -2  -6  363.21   17.98
   5   2   7   22.95    4.63
  -5  -2  -7   22.13    4.20
  -5  -2  -7   32.15    6.39
   5   2   8    1.56    2.51
  -5  -2  -8    9.38    6.01
  -5  -2  -8    5.86    3.42
  -5  -2  -8    4.67    2.20
  -5  -2  -9  332.27   13.08
  -5  -2  -9  327.78    9.22
  -5  -2  -9  313.05   12.78
  -5  -2 -10   32.68    5.20
  -5  -2 -10   27.01    5.00
  -5  -2 -10   32.82    3.15
  -5  -2 -11   -0.53    2.39
  -5  -2 -11    5.96    6.24
  -5  -2 -12  567.12   17.11
  -5  -2 -12  528.77   21.45
  -5  -2 -13    5.04    4.30
  -5  -2 -13   -3.15    2.86
  -5  -2 -14   10.03    5.96
  -5  -2 -14   16.88    5.35
  -5  -2 -15  116.42   10.47
  -5  -2 -15  149.78    7.28
  -5  -2 -16   -2.03    3.50
  -5  -2 -16   -3.00    5.24
  -5  -2 -17   13.92    6.38
  -5  -2 -17   11.32    4.27
  -5  -2 -18   14.01    7.07
  -5  -2 -18   17.65    4.71
  -5  -2 -19   26.24    5.48
  -5  -2 -19   35.02    7.97
  -5  -2 -20    0.23    4.34
  -5  -2 -20   -0.73    6.40
   5   3 -26  139.85   17.90
  -5  -3  26  165.82   29.23
   5   3 -25   18.65    9.19
  -5  -3  25    6.08    9.36
   5   3 -24  197.03   19.29
  -5  -3  24  227.65   19.91
   5   3 -23  -14.20    7.60
  -5  -3  23    3.65    7.81
   5   3 -22   49.88   10.40
  -5  -3  22   62.38   10.59
   5   3 -21   51.32    9.43
  -5  -3  21   30.47   16.02
   5   3 -20  173.70   22.29
  -5  -3  20  151.80   14.20
   5   3 -19   32.24   12.07
  -5  -3  19    1.73   12.57
   5   3 -18  156.86   12.69
  -5  -3  18  161.51   12.96
   5   3 -17  121.37   10.43
  -5  -3  17  102.13   10.84
   5   3 -16  388.56   19.26
  -5  -3  16  377.83   20.16
   5   3 -15   11.51    5.57
  -5  -3  15   22.87    9.95
   5   3 -14  113.53   15.37
  -5  -3  14  147.59   10.28
   5   3 -13  240.07   12.00
  -5  -3  13  262.24   20.69
   5   3 -12   15.36    4.81
  -5  -3  12   23.55    5.13
   5   3 -11  972.93   35.18
  -5  -3  11 1035.69   36.87
   5   3 -10   36.01    4.94
  -5  -3  10   48.12    8.67
   5   3  -9  247.92   10.45
  -5  -3   9  270.45   10.92
   5   3  -8  295.32   10.87
  -5  -3   8  316.52   11.57
   5   3  -7  237.12    9.16
  -5  -3   7  248.96    9.57
   5   3  -6    9.50    3.37
  -5  -3   6   17.58    3.40
   5   3  -5 1608.00   53.85
  -5  -3   5 1617.62   54.35
   5   3  -4   -2.75    2.61
  -5  -3   4    7.42    4.55
   5   3  -3  389.69   11.54
  -5  -3   3  391.26   17.07
   5   3  -2  115.92    5.35
  -5  -3   2  124.09    8.70
   5   3  -1  138.14    5.66
  -5  -3   1  146.00    9.13
   5   3   0  450.30   10.64
   5   3   0  464.26   18.28
  -5  -3   0  457.20   18.16
   5   3   1   14.01    2.06
  -5  -3  -1   20.62    5.07
   5   3   2  393.96    9.38
  -5  -3  -2  434.70   12.52
   5   3   3   17.88    2.21
  -5  -3  -3   21.67    3.13
   5   3   4  248.66    6.67
  -5  -3  -4  248.74    8.73
   5   3   5  109.01    6.72
  -5  -3  -5  128.93    9.08
  -5  -3  -5  109.09    5.54
   5   3   6   10.52    4.11
  -5  -3  -6    9.19    3.34
  -5  -3  -6   10.48    3.17
   5   3   7   50.12    3.50
  -5  -3  -7   51.25    4.59
  -5  -3  -7   37.56    4.52
   5   3   8  484.21   14.10
  -5  -3  -8  490.13   17.22
  -5  -3  -8  453.83   22.99
  -5  -3  -8  495.46   13.66
  -5  -3  -9  115.16   11.23
  -5  -3  -9  115.72   11.05
  -5  -3  -9  117.33    5.33
  -5  -3 -10  640.13   23.23
  -5  -3 -10  600.32   22.15
  -5  -3 -10  652.36   19.12
  -5  -3 -11   87.69    6.92
  -5  -3 -11   86.39    6.69
  -5  -3 -11   80.27    4.89
  -5  -3 -12   -0.80    4.02
  -5  -3 -12   -1.76    4.86
  -5  -3 -12    0.58    6.58
  -5  -3 -13  130.98    6.76
  -5  -3 -13  129.43    8.68
  -5  -3 -14   30.73    4.48
  -5  -3 -14   34.62    6.06
  -5  -3 -15    7.01    3.83
  -5  -3 -15    6.00    5.19
  -5  -3 -16   23.42    6.76
  -5  -3 -16   32.60    4.96
  -5  -3 -17   16.93    6.50
  -5  -3 -17   15.20    7.82
  -5  -3 -18    0.89    5.60
  -5  -3 -18   -1.26    6.80
  -5  -3 -19   29.10    7.49
  -5  -3 -19   10.29    9.10
   5   4 -26   30.91   10.96
  -5  -4  26   18.75   18.75
   5   4 -25   72.15   13.87
  -5  -4  25   97.72   13.96
   5   4 -24    7.49    8.09
  -5  -4  24  -14.91    8.15
   5   4 -23  113.54   14.53
  -5  -4  23  136.61   14.62
   5   4 -22    3.65    7.77
  -5  -4  22   15.80    7.79
   5   4 -21   90.63   11.97
  -5  -4  21   98.65   20.09
   5   4 -20   67.75   10.51
  -5  -4  20   88.79   10.82
   5   4 -19   42.83   14.93
  -5  -4  19   59.48    9.64
   5   4 -18  261.75   24.67
  -5  -4  18  217.40   15.92
   5   4 -17   46.14    7.87
  -5  -4  17   47.20    8.28
   5   4 -16  321.68   17.58
  -5  -4  16  333.34   18.03
   5   4 -15  176.02   11.19
  -5  -4  15  177.17   12.27
   5   4 -14    5.49    8.05
  -5  -4  14    4.81    5.05
   5   4 -13  132.28    8.84
  -5  -4  13  138.95    9.65
   5   4 -12  253.16   12.01
  -5  -4  12  272.52   12.85
   5   4 -11   18.10    4.43
  -5  -4  11    4.37    8.02
   5   4 -10  751.73   26.00
  -5  -4  10  756.07   26.91
   5   4  -9   12.76    3.60
  -5  -4   9    3.82    3.80
   5   4  -8   69.71    8.98
  -5  -4   8   92.30    5.78
   5   4  -7  510.61   16.29
  -5  -4   7  537.85   23.94
   5   4  -6  118.83    5.85
  -5  -4   6  122.26    6.16
   5   4  -5  383.17   11.88
  -5  -4   5  382.66   12.30
   5   4  -4  155.07    6.40
  -5  -4   4  177.95    6.63
   5   4  -3  405.46   11.80
  -5  -4   3  430.05   12.47
   5   4  -2    3.56    2.60
  -5  -4   2    8.90    2.71
   5   4  -1  850.54   31.09
  -5  -4   1  894.55   25.65
   5   4   0    6.81    2.65
   5   4   0    9.44    3.89
  -5  -4   0    7.64    2.73
   5   4   1  388.49    9.88
  -5  -4  -1  398.65   11.44
   5   4   2  132.62    4.78
  -5  -4  -2  150.21    5.85
   5   4   3 1204.78   41.87
  -5  -4  -3 1253.57   46.81
   5   4   4  254.22    7.47
  -5  -4  -4  245.43    8.62
   5   4   5  368.81   10.35
  -5  -4  -5  386.50   11.90
  -5  -4  -5  352.99   10.98
   5   4   6   92.92    4.61
  -5  -4  -6  102.84    5.40
  -5  -4  -6   91.63    4.99
   5   4   7   27.41    3.39
  -5  -4  -7   24.99    3.90
  -5  -4  -7   42.17    3.89
   5   4   8   -1.07    2.79
  -5  -4  -8    8.86    3.21
  -5  -4  -8    2.99    3.31
   5   4   9  671.65   21.35
  -5  -4  -9  649.14   22.80
  -5  -4  -9  621.78   21.73
  -5  -4  -9  708.79   20.97
  -5  -4 -10   -0.43    6.11
  -5  -4 -10    7.71    6.12
  -5  -4 -10    2.89    5.08
  -5  -4 -11  100.11    7.14
  -5  -4 -11   88.64    6.77
  -5  -4 -11  101.88    5.83
  -5  -4 -12   65.11    6.35
  -5  -4 -12   60.06    6.20
  -5  -4 -12   56.93    4.99
  -5  -4 -13   28.08    8.65
  -5  -4 -13   12.00    5.30
  -5  -4 -13   28.44    4.01
  -5  -4 -14   -2.86    5.25
  -5  -4 -14   28.27    5.33
  -5  -4 -14   25.51    6.96
  -5  -4 -15   18.07    4.64
  -5  -4 -15   22.75    9.83
  -5  -4 -16   19.95    6.26
  -5  -4 -16   21.60    4.91
  -5  -4 -17   -7.51    5.47
  -5  -4 -17    0.33    4.28
  -5  -4 -18   51.26    8.69
  -5  -4 -18   59.73    6.94
  -5  -4 -19    0.55   10.40
  -5  -4 -19   -6.64    5.08
   5   5 -26   15.75    9.59
  -5  -5  26    3.30   15.75
   5   5 -25   70.43   12.44
  -5  -5  25   58.60   13.13
   5   5 -24   -2.22    8.26
  -5  -5  24   15.61    8.36
   5   5 -23   56.60   11.09
  -5  -5  23   61.77   19.19
   5   5 -22   34.18    9.63
  -5  -5  22   47.06    9.90
   5   5 -21   20.09    9.08
  -5  -5  21   54.20    9.55
   5   5 -20  169.67   14.28
  -5  -5  20  175.16   14.84
   5   5 -19   26.77   13.07
  -5  -5  19   33.55    8.29
   5   5 -18   53.91   14.05
  -5  -5  18   52.44   14.67
   5   5 -17  428.53   21.41
  -5  -5  17  440.75   22.83
   5   5 -16   48.63    7.76
  -5  -5  16   72.06   13.81
   5   5 -15   74.36    8.24
  -5  -5  15   86.40    8.73
   5   5 -14  352.75   25.03
  -5  -5  14  395.55   27.12
   5   5 -13   45.43    6.13
  -5  -5  13   52.68    6.79
   5   5 -12  233.65   11.01
  -5  -5  12  226.38   11.71
   5   5 -11  125.79    7.52
  -5  -5  11  118.09    8.41
   5   5 -10   59.68    5.71
  -5  -5  10   74.97    6.16
   5   5  -9   42.86    4.47
  -5  -5   9   25.76    8.13
   5   5  -8  398.19   18.99
  -5  -5   8  388.22   13.75
   5   5  -7   23.08    3.65
  -5  -5   7   24.70    3.92
   5   5  -6  496.33   15.30
  -5  -5   6  517.51   15.61
   5   5  -5   85.81    4.78
  -5  -5   5   79.10    4.97
   5   5  -4  421.18   12.39
  -5  -5   4  442.39   18.02
   5   5  -3    4.51    2.56
  -5  -5   3    4.99    4.56
   5   5  -2  707.17   25.66
  -5  -5   2  738.03   27.32
   5   5  -1    2.37    2.47
   5   5  -1    1.29    2.33
  -5  -5   1    0.07    4.09
   5   5   0  172.24    5.97
   5   5   0  154.76    5.91
  -5  -5   0  157.42    9.31
   5   5   1   73.43    3.98
  -5  -5  -1   55.17    4.06
   5   5   2  235.91   11.48
  -5  -5  -2  247.74    7.97
   5   5   3   99.89    7.51
  -5  -5  -3   99.10    4.77
   5   5   4  591.02   16.34
  -5  -5  -4  569.36   16.56
  -5  -5  -4  588.76   16.24
   5   5   5   -1.52    2.56
  -5  -5  -5   -1.30    4.36
  -5  -5  -5    4.24    2.42
   5   5   6   27.20    3.18
  -5  -5  -6   13.89    3.26
  -5  -5  -6   15.59    3.28
   5   5   7  111.41    5.80
  -5  -5  -7  104.85    5.71
  -5  -5  -7  110.75    5.67
   5   5   8   88.40    8.98
  -5  -5  -8   90.01    5.53
  -5  -5  -8   97.60    8.94
   5   5   9   60.02    7.87
  -5  -5  -9   52.27    5.17
  -5  -5  -9   52.51    4.92
  -5  -5  -9   65.55    4.74
   5   5  10  106.43    6.79
  -5  -5 -10  115.85    6.98
  -5  -5 -10  113.49    6.87
  -5  -5 -10  129.41    6.54
  -5  -5 -11   66.00    9.29
  -5  -5 -11   50.51    5.78
  -5  -5 -11   68.69    5.28
  -5  -5 -12   20.87    4.51
  -5  -5 -12   12.46    4.50
  -5  -5 -12   14.54    4.17
  -5  -5 -13   84.13    7.32
  -5  -5 -13  101.00    7.36
  -5  -5 -13   85.06    6.50
  -5  -5 -14   16.13    5.28
  -5  -5 -14    8.44    9.22
  -5  -5 -14   24.21    4.56
  -5  -5 -15   11.91    4.78
  -5  -5 -15    5.35    4.95
  -5  -5 -15   -4.08    4.12
  -5  -5 -16   15.24    5.98
  -5  -5 -16   14.19    9.95
  -5  -5 -16   22.19    4.99
  -5  -5 -17   35.96    7.62
  -5  -5 -17   49.37    7.60
  -5  -5 -17   50.87   10.34
  -5  -5 -18    1.53    5.43
  -5  -5 -18   -3.67    8.99
  -5  -5 -18   -0.85    7.39
   5   6 -26   31.48   12.21
  -5  -6  26   54.21   11.62
   5   6 -25   -5.54    8.27
  -5  -6  25   -0.06    8.69
   5   6 -24   74.34   12.91
  -5  -6  24   86.95   13.22
   5   6 -23    3.68    7.54
  -5  -6  23    1.15   12.85
   5   6 -22  121.35   13.30
  -5  -6  22  105.48   13.76
   5   6 -21  130.22   12.17
  -5  -6  21   82.78   12.82
   5   6 -20   -3.44    6.18
  -5  -6  20   12.77   10.81
   5   6 -19  304.21   20.00
  -5  -6  19  357.48   20.56
   5   6 -18    4.68    9.23
  -5  -6  18   -3.11    5.99
   5   6 -17  233.01   14.95
  -5  -6  17  240.80   15.43
   5   6 -16  162.41   10.84
  -5  -6  16  126.83   11.56
   5   6 -15   63.98    7.91
  -5  -6  15   94.80    8.71
   5   6 -14   16.43    8.96
  -5  -6  14   21.11    5.92
   5   6 -13  225.35   11.56
  -5  -6  13  253.55   12.97
   5   6 -12   -0.45    3.74
  -5  -6  12    1.68    4.23
   5   6 -11  127.98    7.67
  -5  -6  11  140.20    8.49
   5   6 -10   58.51    5.28
  -5  -6  10   68.94    9.80
   5   6  -9  152.09    7.26
  -5  -6   9  145.52    7.81
   5   6  -8    7.81    3.28
  -5  -6   8    6.72    3.53
   5   6  -7  370.24   17.10
  -5  -6   7  358.32   18.26
   5   6  -6  234.39    8.47
  -5  -6   6  256.52    9.11
   5   6  -5    2.26    4.40
  -5  -6   5   -2.36    2.77
   5   6  -4  774.14   29.20
  -5  -6   4  817.55   24.03
   5   6  -3   75.33    4.15
  -5  -6   3   71.63    4.19
   5   6  -2   70.85    4.01
  -5  -6   2   76.66    4.19
   5   6  -1   72.55    4.99
   5   6  -1   94.07    4.20
  -5  -6   1   85.59    4.27
   5   6   0  270.78    8.03
   5   6   0  257.61   12.85
  -5  -6   0  271.55    8.27
   5   6   1    8.98    5.30
  -5  -6  -1   23.14    4.54
   5   6   2  207.19   11.82
  -5  -6  -2  223.73   10.56
   5   6   3   36.02    3.76
  -5  -6  -3   43.30    5.46
   5   6   4   79.23    4.74
  -5  -6  -4   81.22    4.34
  -5  -6  -4   81.75    4.17
   5   6   5   12.57    5.22
  -5  -6  -5    7.16    2.65
  -5  -6  -5   10.23    2.62
   5   6   6  237.70   13.60
  -5  -6  -6  230.77   12.12
  -5  -6  -6  233.82    7.77
   5   6   7   30.67    6.83
  -5  -6  -7   35.91    3.72
  -5  -6  -7   32.01    3.71
   5   6   8   88.84    6.03
  -5  -6  -8  105.52    5.45
  -5  -6  -8   91.49    5.55
   5   6   9   96.42    6.23
  -5  -6  -9   92.79    5.88
  -5  -6  -9  108.47    6.00
   5   6  10   24.02    4.59
  -5  -6 -10   21.82    6.56
  -5  -6 -10   17.76    7.02
  -5  -6 -10   22.49    4.32
   5   6  11   33.56    5.36
  -5  -6 -11   35.88    4.76
  -5  -6 -11   35.95    4.89
  -5  -6 -11   41.10    5.14
  -5  -6 -12  125.62    8.05
  -5  -6 -12  156.84    8.30
  -5  -6 -12  130.42    8.54
  -5  -6 -13   -3.67    3.84
  -5  -6 -13    0.88    6.67
  -5  -6 -13    7.48    6.56
  -5  -6 -14   19.99    9.21
  -5  -6 -14   34.24    6.00
  -5  -6 -14   45.20    9.20
  -5  -6 -15   74.47    7.25
  -5  -6 -15   57.59   12.53
  -5  -6 -15   71.44    7.22
  -5  -6 -16    7.10    4.94
  -5  -6 -16    0.46    4.67
  -5  -6 -16   -3.82    4.53
  -5  -6 -17   43.71    7.44
  -5  -6 -17   56.60   12.63
  -5  -6 -17   56.85    7.12
   5   7 -26   46.48   11.98
  -5  -7  26   40.59   11.70
   5   7 -25   -6.04    8.83
  -5  -7  25  -12.34   15.22
   5   7 -24   72.61   11.94
  -5  -7  24   52.56   12.41
   5   7 -23   56.61   10.72
  -5  -7  23   45.89   11.19
   5   7 -22    6.95    7.08
  -5  -7  22   -1.28    7.47
   5   7 -21   94.47   11.83
  -5  -7  21  100.33   12.44
   5   7 -20   99.17   10.52
  -5  -7  20   65.70   11.01
   5   7 -19   -9.88   10.79
  -5  -7  19   -8.74    6.86
   5   7 -18  409.35   33.59
  -5  -7  18  422.93   23.52
   5   7 -17    5.78    5.38
  -5  -7  17   -7.15    9.66
   5   7 -16  135.98   10.74
  -5  -7  16  163.34   11.68
   5   7 -15   31.84    6.30
  -5  -7  15   49.38   11.50
   5   7 -14   77.96   13.01
  -5  -7  14  121.17    9.30
   5   7 -13   46.98    5.82
  -5  -7  13   39.42   10.97
   5   7 -12    6.77    4.16
  -5  -7  12   13.16    4.74
   5   7 -11  251.38   10.76
  -5  -7  11  252.22   18.77
   5   7 -10    8.49    6.11
  -5  -7  10    8.54    4.04
   5   7  -9  293.85   11.05
  -5  -7   9  317.47   11.79
   5   7  -8   68.20    4.86
  -5  -7   8   76.73    5.46
   5   7  -7  136.38    6.37
  -5  -7   7  151.59    6.94
   5   7  -6    0.01    2.71
  -5  -7   6   -5.80    2.95
   5   7  -5 1279.74   40.48
  -5  -7   5 1304.00   51.33
   5   7  -4  206.51    6.91
  -5  -7   4  198.11    7.60
   5   7  -3  874.98   25.22
  -5  -7   3  914.31   26.66
   5   7  -2    5.74    3.04
   5   7  -2   -3.66    2.23
  -5  -7   2   -2.77    2.35
   5   7  -1  384.10   14.82
   5   7  -1  383.96   12.48
  -5  -7   1  371.80   10.73
   5   7   0    7.96    3.28
  -5  -7   0    7.25    2.38
   5   7   1  373.12   12.67
  -5  -7  -1  392.11   10.81
   5   7   2   15.88    3.38
  -5  -7  -2   10.98    2.61
   5   7   3  117.20    6.05
  -5  -7  -3  114.97    7.55
  -5  -7  -3  114.21    4.55
   5   7   4   42.52    4.03
  -5  -7  -4   28.70    2.94
  -5  -7  -4   26.96    5.17
   5   7   5  189.80   12.07
  -5  -7  -5  167.15    6.24
  -5  -7  -5  172.93    6.31
   5   7   6   27.73    6.86
  -5  -7  -6   27.44    3.25
  -5  -7  -6   33.20    3.27
   5   7   7  168.70    7.97
  -5  -7  -7  161.55    6.66
  -5  -7  -7  170.27    9.81
   5   7   8   48.93    5.22
  -5  -7  -8   42.77    4.40
  -5  -7  -8   62.77    4.22
   5   7   9   -9.61    3.75
  -5  -7  -9    1.02    5.00
  -5  -7  -9    0.78    5.22
   5   7  10  224.95   15.64
  -5  -7 -10  200.02    8.67
  -5  -7 -10  201.90    8.97
   5   7  11   15.22    4.68
  -5  -7 -11   11.51    3.77
  -5  -7 -11    9.60    4.06
  -5  -7 -12   11.03    6.57
  -5  -7 -12   14.93    6.96
  -5  -7 -12    8.35    4.60
  -5  -7 -13  120.31    7.71
  -5  -7 -13  129.39    8.49
  -5  -7 -13  111.71    8.86
  -5  -7 -14   10.66    4.42
  -5  -7 -14    7.20    4.78
  -5  -7 -14    9.95    5.04
  -5  -7 -15    3.13    4.49
  -5  -7 -15    3.13    4.85
  -5  -7 -15    7.61    5.01
  -5  -7 -16   82.68    7.69
  -5  -7 -16   76.37    8.18
  -5  -7 -16   72.69   14.03
   5   8 -26   11.04    9.15
  -5  -8  26    5.40    9.28
   5   8 -25   74.32   13.69
  -5  -8  25  105.20   22.43
   5   8 -24   -0.49    7.63
  -5  -8  24    2.20    7.98
   5   8 -23   54.75   11.16
  -5  -8  23   71.15   11.97
   5   8 -22   49.20    9.87
  -5  -8  22   48.95   17.35
   5   8 -21   -8.57    7.22
  -5  -8  21  -12.63    7.60
   5   8 -20  121.69   12.74
  -5  -8  20  161.37   13.81
   5   8 -19    4.26   11.13
  -5  -8  19   26.05   12.13
   5   8 -18  114.60   10.56
  -5  -8  18  114.46   11.65
   5   8 -17   55.70    8.30
  -5  -8  17   80.56    9.02
   5   8 -16   55.40    7.39
  -5  -8  16   58.68    8.20
   5   8 -15  115.28    8.78
  -5  -8  15  105.65    9.59
   5   8 -14   57.76    6.26
  -5  -8  14   28.37   11.89
   5   8 -13   64.61    6.32
  -5  -8  13   74.19    7.44
   5   8 -12  272.12   18.25
  -5  -8  12  273.03   20.71
   5   8 -11   90.57    6.59
  -5  -8  11  102.55    7.44
   5   8 -10  824.34   28.06
  -5  -8  10  927.34   42.13
   5   8  -9   25.66    4.19
  -5  -8   9   51.67    4.90
   5   8  -8  235.75    8.78
  -5  -8   8  244.14    9.74
   5   8  -7  101.74    5.36
  -5  -8   7  109.46    6.00
   5   8  -6  201.42    7.34
  -5  -8   6  202.70    8.03
   5   8  -5   13.37    2.84
  -5  -8   5   10.96    3.00
   5   8  -4  367.08   10.58
  -5  -8   4  389.61   16.23
   5   8  -3   19.10    4.47
  -5  -8   3    8.14    4.69
   5   8  -2  487.90   25.03
   5   8  -2  506.85   13.87
  -5  -8   2  528.56   14.23
   5   8  -1    3.76    2.24
   5   8  -1    7.52    3.33
  -5  -8   1    1.24    2.30
   5   8   0  258.81   10.49
  -5  -8   0  263.47    7.74
   5   8   1   32.28    4.53
  -5  -8  -1   38.54    3.00
   5   8   2  114.97    6.59
  -5  -8  -2  113.54    4.50
   5   8   3  191.90    8.41
  -5  -8  -3  186.25    8.61
  -5  -8  -3  190.98    6.09
   5   8   4   12.62    3.74
  -5  -8  -4   12.08    4.08
  -5  -8  -4    5.08    4.13
   5   8   5  232.82   14.79
  -5  -8  -5  211.33    7.09
  -5  -8  -5  217.73    6.86
   5   8   6  100.67    6.42
  -5  -8  -6   96.34    4.74
  -5  -8  -6  104.69    4.65
   5   8   7    4.31    3.57
  -5  -8  -7    2.40    4.09
  -5  -8  -7    4.93    4.55
   5   8   8   74.60    6.29
  -5  -8  -8   73.28    4.47
  -5  -8  -8   62.85    7.55
   5   8   9  127.74   12.53
  -5  -8  -9  123.22    5.85
  -5  -8  -9   98.65    6.16
   5   8  10    5.99    4.24
  -5  -8 -10    6.61    3.11
  -5  -8 -10    3.00    3.48
   5   8  11  123.42    8.78
  -5  -8 -11  108.57   10.23
  -5  -8 -11  135.26   11.58
  -5  -8 -12   53.51    4.95
  -5  -8 -12   42.53    5.61
  -5  -8 -13    7.47    3.78
  -5  -8 -13    5.98    4.28
  -5  -8 -13    3.99    4.88
  -5  -8 -14   65.41    5.88
  -5  -8 -14   47.21   10.65
  -5  -8 -14   46.61    7.39
  -5  -8 -15   15.34    7.90
  -5  -8 -15   17.77    5.38
  -5  -8 -15   18.50    6.20
  -5  -8 -16   43.40   11.08
   5   9 -25   30.14   10.48
  -5  -9  25   38.81   10.78
   5   9 -24   42.03   10.62
  -5  -9  24   44.01   18.55
   5   9 -23   16.11    8.22
  -5  -9  23   11.02    8.78
   5   9 -22   34.24    8.60
  -5  -9  22   17.85    9.18
   5   9 -21   72.64   10.56
  -5  -9  21   81.07   18.61
   5   9 -20   10.91   10.25
  -5  -9  20    0.39    6.89
   5   9 -19  154.58   12.98
  -5  -9  19  175.73   14.43
   5   9 -18   -1.08    5.27
  -5  -9  18    6.51    9.89
   5   9 -17  239.66   14.51
  -5  -9  17  279.98   16.51
   5   9 -16   -1.72    4.59
  -5  -9  16    2.04    5.23
   5   9 -15   80.34   12.62
  -5  -9  15   92.33    8.91
   5   9 -14  257.56   12.77
  -5  -9  14  293.26   14.72
   5   9 -13   10.59    4.42
  -5  -9  13    9.56    8.73
   5   9 -12  238.02   10.82
  -5  -9  12  237.68   12.13
   5   9 -11  144.11    8.02
  -5  -9  11  173.63   14.64
   5   9 -10   14.67    3.78
  -5  -9  10   19.13    4.40
   5   9  -9  296.06   10.76
  -5  -9   9  340.67   18.76
   5   9  -8  107.40    8.76
  -5  -9   8  104.52    6.42
   5   9  -7   21.08    5.58
  -5  -9   7   23.91    3.67
   5   9  -6  333.43   14.62
  -5  -9   6  332.59   10.79
   5   9  -5   14.21    4.42
  -5  -9   5   11.21    2.98
   5   9  -4  103.42    4.60
  -5  -9   4  106.73    4.96
   5   9  -3   39.41    5.28
   5   9  -3   40.96    3.16
  -5  -9   3   37.47    5.47
   5   9  -2  190.14    9.33
   5   9  -2  203.48    9.68
  -5  -9   2  207.39    6.64
   5   9  -1   92.21    6.72
  -5  -9   1   99.36    4.23
   5   9   0   64.02    9.28
  -5  -9   0   65.57    3.48
   5   9   1  154.79    8.30
  -5  -9  -1  159.29    5.18
   5   9   2   73.36    5.98
  -5  -9  -2   77.53    3.56
  -5  -9  -2   77.21    3.34
   5   9   3   28.44    4.43
  -5  -9  -3   18.04    4.16
  -5  -9  -3   15.05    3.86
   5   9   4  452.25   16.18
  -5  -9  -4  413.49   15.45
  -5  -9  -4  421.13   15.08
   5   9   5   -5.20    5.94
  -5  -9  -5    0.15    3.59
  -5  -9  -5    0.49    2.05
   5   9   6   18.56    4.36
  -5  -9  -6   16.26    2.63
  -5  -9  -6   13.66    4.78
   5   9   7  142.09    8.22
  -5  -9  -7  123.71    8.19
  -5  -9  -7  122.78    8.62
   5   9   8   -2.07    4.16
  -5  -9  -8   -3.44    2.50
  -5  -9  -8   -2.13    2.76
   5   9   9   33.51    8.67
  -5  -9  -9   22.27    3.34
  -5  -9  -9   26.55    3.78
   5   9  10   67.83    6.77
  -5  -9 -10   54.37    5.22
  -5  -9 -10   63.87    4.36
   5   9  11   10.65    5.02
  -5  -9 -11    6.78    6.11
  -5  -9 -11    1.57    5.26
   5   9  12   32.15    6.34
  -5  -9 -12   17.64    4.01
  -5  -9 -12   25.71    4.64
  -5  -9 -13   51.53    5.12
  -5  -9 -13   43.89    9.26
  -5  -9 -14    1.89    6.22
  -5  -9 -14    5.75    4.33
  -5  -9 -15   34.03    5.84
   5  10 -25   -8.93    8.80
  -5 -10  25   -7.71    8.72
   5  10 -24   62.57   12.53
  -5 -10  24   93.62   12.70
   5  10 -23   14.74    7.96
  -5 -10  23   14.23    8.86
   5  10 -22   18.32    8.93
  -5 -10  22   44.16    9.55
   5  10 -21   38.88   14.46
  -5 -10  21   45.03    9.78
   5  10 -20    7.11   11.34
  -5 -10  20   18.04   12.43
   5  10 -19   81.08    9.48
  -5 -10  19   75.62   10.64
   5  10 -18   51.58    7.91
  -5 -10  18   48.88    8.74
   5  10 -17   -4.82    5.11
  -5 -10  17    8.01    9.72
   5  10 -16  237.87   19.86
  -5 -10  16  208.51   14.58
   5  10 -15   17.63    4.94
  -5 -10  15    9.59    5.95
   5  10 -14   17.00    4.68
  -5 -10  14    9.56    5.43
   5  10 -13  528.34   29.03
  -5 -10  13  543.50   23.34
   5  10 -12   78.70    6.42
  -5 -10  12   96.13   12.19
   5  10 -11  392.55   21.06
  -5 -10  11  419.27   16.87
   5  10 -10    9.19    3.36
  -5 -10  10    4.93    4.11
   5  10  -9  112.50    5.98
  -5 -10   9  118.40    6.90
   5  10  -8   25.65    3.59
  -5 -10   8   32.82    4.32
   5  10  -7  214.21    7.93
  -5 -10   7  240.91    8.85
   5  10  -6   17.08    2.90
  -5 -10   6   17.78    5.53
   5  10  -5  107.87    4.50
  -5 -10   5  101.60    5.12
   5  10  -4   14.75    4.70
   5  10  -4   25.25    4.33
  -5 -10   4   11.32    2.84
   5  10  -3  177.43    5.87
   5  10  -3  166.61    9.53
  -5 -10   3  189.99    9.10
   5  10  -2   12.67    2.37
   5  10  -2   24.10    4.45
  -5 -10   2   13.02    2.54
   5  10  -1  190.47    9.74
  -5 -10   1  184.77    5.81
   5  10   0  123.03    7.98
  -5 -10   0  122.47    4.50
   5  10   1    2.11    3.81
  -5 -10  -1    0.54    3.16
   5  10   2  376.66   22.08
  -5 -10  -2  362.82    8.71
  -5 -10  -2  360.20   12.79
   5  10   3   50.76    5.38
  -5 -10  -3   35.57    4.21
  -5 -10  -3   32.81    4.44
   5  10   4   28.15    4.91
  -5 -10  -4   27.87    4.15
  -5 -10  -4   22.99    2.50
   5  10   5   68.59    6.41
  -5 -10  -5   69.74    3.41
  -5 -10  -5   70.73    5.81
   5  10   6   32.14    5.47
  -5 -10  -6   54.59    5.13
  -5 -10  -6   28.88    2.88
   5  10   7   10.18    4.19
  -5 -10  -7    0.23    3.66
  -5 -10  -7   -0.39    4.17
   5  10   8  111.31    8.09
  -5 -10  -8   87.49    7.98
  -5 -10  -8   97.83    4.52
   5  10   9   13.56    4.74
  -5 -10  -9    2.83    2.63
  -5 -10  -9    8.70    3.13
   5  10  10    7.42    4.98
  -5 -10 -10    2.10    3.29
  -5 -10 -10    6.81    2.76
   5  10  11   23.20    9.99
  -5 -10 -11   17.61    5.32
  -5 -10 -11   13.24    6.57
   5  10  12   39.15    6.89
  -5 -10 -12   18.82    3.67
  -5 -10 -12   28.91    4.41
   5  11 -24   -6.67    7.24
  -5 -11  24    7.66    7.49
   5  11 -23   41.80   17.82
  -5 -11  23   61.42   10.95
   5  11 -22   -7.35   10.99
  -5 -11  22    2.37    7.11
   5  11 -21   48.71    8.99
  -5 -11  21   42.24    9.83
   5  11 -20   86.82   10.29
  -5 -11  20   95.93   11.71
   5  11 -19   13.50    6.38
  -5 -11  19    9.46   12.06
   5  11 -18  206.41   13.92
  -5 -11  18  219.02   15.61
   5  11 -17   16.71    5.37
  -5 -11  17    0.57    6.50
   5  11 -16    7.42    5.02
  -5 -11  16   14.47    9.96
   5  11 -15  104.61    8.23
  -5 -11  15  110.10    9.85
   5  11 -14   17.42    5.00
  -5 -11  14   31.79    6.05
   5  11 -13    0.54    3.84
  -5 -11  13   11.28    7.51
   5  11 -12  282.77   11.95
  -5 -11  12  304.02   14.13
   5  11 -11    1.87    3.26
  -5 -11  11    3.43    4.09
   5  11 -10  200.02    8.57
  -5 -11  10  260.76   10.54
   5  11  -9   18.53    5.35
  -5 -11   9   11.37    3.98
   5  11  -8   56.44    4.20
  -5 -11   8   58.00    7.85
   5  11  -7   64.95    6.49
  -5 -11   7   53.80    4.72
   5  11  -6   27.25    4.91
  -5 -11   6   18.75    5.66
   5  11  -5  126.12    8.64
   5  11  -5  109.24    4.81
  -5 -11   5  134.83    5.42
   5  11  -4    5.86    7.88
   5  11  -4   10.18    2.30
  -5 -11   4    8.92    4.26
   5  11  -3  210.03    8.96
   5  11  -3  221.20   10.89
  -5 -11   3  212.31    6.66
   5  11  -2   53.08    6.05
  -5 -11   2   48.98    3.22
   5  11  -1   19.61    8.72
  -5 -11   1   28.25    4.14
   5  11   0   38.94    5.58
  -5 -11   0   32.12    4.30
   5  11   1  331.95   14.34
  -5 -11  -1  315.77    7.94
  -5 -11  -1  301.73    7.06
   5  11   2    8.84    4.49
  -5 -11  -2    5.35    1.89
  -5 -11  -2    8.47    2.88
   5  11   3  224.28   10.89
  -5 -11  -3  191.66    5.28
  -5 -11  -3  195.49    7.68
   5  11   4    5.65    4.68
  -5 -11  -4   10.34    2.06
  -5 -11  -4   12.68    1.95
   5  11   5   16.61    4.86
  -5 -11  -5    9.53    2.25
  -5 -11  -5   15.20    3.35
   5  11   6   17.85    4.78
  -5 -11  -6    9.02    2.39
  -5 -11  -6    8.25    3.38
   5  11   7   66.21    6.79
  -5 -11  -7   58.46    3.83
  -5 -11  -7   52.63    3.12
   5  11   8   -5.30    4.77
  -5 -11  -8    1.35    4.20
  -5 -11  -8    4.33    2.04
   5  11   9   16.16    5.41
  -5 -11  -9    8.23    4.86
  -5 -11  -9    8.34    3.95
   5  11  10   47.05    7.25
   5  11  11   -0.51    8.81
   5  11  12   40.46    8.00
   5  12 -24   11.01   13.30
  -5 -12  24    4.81    8.20
   5  12 -23    0.99   11.86
  -5 -12  23   -3.86    7.49
   5  12 -22   75.29   11.51
  -5 -12  22   93.21   12.03
   5  12 -21   -1.71    6.48
  -5 -12  21   24.64   12.25
   5  12 -20   78.23   10.16
  -5 -12  20   93.33   11.41
   5  12 -19   41.26    7.93
  -5 -12  19   48.40    9.17
   5  12 -18    1.68    5.27
  -5 -12  18    5.04   10.11
   5  12 -17  118.79   14.73
  -5 -12  17  101.92   10.64
   5  12 -16   18.96    5.85
  -5 -12  16   44.28    7.05
   5  12 -15   -3.28    4.01
  -5 -12  15    4.63    4.92
   5  12 -14   95.76    7.34
  -5 -12  14  112.07   14.20
   5  12 -13   -4.42    3.83
  -5 -12  13   16.54    4.67
   5  12 -12  152.37    7.80
  -5 -12  12  153.07    9.63
   5  12 -11   -0.62    5.00
  -5 -12  11    0.89    6.29
   5  12 -10  161.87    7.37
  -5 -12  10  166.67    8.94
   5  12  -9    2.48    2.88
  -5 -12   9    8.25    3.60
   5  12  -8   24.77    3.41
  -5 -12   8   35.90    6.91
   5  12  -7   66.45    4.08
  -5 -12   7   69.01    4.94
   5  12  -6   72.45    7.29
   5  12  -6   61.86    3.64
  -5 -12   6   46.26    7.12
   5  12  -5   19.47    5.71
   5  12  -5   26.25    4.36
  -5 -12   5   18.29    3.09
   5  12  -4  280.07    7.82
   5  12  -4  291.32   14.44
  -5 -12   4  292.52   12.40
   5  12  -3    1.27    1.94
   5  12  -3   11.68    8.17
  -5 -12   3   15.03    2.32
   5  12  -2  145.34    9.46
  -5 -12   2  135.55    7.15
   5  12  -1   18.17    5.38
  -5 -12   1   16.77    2.20
   5  12   0   99.32   13.16
  -5 -12   0   87.84    5.22
  -5 -12   0   91.74    2.84
   5  12   1   15.16    4.70
  -5 -12  -1    5.03    2.88
  -5 -12  -1    7.63    2.49
   5  12   2  139.79    9.30
  -5 -12  -2  131.70    3.64
  -5 -12  -2  121.47    3.47
   5  12   3    3.50    7.56
  -5 -12  -3    1.81    1.49
  -5 -12  -3    1.21    2.42
   5  12   4   30.60    5.41
  -5 -12  -4   19.72    1.79
  -5 -12  -4   14.38    3.18
   5  12   5   15.83    5.48
  -5 -12  -5   10.89    2.95
  -5 -12  -5   26.83    2.15
   5  12   6   18.13    9.25
   5  12   7    0.72    4.72
   5  12   8   70.38    8.15
   5  12   9   19.16    6.18
   5  12  10   -1.57    5.40
   5  12  11   54.92   14.04
   5  13 -23   -2.69    7.13
  -5 -13  23   -5.39    7.76
   5  13 -22   -6.49    6.96
  -5 -13  22   -4.90    7.48
   5  13 -21  107.99   12.12
  -5 -13  21  143.80   13.40
   5  13 -20   12.61    6.70
  -5 -13  20    5.92   12.07
   5  13 -19  138.38   12.21
  -5 -13  19  185.37   14.09
   5  13 -18    0.34    8.57
  -5 -13  18    3.42    6.05
   5  13 -17   61.94    7.91
  -5 -13  17   93.48    9.40
   5  13 -16   -3.08    4.58
  -5 -13  16   -5.07    9.14
   5  13 -15   44.82    9.86
  -5 -13  15   47.32    7.26
   5  13 -14    0.48    3.81
  -5 -13  14   -1.49    4.69
   5  13 -13  110.70   11.05
  -5 -13  13  102.56    8.66
   5  13 -12   -1.45    3.33
  -5 -13  12   -3.92    7.18
   5  13 -11  200.95    8.81
  -5 -13  11  219.13   10.96
   5  13 -10   22.91    6.31
  -5 -13  10   32.12    4.93
   5  13  -9  181.78   11.16
  -5 -13   9  183.62   13.96
   5  13  -8    0.78    4.27
  -5 -13   8    5.11    5.23
   5  13  -7    3.70    5.20
   5  13  -7    6.07    2.45
  -5 -13   7    1.02    3.05
   5  13  -6   80.31    8.17
   5  13  -6   62.12    3.62
  -5 -13   6   58.18    4.38
   5  13  -5    9.63    3.57
   5  13  -5    6.25    5.32
  -5 -13   5    5.86    4.41
   5  13  -4    2.04    1.79
   5  13  -4    5.38    4.68
  -5 -13   4   -0.24    2.17
   5  13  -3  126.60    9.13
  -5 -13   3  104.60    4.15
   5  13  -2    9.42    5.19
  -5 -13   2    9.02    3.20
   5  13  -1   38.39    6.78
  -5 -13   1   44.16    2.29
  -5 -13   1   42.06    2.81
   5  13   0   20.01    5.61
  -5 -13   0   15.97    2.72
  -5 -13   0   18.61    2.23
   5  13   1   55.16   13.04
  -5 -13  -1   74.84    2.25
  -5 -13  -1   73.45    3.16
   5  13   2    7.68    4.77
  -5 -13  -2    1.67    1.55
  -5 -13  -2    0.23    1.60
   5  13   3   33.32    6.40
   5  13   4   33.35    6.54
   5  13   5    5.83    5.28
   5  13   6    6.02    9.14
   5  13   7   63.81    8.34
   5  13   8   -1.52    5.49
   5  13   9   60.96    8.66
   5  14 -22    6.74    7.40
  -5 -14  22   24.58   13.48
   5  14 -21    6.55    6.41
  -5 -14  21    1.01    7.08
   5  14 -20   50.53   14.66
  -5 -14  20   65.22   10.02
   5  14 -19   15.36    5.90
  -5 -14  19   -1.86    6.58
   5  14 -18  124.34   10.32
  -5 -14  18  129.53   18.89
   5  14 -17   16.47    5.76
  -5 -14  17   24.93    7.09
   5  14 -16   99.57   13.74
  -5 -14  16  120.00   10.37
   5  14 -15    0.04    4.15
  -5 -14  15   -3.99    5.09
   5  14 -14   18.55    7.51
  -5 -14  14   20.41    5.90
   5  14 -13   62.65    5.59
  -5 -14  13   62.85   11.57
   5  14 -12    3.81    3.34
  -5 -14  12   -2.11    4.24
   5  14 -11   30.92    6.45
  -5 -14  11   20.69    5.10
   5  14 -10   63.50    4.92
  -5 -14  10   89.84    6.23
   5  14  -9    2.62    2.78
  -5 -14   9    6.57    5.88
   5  14  -8   72.95    8.95
   5  14  -8   78.08    6.83
  -5 -14   8   74.92    8.69
   5  14  -7   59.63    8.05
   5  14  -7   48.18    5.47
  -5 -14   7   42.15    4.29
   5  14  -6   18.37    2.41
   5  14  -6   16.72    6.29
  -5 -14   6   15.73    3.14
   5  14  -5   57.85    3.06
   5  14  -5   81.93    7.93
  -5 -14   5   67.48    3.98
   5  14  -4    2.69    5.21
  -5 -14   4    2.28    2.22
   5  14  -3   71.72   12.48
  -5 -14   3   52.45    2.90
   5  14  -2    8.45    5.41
  -5 -14   2    7.36    1.48
  -5 -14   2    6.00    0.98
   5  14  -1   34.79   11.02
  -5 -14   1   31.21    1.57
   5  14   0   39.38    7.11
   5  14   1   -2.27    5.16
   5  14   2  147.67   11.02
   5  14   3    7.58    5.67
   5  14   4   16.83   10.56
   5  14   5   29.91    7.19
   5  14   6   18.83    6.70
   5  14   7   -2.99    5.81
   5  14   8   87.03   10.44
   5  15 -21    0.82   10.59
  -5 -15  21    7.17    6.88
   5  15 -20   14.97    6.70
  -5 -15  20   18.27   12.57
   5  15 -19    1.52    5.18
  -5 -15  19   -2.20    5.95
   5  15 -18    0.14    5.03
  -5 -15  18    5.46    5.84
   5  15 -17   19.74    9.83
  -5 -15  17   29.67    7.00
   5  15 -16   11.23    4.88
  -5 -15  16    8.76    5.77
   5  15 -15   78.13   10.27
  -5 -15  15   23.69   12.16
   5  15 -14   -2.87    3.77
  -5 -15  14    2.37    7.94
   5  15 -13   -0.81    5.62
  -5 -15  13    0.28    4.32
   5  15 -12  113.65    6.86
  -5 -15  12  126.10    8.54
   5  15 -11    1.41    3.07
  -5 -15  11    3.40    4.02
   5  15 -10   24.31    3.63
  -5 -15  10   27.87    4.74
   5  15  -9   18.03    7.23
   5  15  -9   20.37    3.17
  -5 -15   9   31.93    4.53
   5  15  -8    3.33    6.32
   5  15  -8    4.55    2.42
  -5 -15   8    9.54    3.48
   5  15  -7   15.14    2.45
   5  15  -7   29.06    6.65
  -5 -15   7   15.17    3.35
   5  15  -6    2.51    2.84
   5  15  -6   -8.80    5.20
  -5 -15   6    0.81    2.26
   5  15  -5   20.47    6.13
  -5 -15   5    9.57    2.12
   5  15  -4   29.02    6.94
   5  15  -3   16.20    6.34
   5  15  -2   40.76    7.48
   5  15  -1    9.71    6.03
   5  15   0    8.10    9.94
   5  15   1   77.99    9.31
   5  15   2    7.44    6.10
   5  15   3  115.91   11.13
   5  15   4   -9.39    6.44
   5  15   5   19.19    7.09
   5  15   6   12.67    7.00
   5  16 -19   19.94    9.99
  -5 -16  19    8.71    6.69
   5  16 -18   -1.60    5.33
  -5 -16  18   -9.35    5.80
   5  16 -17   23.15    5.86
   5  16 -16   15.13    8.26
  -5 -16  16   12.15    9.98
   5  16 -15    2.22    4.13
  -5 -16  15    6.38    5.11
   5  16 -14   52.24    9.98
  -5 -16  14   80.25    7.58
   5  16 -13    3.22    3.58
  -5 -16  13    4.54    4.49
   5  16 -12    9.43    3.48
  -5 -16  12    1.69    4.52
   5  16 -11   24.83    3.67
  -5 -16  11   27.68    5.05
   5  16 -10   10.93    6.40
   5  16 -10    2.55    2.65
  -5 -16  10    0.58    3.51
   5  16  -9   26.06    7.15
   5  16  -9   12.39    2.69
  -5 -16   9   11.02    3.43
   5  16  -8   30.74    7.30
  -5 -16   8   12.56    2.95
   5  16  -7   -7.18    6.41
   5  16  -6   19.90    7.13
   5  16  -5    4.57    6.16
   5  16  -4   99.50   10.89
   5  16  -3   -1.43    5.91
   5  16  -2   -1.34    5.96
   5  16  -1   34.05    8.05
   5  16   0    1.43    5.94
   5  16   1    8.34    6.57
   5  16   2   63.14    9.50
   5  16   3   -0.05    9.90
   5  16   4    3.55    6.58
   5  17 -17  -12.07    7.50
  -5 -17  17    3.79    5.32
   5  17 -16   -3.35    4.35
  -5 -17  16   -1.97    5.01
   5  17 -15   36.96    8.69
  -5 -17  15   29.02    6.53
   5  17 -14    9.14    4.14
  -5 -17  14   11.72    5.22
   5  17 -13   69.66    5.49
  -5 -17  13   91.33    7.32
  -5 -17  12    4.46    3.90
   5  17 -11   95.63   12.43
   5  17 -10    7.83    7.61
   5  17  -9   36.07    8.98
   5  17  -8    0.84    6.38
   5  17  -7    1.81    6.38
   5  17  -6    8.12    7.05
   5  17  -5   12.83    7.35
   5  17  -4   21.15    7.69
   5  17  -3   57.80    9.70
   5  17  -2   -4.85    6.70
   5  17  -1   13.29    7.31
   5  17   0   48.66    9.21
   5  17   1   -0.21    6.22
   5  18 -13    1.25    7.56
   5  18 -12   56.72   11.56
   5  18 -11   31.67   16.50
   5  18 -10   54.18   10.85
   5  18  -9    7.00    7.62
   5  18  -8   30.00    9.13
   5  18  -7   12.04    8.10
   5  18  -6   13.61   13.49
   5  18  -5   10.33    7.67
   5  18  -4    5.31   12.16
   5  18  -3  -13.66    7.83
  -6  20  -1   10.50    9.60
  -6  20  -2   28.45    6.36
  -6  20  -3   15.79    5.63
  -6  20  -4   24.78    9.36
  -6  20  -5   25.73    5.57
  -6  20  -5   20.90    4.40
  -6  20  -5   24.51    7.62
  -6  20  -6   -1.03    4.28
  -6  20  -6   -1.70    6.14
  -6  20  -6    1.66    6.12
  -6  20  -7   37.01    8.44
  -6  20  -7   20.47    4.92
  -6  20  -7   14.25    4.88
  -6  19   4   20.91    7.60
  -6  19   3    6.07    6.20
  -6  19   2   35.69   12.16
  -6  19   1    2.05    5.17
  -6  19   0   57.29    7.82
  -6  19  -1   -0.95    2.88
  -6  19  -1    1.48    7.77
  -6  19  -1    3.15    3.07
  -6  19  -2    9.10    5.00
  -6  19  -2    4.83    5.47
  -6  19  -2    8.50    3.53
  -6  19  -3   19.64    5.37
  -6  19  -3   20.34    3.92
  -6  19  -3   15.72    4.14
  -6  19  -4   15.05    4.54
  -6  19  -4    6.48    3.65
  -6  19  -4    3.02    6.35
  -6  19  -5    0.93    3.98
  -6  19  -5   -1.19    5.83
  -6  19  -5   -2.78    5.93
  -6  19  -6   38.10    8.72
  -6  19  -6   24.32    5.18
  -6  19  -6   34.71    5.01
  -6  19  -7   -4.00    3.90
  -6  19  -7    5.07    4.10
  -6  19  -7    5.50    3.95
  -6  19  -8   19.33    8.27
  -6  19  -8   23.52    4.71
  -6  19  -8   15.45    8.50
  -6  19  -9    2.39    4.66
  -6  19  -9   10.69    4.80
  -6  19 -10   -4.16    8.50
  -6  19 -10   -8.40    5.15
  -6  19 -11    5.98    5.42
  -6  19 -11    7.88    5.31
   6 -18  -7   32.15    7.31
  -6  18   5   42.02    8.60
  -6  18   4    3.48    5.95
  -6  18   3    8.16    5.95
  -6  18   2    4.79    5.13
  -6  18   2    4.93    8.60
  -6  18   2    3.62    2.57
  -6  18   1   69.77    8.13
  -6  18   1   79.96    7.94
  -6  18   1   63.58    7.48
  -6  18   0    9.00    5.26
  -6  18   0   12.96    3.18
  -6  18   0    7.48    5.93
  -6  18  -1   89.28    7.83
  -6  18  -1   83.84    5.33
  -6  18  -1  109.50    9.44
  -6  18  -2   10.73    3.32
  -6  18  -2    9.06    4.56
  -6  18  -2    8.97    6.07
  -6  18  -3   -2.86    6.79
  -6  18  -3    2.55    3.13
  -6  18  -3    3.83    5.58
  -6  18  -4   85.78    6.70
  -6  18  -4   90.22    6.28
  -6  18  -4   65.46    9.12
  -6  18  -5   -5.30    3.47
  -6  18  -5   -2.95    3.74
  -6  18  -5    2.61    3.71
  -6  18  -6   22.73    7.44
  -6  18  -6   24.83    4.98
  -6  18  -6   27.22    4.55
  -6  18  -7    6.56    7.09
  -6  18  -7    9.77    3.80
  -6  18  -7    1.77    7.16
  -6  18  -8   -0.60    4.18
  -6  18  -8    6.62    5.63
  -6  18  -8    0.40    4.07
  -6  18  -9   11.53    8.40
  -6  18  -9   13.91    5.00
  -6  18 -10   15.56    5.45
  -6  18 -10    3.15    9.06
  -6  18 -11   -1.81    8.50
  -6  18 -11    5.75    5.20
  -6  18 -12   39.42    6.90
  -6  18 -12   22.90    6.97
  -6  18 -13   -7.63   10.77
   6 -17  -9   -2.62    5.67
   6 -17  -8   38.83   12.33
   6 -17  -7   -3.83    5.49
   6 -17  -6  106.76    9.52
  -6  17   5   -0.52    3.05
  -6  17   5    8.84    5.70
  -6  17   4    8.11    5.52
  -6  17   4   11.20    5.81
  -6  17   3   59.19    7.36
  -6  17   3   48.76    7.67
  -6  17   3   55.80    4.06
  -6  17   2    5.85    5.09
  -6  17   2   -3.04    7.80
  -6  17   2   -3.22    2.57
  -6  17   1   68.32    7.74
  -6  17   1   42.46    6.72
  -6  17   1   59.63    6.82
  -6  17   0   55.86    6.19
  -6  17   0   39.33    3.97
  -6  17   0   53.94    7.63
  -6  17  -1    2.45    4.89
  -6  17  -1    4.11    4.04
  -6  17  -1    4.57    3.30
  -6  17  -2   62.42    5.93
  -6  17  -2   47.38    5.13
  -6  17  -2   61.13    4.64
  -6  17  -3   44.60    6.95
  -6  17  -3   17.13    8.20
  -6  17  -3   39.76    4.76
  -6  17  -4   -1.94    3.39
  -6  17  -4   -3.09    3.41
  -6  17  -4    3.42    3.07
  -6  17  -5  112.06    6.84
  -6  17  -5  142.78   11.56
  -6  17  -5  113.62    6.85
  -6  17  -6    0.70    6.08
  -6  17  -6   -4.51    3.23
  -6  17  -6    0.10    3.84
  -6  17  -7   84.04    6.86
  -6  17  -7   96.39    7.16
  -6  17  -7   92.80    5.85
  -6  17  -8    5.46    4.21
  -6  17  -8   -1.21    7.09
  -6  17  -8    4.13    5.33
  -6  17  -9   33.91    6.32
  -6  17  -9   37.74    6.14
  -6  17  -9   38.69    4.32
  -6  17 -10    4.62    8.47
  -6  17 -10    5.48    4.91
  -6  17 -10    9.15    5.40
  -6  17 -11    8.18    3.57
  -6  17 -11   29.36    5.77
  -6  17 -11   20.38    9.40
  -6  17 -12   44.21    4.31
  -6  17 -12   31.13    7.46
  -6  17 -12   34.78    7.30
  -6  17 -13   53.83    7.93
  -6  17 -13   26.54    7.49
  -6  17 -14   23.01    7.55
  -6  17 -14    9.41   11.38
  -6  17 -15   51.61    9.84
  -6  17 -15   49.80    9.28
   6 -16 -11    1.02    5.59
   6 -16 -10   13.40    3.73
   6 -16 -10   38.76   10.93
   6 -16  -9   -5.64    5.08
  -6  16   9    4.92    3.17
   6 -16  -8   60.72    7.97
  -6  16   8   67.01    5.15
   6 -16  -7   20.28    5.84
  -6  16   7   16.04    3.73
   6 -16  -6   13.77    8.68
  -6  16   6    6.79    3.45
   6 -16  -5   53.72    7.14
  -6  16   5   58.28    4.87
  -6  16   4   30.90    4.18
  -6  16   4   41.79    6.79
  -6  16   3    2.78    3.03
  -6  16   3   -1.35    4.69
  -6  16   2  181.39    8.22
  -6  16   2  188.47   16.75
  -6  16   1   -3.14    4.03
  -6  16   1   -1.82    2.67
  -6  16   1    0.73    3.08
  -6  16   0  109.18    7.42
  -6  16   0  115.48    6.13
  -6  16   0   84.10    5.30
  -6  16  -1   39.97    4.00
  -6  16  -1   34.92    5.13
  -6  16  -1   51.27    4.53
  -6  16  -2   10.84    4.07
  -6  16  -2   21.51    3.82
  -6  16  -2   14.61    3.33
  -6  16  -3   34.10    7.33
  -6  16  -3   38.18    4.25
  -6  16  -3   35.65    7.63
  -6  16  -4   23.05    3.90
  -6  16  -4   19.98    3.91
  -6  16  -4   22.47    6.98
  -6  16  -5   55.40    4.64
  -6  16  -5   55.44    5.36
  -6  16  -5   32.57    8.36
  -6  16  -6   36.33    5.19
  -6  16  -6   39.10    4.05
  -6  16  -6   35.72    4.98
  -6  16  -7    1.76    6.50
  -6  16  -7    1.18    2.92
  -6  16  -7    5.83    6.28
  -6  16  -8   74.15    7.14
  -6  16  -8   79.11    6.96
  -6  16  -8   67.80    4.78
  -6  16  -9   -4.13    4.36
  -6  16  -9   10.48    7.51
  -6  16  -9    3.28    2.81
  -6  16 -10   38.92    6.53
  -6  16 -10   51.10    6.77
  -6  16 -10   38.92    6.65
  -6  16 -11   62.48    4.33
  -6  16 -11   46.99    8.09
  -6  16 -11   65.42    7.65
  -6  16 -12   21.05    6.21
  -6  16 -12    4.58    4.98
  -6  16 -12    7.28    9.44
  -6  16 -13   77.55    8.86
  -6  16 -13   43.39    4.15
  -6  16 -13   48.06    8.13
  -6  16 -14  -15.06    6.69
  -6  16 -14   -0.87    6.20
  -6  16 -15   37.15    8.77
  -6  16 -15   17.13   13.06
  -6  16 -16   28.85    8.81
  -6  16 -16   20.51    8.35
   6 -15 -13   23.73    4.79
   6 -15 -13   26.18    7.61
   6 -15 -12    7.81    6.40
   6 -15 -12    3.67   10.44
  -6  15  12    7.43    6.48
   6 -15 -11   27.00    4.74
   6 -15 -11   31.70    7.24
  -6  15  11   41.89    7.65
   6 -15 -10   -3.31    3.28
   6 -15 -10   -0.87    5.01
  -6  15  10    3.00    3.33
   6 -15  -9  130.24    7.67
   6 -15  -9  146.60   11.29
  -6  15   9  165.10    7.86
   6 -15  -8    7.50    3.45
   6 -15  -8   -0.74    5.06
  -6  15   8    4.95    3.42
   6 -15  -7  109.00    8.84
  -6  15   7  114.76    6.43
   6 -15  -6   22.93    5.80
  -6  15   6   32.14    4.21
   6 -15  -5    5.58    8.92
  -6  15   5   29.24    4.06
   6 -15  -4   56.32    6.47
  -6  15   4   58.18    4.97
  -6  15   4   68.93    7.42
  -6  15   3   23.30    3.72
  -6  15   3   12.53    5.43
  -6  15   2    5.83    7.44
  -6  15   2    8.03    3.33
  -6  15   1   75.81    6.22
  -6  15   1   66.50    5.08
  -6  15   0   96.84    6.70
  -6  15   0  109.83    9.51
  -6  15  -1   10.84    6.01
  -6  15  -1    4.27    5.70
  -6  15  -1    8.29    3.05
  -6  15  -2   42.65    7.00
  -6  15  -2   46.20    4.63
  -6  15  -2   48.85    4.75
  -6  15  -3   26.19    6.32
  -6  15  -3   21.48    4.18
  -6  15  -3   22.34    3.74
  -6  15  -4  104.77    5.58
  -6  15  -4   91.70    6.66
  -6  15  -4  108.09    9.96
  -6  15  -5    1.11    4.49
  -6  15  -5    1.60    5.86
  -6  15  -5   -1.02    3.18
  -6  15  -6  232.51   11.10
  -6  15  -6  225.96    8.33
  -6  15  -6  222.73   16.12
  -6  15  -7   -5.14    4.16
  -6  15  -7   -3.30    2.69
  -6  15  -7   -1.74    3.97
  -6  15  -8   29.28    5.99
  -6  15  -8   37.36    3.53
  -6  15  -8   27.19    8.98
  -6  15  -9   57.35    7.20
  -6  15  -9   64.43    6.58
  -6  15  -9   54.50    3.94
  -6  15 -10   17.91    5.34
  -6  15 -10   16.40    2.87
  -6  15 -10    7.82    5.93
  -6  15 -11   52.66    3.86
  -6  15 -11   61.30    8.23
  -6  15 -11   56.31    7.50
  -6  15 -12   13.54    7.39
  -6  15 -12   32.71    3.26
  -6  15 -12   36.83    6.67
  -6  15 -13   36.95    6.78
  -6  15 -13    1.35    4.51
  -6  15 -13    9.98   10.16
  -6  15 -14   25.79    8.34
  -6  15 -14   34.62    7.53
  -6  15 -15   -7.15    6.88
  -6  15 -15   15.13    6.42
  -6  15 -16   10.68    8.11
  -6  15 -16   23.39   12.92
  -6  15 -17    8.07    7.91
  -6  15 -17    6.15    7.45
   6 -14 -14   58.70    6.90
   6 -14 -14   87.77    9.45
  -6  14  14   62.58    6.87
   6 -14 -13    3.45    3.92
   6 -14 -13   -6.84    5.49
  -6  14  13    2.27    6.73
   6 -14 -12   45.42    8.79
   6 -14 -12   48.60    7.71
  -6  14  12   34.73    5.51
   6 -14 -11   28.27    4.85
   6 -14 -11   24.41    6.76
  -6  14  11   32.88    4.93
   6 -14 -10   38.73    8.09
   6 -14 -10   38.29    6.83
  -6  14  10   41.81    5.04
   6 -14  -9    4.65    3.52
   6 -14  -9    4.04    8.15
  -6  14   9    1.49    3.52
   6 -14  -8   83.82    9.92
   6 -14  -8  112.17    8.28
  -6  14   8   92.37    9.92
   6 -14  -7    9.40    3.91
   6 -14  -7   22.79    5.15
  -6  14   7   20.51    6.46
   6 -14  -6   18.48    4.23
   6 -14  -6   37.98    8.91
  -6  14   6   52.03    7.08
   6 -14  -5  166.86    9.09
  -6  14   5  159.21   12.07
   6 -14  -4   -0.28    3.69
  -6  14   4    1.89    5.21
  -6  14   4    2.21    4.47
   6 -14  -3  112.47    7.26
  -6  14   3  113.01    6.36
  -6  14   3  113.84    8.29
  -6  14   2    5.13    3.77
  -6  14   2   -2.46    3.06
  -6  14   1  159.08    8.18
  -6  14   1  168.13    7.51
  -6  14   0    6.86    3.38
  -6  14   0    2.97    3.25
  -6  14  -1  155.93   11.10
  -6  14  -1  147.36    7.36
  -6  14  -2    4.66    3.02
  -6  14  -2    3.25    3.43
  -6  14  -2    4.52    3.07
  -6  14  -3   41.51    7.47
  -6  14  -3   52.66    6.82
  -6  14  -3   50.71    8.13
  -6  14  -4   53.64    3.92
  -6  14  -4   47.12    5.23
  -6  14  -4   43.04    4.76
  -6  14  -5  134.12    5.75
  -6  14  -5  137.93    8.16
  -6  14  -5  140.05   12.03
  -6  14  -6    1.04    4.08
  -6  14  -6    3.85    2.52
  -6  14  -6    2.05    3.64
  -6  14  -7  260.14   12.39
  -6  14  -7  218.02   11.12
  -6  14  -7  246.61   17.65
  -6  14  -8  -11.79    4.52
  -6  14  -8   -0.20    4.16
  -6  14  -8   -0.79    2.27
  -6  14  -9   67.30    7.47
  -6  14  -9   54.30   10.80
  -6  14  -9   59.65    5.80
  -6  14 -10   74.23    3.80
  -6  14 -10   72.17    8.70
  -6  14 -10   73.63    7.55
  -6  14 -11   -0.47    4.60
  -6  14 -11    1.06    5.21
  -6  14 -11    0.62    3.54
  -6  14 -12   80.49    9.26
  -6  14 -12   71.56    3.64
  -6  14 -12   57.42    8.35
  -6  14 -13   10.86    5.90
  -6  14 -13   -1.07    2.11
  -6  14 -13    4.55    5.30
  -6  14 -14   66.32    9.78
  -6  14 -14   59.59    3.49
  -6  14 -14   53.44   14.72
  -6  14 -15    2.01    7.14
  -6  14 -15   13.36    6.60
  -6  14 -16   30.12    9.08
  -6  14 -16   30.34    8.23
  -6  14 -17   13.01    8.51
  -6  14 -17   17.16    8.13
  -6  14 -18   20.88    8.76
   6 -13 -16   38.45    8.06
   6 -13 -16   19.26   10.47
  -6  13  16   28.83    6.34
   6 -13 -15   14.16    6.95
   6 -13 -15   20.02    5.32
  -6  13  15   10.58    5.22
   6 -13 -14   23.09    6.67
   6 -13 -14   13.71    5.06
  -6  13  14   13.93    8.40
   6 -13 -13   30.75    6.96
   6 -13 -13   32.66    8.74
  -6  13  13   31.13    5.46
   6 -13 -12   37.60    5.44
   6 -13 -12   26.62    6.97
  -6  13  12   43.23    5.41
   6 -13 -11   11.82    4.25
   6 -13 -11    7.12    8.99
  -6  13  11    6.92    4.08
   6 -13 -10   86.43    9.30
   6 -13 -10   63.50    7.32
  -6  13  10   34.94    9.41
   6 -13  -9    1.38    3.99
   6 -13  -9   13.23    5.03
  -6  13   9   20.04    3.96
   6 -13  -8   31.17    8.12
   6 -13  -8   63.90    6.08
  -6  13   8   36.83    4.82
   6 -13  -7   26.27    4.28
   6 -13  -7   35.10    8.81
  -6  13   7   23.04    4.31
   6 -13  -6  124.95    7.23
   6 -13  -6  150.93    8.41
  -6  13   6  140.52    7.50
   6 -13  -5    2.03    3.42
   6 -13  -5    8.83    3.83
  -6  13   5    4.23    3.43
   6 -13  -4  132.28    7.41
  -6  13   4  136.12    6.91
   6 -13  -3  103.75    9.97
  -6  13   3   88.15    7.18
  -6  13   3   93.99    5.90
   6 -13  -2   18.39    3.81
  -6  13   2   18.50    4.27
  -6  13   2   12.72    3.67
  -6  13   1   16.81    6.43
  -6  13   1   14.80    3.68
  -6  13   0  124.81    6.23
  -6  13   0  111.89   10.33
  -6  13  -1   -9.02    3.02
  -6  13  -1   -0.15    5.75
  -6  13  -2  111.87    5.50
  -6  13  -2  128.60    6.95
  -6  13  -3   76.32    5.18
  -6  13  -3   62.31    4.16
  -6  13  -3   66.62    5.67
  -6  13  -4    6.05    2.47
  -6  13  -4   -1.60    5.79
  -6  13  -4    7.50    3.76
  -6  13  -5  220.27    7.07
  -6  13  -5  222.41    9.82
  -6  13  -5  227.47   10.67
  -6  13  -6    8.51    4.73
  -6  13  -6   14.90    2.52
  -6  13  -6   11.87    4.40
  -6  13  -7  125.22   13.90
  -6  13  -7  112.55    4.41
  -6  13  -7  117.93    7.97
  -6  13  -8  139.50    9.24
  -6  13  -8  105.98    4.16
  -6  13  -8  112.04    8.23
  -6  13  -9   34.89    4.46
  -6  13  -9   55.83   11.38
  -6  13  -9   54.27    6.29
  -6  13 -10   13.53    2.18
  -6  13 -10   11.51    5.97
  -6  13 -10   13.81    8.94
  -6  13 -11   45.78    8.22
  -6  13 -11   82.61    7.45
  -6  13 -11   56.42    3.07
  -6  13 -12   17.63    6.34
  -6  13 -12    8.77    3.52
  -6  13 -12    8.89    9.47
  -6  13 -13  149.22   11.16
  -6  13 -13   90.99    3.87
  -6  13 -13  110.69   10.16
  -6  13 -14    3.58    6.44
  -6  13 -14   -0.85    5.75
  -6  13 -14    3.17    1.93
  -6  13 -15  140.10   14.66
  -6  13 -15  179.60   13.52
  -6  13 -16   10.85    7.02
  -6  13 -17   32.12   14.80
  -6  13 -18   46.41   10.48
  -6  13 -19   -3.78    7.82
   6 -12 -17   39.77    8.73
   6 -12 -17   38.66   11.68
  -6  12  17   41.17    7.08
   6 -12 -16  -13.80    6.52
   6 -12 -16   -6.84    5.26
  -6  12  16    3.69    8.51
   6 -12 -15   73.97    8.91
   6 -12 -15   48.11    7.24
  -6  12  15   62.61    7.15
   6 -12 -14   11.45    6.07
   6 -12 -14    2.53    4.87
  -6  12  14   16.31    4.85
   6 -12 -13   66.34   12.91
   6 -12 -13   48.56   10.20
  -6  12  13   56.90    6.39
   6 -12 -12   24.16    5.71
   6 -12 -12    9.20    4.62
  -6  12  12   21.12    7.67
   6 -12 -11   46.67    6.91
   6 -12 -11   39.51    9.13
  -6  12  11   58.09    5.61
   6 -12 -10   26.90    4.60
   6 -12 -10   28.72    5.58
  -6  12  10   15.98    4.49
   6 -12  -9   -2.50    3.92
   6 -12  -9   19.73    4.67
  -6  12   9   11.87    3.90
   6 -12  -8  124.13    7.49
   6 -12  -8  138.13   13.78
  -6  12   8  138.79    7.40
   6 -12  -7   23.59    7.17
   6 -12  -7   31.35    5.00
  -6  12   7   26.12    7.27
   6 -12  -6   45.25    5.00
   6 -12  -6   51.56    5.44
  -6  12   6   43.36    8.01
   6 -12  -5   72.92    8.90
   6 -12  -5   66.75    5.70
  -6  12   5   64.94    9.07
   6 -12  -4  196.26    9.25
   6 -12  -4  232.62    9.29
  -6  12   4  214.72    9.28
   6 -12  -3    4.33    3.15
  -6  12   3    5.18    3.45
   6 -12  -2  516.59   22.77
  -6  12   2  504.70   17.96
  -6  12   2  522.29   17.53
   6 -12  -1   81.40    4.65
  -6  12   1   77.28    5.26
  -6  12   1   59.31    5.51
  -6  12   0  149.19   10.34
  -6  12   0  141.78    7.28
  -6  12  -1   74.03    4.30
  -6  12  -1   57.54    5.39
  -6  12  -2   69.09    6.21
  -6  12  -2   53.23    5.33
  -6  12  -3   33.16    3.06
  -6  12  -3   33.59    4.92
  -6  12  -4  203.56    9.73
  -6  12  -4  205.83    9.52
  -6  12  -4  203.43    9.33
  -6  12  -5   -8.44    3.55
  -6  12  -5    1.50    2.01
  -6  12  -5   10.89    3.95
  -6  12  -6  351.38   14.77
  -6  12  -6  312.86   11.09
  -6  12  -6  301.70   12.79
  -6  12  -7   19.56    5.31
  -6  12  -7   18.00    2.11
  -6  12  -7   14.08    4.71
  -6  12  -8  222.14   11.08
  -6  12  -8  236.03   12.47
  -6  12  -8  203.00    5.42
  -6  12  -9    0.99    2.72
  -6  12  -9    6.65    4.99
  -6  12  -9    1.85    4.43
  -6  12 -10   68.34    4.37
  -6  12 -10   69.52    8.17
  -6  12 -10   65.75    7.29
  -6  12 -11  134.41   17.62
  -6  12 -11  120.35    3.61
  -6  12 -11  123.93    9.79
  -6  12 -12    0.43    5.96
  -6  12 -12    5.84    5.27
  -6  12 -12    3.63    1.64
  -6  12 -13   81.83    8.99
  -6  12 -13   48.63    4.12
  -6  12 -13   51.56    8.13
  -6  12 -14  123.31   11.91
  -6  12 -14   86.39   10.81
  -6  12 -14  114.93    5.66
  -6  12 -15    4.02   10.29
  -6  12 -16  168.30   14.61
  -6  12 -17   19.63    8.05
  -6  12 -18   23.47    9.04
  -6  12 -19   37.01   10.39
  -6  12 -20   21.74   16.35
   6 -11 -18   15.07   12.47
   6 -11 -18   16.40   10.73
  -6  11  18   17.65    6.28
   6 -11 -17   14.55   11.81
   6 -11 -17   14.36    6.16
  -6  11  17   20.94    9.94
   6 -11 -16   40.22   12.05
   6 -11 -16   17.89    6.25
  -6  11  16   28.07    6.08
   6 -11 -15   25.89    6.71
   6 -11 -15   15.71    5.68
  -6  11  15   23.76    5.59
   6 -11 -14   67.99    7.68
   6 -11 -14   33.67   10.87
  -6  11  14   41.42   10.74
   6 -11 -13   67.03    7.56
   6 -11 -13   37.61    6.26
  -6  11  13   73.17    6.49
   6 -11 -12   23.82    5.68
   6 -11 -12   13.11    4.90
  -6  11  12   17.96    4.78
   6 -11 -11   38.43    6.57
   6 -11 -11   52.94    5.59
  -6  11  11   56.23    9.08
   6 -11 -10   -1.57    4.23
   6 -11 -10   -0.65    3.57
  -6  11  10   -1.46    5.99
   6 -11  -9  287.85   12.61
   6 -11  -9  326.57   21.31
  -6  11   9  328.18   12.85
   6 -11  -8   71.07    5.68
   6 -11  -8   56.17    6.11
  -6  11   8   60.86    5.59
   6 -11  -7  470.32   17.05
   6 -11  -7  469.12   17.92
  -6  11   7  481.62   17.32
   6 -11  -6    5.29    3.43
   6 -11  -6    9.16    5.78
  -6  11   6   -3.53    3.32
   6 -11  -5  186.93    9.02
   6 -11  -5  194.48    8.80
  -6  11   5  207.79    8.81
   6 -11  -4   28.04    7.36
   6 -11  -4   27.26    6.66
  -6  11   4   29.60    4.42
   6 -11  -3  359.03   13.44
   6 -11  -3  395.07   12.21
  -6  11   3  359.26   13.35
   6 -11  -2   40.11    3.74
  -6  11   2   37.00    7.67
   6 -11  -1  588.88   16.84
  -6  11   1  566.58   18.20
  -6  11   1  568.60   27.05
  -6  11   0  100.91    5.12
  -6  11   0   88.73    6.22
  -6  11  -1  224.89   11.07
  -6  11  -1  213.78    9.64
  -6  11  -2   97.55    4.28
  -6  11  -2  101.30    6.67
  -6  11  -3   36.79    4.96
  -6  11  -3   47.60    4.78
  -6  11  -4   53.88    5.51
  -6  11  -4   67.11    5.69
  -6  11  -4   55.08    2.98
  -6  11  -5   97.57    7.50
  -6  11  -5   94.86    5.50
  -6  11  -5  109.02    6.72
  -6  11  -6  185.51    4.75
  -6  11  -6  173.17    9.42
  -6  11  -6  206.98   16.41
  -6  11  -7   84.15    7.54
  -6  11  -7   78.70    2.72
  -6  11  -7   78.53   10.86
  -6  11  -8   -2.65    4.60
  -6  11  -8    0.39    2.16
  -6  11  -8    0.72    4.06
  -6  11  -9  379.11   17.82
  -6  11  -9  363.44   23.97
  -6  11  -9  322.73    8.85
  -6  11 -10   34.70    2.87
  -6  11 -10   22.53   11.27
  -6  11 -10   24.50    6.10
  -6  11 -11   32.43   10.09
  -6  11 -11   22.51    6.74
  -6  11 -11   18.31    2.59
  -6  11 -12  261.95   15.12
  -6  11 -12  196.17    4.58
  -6  11 -12  232.92   13.10
  -6  11 -13   -6.21    8.92
  -6  11 -13    4.25    5.87
  -6  11 -13    1.82    1.38
  -6  11 -14   79.07    9.59
  -6  11 -14   70.47    2.66
  -6  11 -15   82.74    9.30
  -6  11 -15   65.25    2.81
  -6  11 -16    5.38    6.72
  -6  11 -17  125.51   12.88
  -6  11 -18    3.22   12.40
  -6  11 -19   49.54   11.06
  -6  11 -20    0.71    7.88
   6 -10 -19   13.30    7.42
   6 -10 -19   10.44    6.73
  -6  10  19   21.67    6.58
   6 -10 -18   47.91    8.82
   6 -10 -18   37.36    8.05
  -6  10  18   60.61    7.88
   6 -10 -17   13.19    6.02
   6 -10 -17    4.00    5.51
  -6  10  17    1.50    5.32
   6 -10 -16   87.80    9.02
   6 -10 -16   60.26   12.95
  -6  10  16   67.07   13.19
  -6  10  16   61.75   13.00
   6 -10 -15    9.49    5.73
   6 -10 -15   11.53    5.14
  -6  10  15    9.16    5.13
   6 -10 -14  134.68   10.85
   6 -10 -14  138.64    9.83
  -6  10  14  158.90    9.77
   6 -10 -13    8.19    5.03
   6 -10 -13    5.57    4.44
  -6  10  13   -1.09    7.35
   6 -10 -12  105.12    7.60
   6 -10 -12   67.58    7.04
  -6  10  12   69.88    6.79
   6 -10 -11   16.86    5.04
   6 -10 -11   21.91    4.62
  -6  10  11   16.21    4.60
   6 -10 -10   79.83   11.61
   6 -10 -10   97.54   10.43
  -6  10  10   77.41    6.41
   6 -10  -9    2.16    3.95
   6 -10  -9   -0.83    3.66
  -6  10   9    5.78    3.66
   6 -10  -8  583.69   20.55
   6 -10  -8  554.70   28.71
  -6  10   8  607.45   28.97
   6 -10  -7   59.82    5.38
   6 -10  -7   62.50    5.55
  -6  10   7   55.04    5.36
   6 -10  -6  334.30   12.95
   6 -10  -6  353.48   12.47
  -6  10   6  339.70   13.00
   6 -10  -5   77.32    5.87
   6 -10  -5   79.39    5.31
  -6  10   5   78.36    5.80
   6 -10  -4    3.26    3.51
   6 -10  -4    0.87    2.97
  -6  10   4    8.92    3.41
   6 -10  -3  189.95    9.07
   6 -10  -3  211.30   11.54
  -6  10   3  194.53    8.83
   6 -10  -2  258.68   10.69
   6 -10  -2  255.43    8.29
  -6  10   2  272.38   10.53
   6 -10  -1    6.70    2.39
  -6  10   1    6.24    3.46
  -6  10   0  192.04    8.78
  -6  10  -1   48.33    3.39
  -6  10  -1   57.38    8.39
  -6  10  -2  101.03    4.05
  -6  10  -2   94.17    6.75
  -6  10  -3  124.91    7.52
  -6  10  -3  118.99    6.17
  -6  10  -4   49.01    5.86
  -6  10  -4   51.30    2.51
  -6  10  -5  397.72   15.60
  -6  10  -5  440.62   17.10
  -6  10  -5  396.34   11.01
  -6  10  -6   -2.53    4.32
  -6  10  -6    4.49    2.18
  -6  10  -6    5.78    4.01
  -6  10  -7  240.55    4.71
  -6  10  -7  275.15   12.98
  -6  10  -7  264.90   11.70
  -6  10  -8   51.25    6.65
  -6  10  -8   42.76    1.51
  -6  10  -8   46.38    5.99
  -6  10  -9   73.94    7.35
  -6  10  -9   49.37    1.59
  -6  10  -9   79.59    6.43
  -6  10 -10  391.40   18.44
  -6  10 -10  311.40    5.61
  -6  10 -10  352.86   15.89
  -6  10 -11   14.50    5.88
  -6  10 -11    7.17    1.78
  -6  10 -11   12.16    5.26
  -6  10 -12   52.04    8.32
  -6  10 -12   54.60    7.59
  -6  10 -12   47.08    2.63
  -6  10 -13  184.39   12.15
  -6  10 -13  149.63    3.36
  -6  10 -14   25.72    6.21
  -6  10 -14    7.49    1.47
  -6  10 -15    4.24    1.95
  -6  10 -15   68.44    6.75
  -6  10 -16  128.67   12.90
  -6  10 -17   -3.47    6.93
  -6  10 -18   82.78   19.33
  -6  10 -19   10.94    8.44
  -6  10 -20   94.62   14.26
   6  -9 -20    0.15    6.60
   6  -9 -20   10.28    6.87
  -6   9  20    7.64   10.30
   6  -9 -19   19.94    7.43
   6  -9 -19   36.11    8.05
  -6   9  19   26.54    7.34
   6  -9 -18   19.64    9.43
   6  -9 -18   -0.84    6.08
  -6   9  18    4.35    5.53
   6  -9 -17   55.54   12.23
   6  -9 -17   58.86    8.19
  -6   9  17   36.91    7.29
   6  -9 -16   19.39    5.81
   6  -9 -16   10.03    6.20
  -6   9  16   12.76    5.63
   6  -9 -15   80.50    8.27
   6  -9 -15   90.12    8.83
  -6   9  15  104.70   13.11
   6  -9 -14    6.75    8.30
   6  -9 -14   15.49    5.49
  -6   9  14    7.90    5.03
   6  -9 -13  117.33    8.90
   6  -9 -13  131.99    9.52
  -6   9  13  136.56    8.74
   6  -9 -12   40.17    5.76
   6  -9 -12   39.13   10.17
  -6   9  12   49.33    9.29
   6  -9 -11   -3.45    6.70
   6  -9 -11    7.47    6.27
  -6   9  11   -3.27    3.87
   6  -9 -10  160.22    8.98
   6  -9 -10  142.07    8.85
  -6   9  10  168.51    8.68
   6  -9  -9   20.07    4.39
   6  -9  -9   24.50    7.32
  -6   9   9   16.75    4.32
   6  -9  -8   58.28    5.46
   6  -9  -8   55.98    5.55
  -6   9   8   64.59    5.61
   6  -9  -7  160.97   12.12
   6  -9  -7  137.56   12.71
  -6   9   7  155.45    7.85
   6  -9  -6   65.24    5.18
   6  -9  -6   80.18    5.77
  -6   9   6   77.57    9.16
   6  -9  -5   11.79    5.65
   6  -9  -5   12.70    3.93
  -6   9   5   16.29    6.37
   6  -9  -4  392.50   21.07
   6  -9  -4  407.95   12.38
  -6   9   4  414.09   14.55
   6  -9  -3    6.86    3.78
   6  -9  -3   13.40    2.72
  -6   9   3   13.21    3.63
   6  -9  -2  251.51   10.66
   6  -9  -2  270.00   11.30
  -6   9   2  243.01   10.20
   6  -9  -1   94.87    3.86
  -6   9   1  104.70    6.26
   6  -9   0  100.18    3.70
  -6   9   0  111.67    6.34
  -6   9  -1   53.61    5.28
  -6   9  -2   88.60   10.44
  -6   9  -3  108.48    3.79
  -6   9  -3  302.79    9.05
  -6   9  -4   32.19    1.83
  -6   9  -4   34.80    5.18
  -6   9  -5   56.00    2.95
  -6   9  -5   47.55   10.53
  -6   9  -5   78.92    6.01
  -6   9  -6  186.19    9.93
  -6   9  -6  231.58   10.92
  -6   9  -6  187.97    3.16
  -6   9  -7   11.02    7.64
  -6   9  -7    1.01    4.08
  -6   9  -7    2.35    1.09
  -6   9  -8  163.58    2.93
  -6   9  -8  224.50   11.26
  -6   9  -8  187.41   16.09
  -6   9  -9  177.88   17.12
  -6   9  -9  138.63    1.89
  -6   9  -9  169.20    9.58
  -6   9 -10   32.22    6.73
  -6   9 -10   26.99    1.27
  -6   9 -10   32.82    6.00
  -6   9 -11  264.47   15.52
  -6   9 -11  255.24   13.49
  -6   9 -11  232.60    4.50
  -6   9 -12   33.34    5.95
  -6   9 -12   25.26    6.63
  -6   9 -12   20.02    0.99
  -6   9 -12    5.68    1.05
  -6   9 -13  128.09   10.12
  -6   9 -13  101.68    3.52
  -6   9 -13  115.52    2.77
  -6   9 -14   62.53    8.76
  -6   9 -14   60.37    3.32
  -6   9 -15  107.37    3.19
  -6   9 -15  113.56   11.13
  -6   9 -16    6.44   11.63
  -6   9 -17   29.74    8.54
  -6   9 -18   36.52   15.42
  -6   9 -19   61.41   11.58
  -6   9 -20    3.61    7.95
  -6   9 -21  101.11   15.70
   6  -8 -21    0.71    7.12
   6  -8 -21    4.70   11.45
  -6   8  21    6.44    6.47
   6  -8 -20   12.53    7.52
   6  -8 -20   15.53    7.84
  -6   8  20   29.63    7.23
   6  -8 -19   21.72    6.50
   6  -8 -19   12.28    6.66
  -6   8  19    1.32    6.45
   6  -8 -18   15.14    6.78
   6  -8 -18   13.32   11.95
  -6   8  18   37.46    6.69
   6  -8 -17   48.35   13.31
   6  -8 -17   47.73    7.76
  -6   8  17   68.19   12.61
   6  -8 -16   -2.91    8.87
   6  -8 -16    1.08    4.93
  -6   8  16   -4.41    4.92
   6  -8 -15  111.46   15.63
   6  -8 -15  120.97   16.54
  -6   8  15  148.48    9.85
   6  -8 -14   22.98    5.47
   6  -8 -14   19.27    9.54
  -6   8  14   14.77    9.01
   6  -8 -13   77.00    7.30
   6  -8 -13   68.16   12.44
  -6   8  13   83.19    7.23
   6  -8 -12    6.98    7.29
   6  -8 -12    9.31    4.57
  -6   8  12    3.35    4.30
   6  -8 -11  169.19    9.79
   6  -8 -11  193.50   10.09
  -6   8  11  195.74    9.80
   6  -8 -10   38.58    8.72
   6  -8 -10   34.39    5.38
  -6   8  10   54.92    8.78
   6  -8  -9  478.74   17.77
   6  -8  -9  474.27   17.38
  -6   8   9  474.55   17.94
   6  -8  -8   10.67    3.72
  -6   8   8    7.82    4.01
   6  -8  -7   51.07    4.53
   6  -8  -7   45.62    5.14
  -6   8   7   53.45    5.18
   6  -8  -6  145.87    6.66
   6  -8  -6  158.74    7.92
  -6   8   6  155.33    7.88
   6  -8  -5   99.83    8.54
   6  -8  -5  108.12    6.68
  -6   8   5  112.02    6.53
   6  -8  -4   61.64    4.00
   6  -8  -4   52.81    5.33
  -6   8   4   63.09    5.16
   6  -8  -3  196.06    8.85
   6  -8  -3  187.70    6.25
  -6   8   3  188.71   13.43
   6  -8  -2  290.81   17.76
   6  -8  -2  297.33    8.07
  -6   8   2  339.60   17.75
   6  -8  -1    9.43    3.93
   6  -8  -1    9.40    1.89
  -6   8   1   10.48    3.81
   6  -8   0  260.08    8.39
  -6   8   0  275.47   10.87
  -6   8  -1   14.94    4.14
  -6   8  -2  224.56   10.05
  -6   8  -3   -0.08    3.57
  -6   8  -4  461.87   18.14
  -6   8  -5   41.78    5.63
  -6   8  -6  247.65   12.40
  -6   8  -6  244.40   11.35
  -6   8  -7   92.08    8.00
  -6   8  -7   84.93    7.06
  -6   8  -8   76.97    7.87
  -6   8  -8   78.62    6.89
  -6   8  -9  158.58   17.88
  -6   8  -9  156.96   10.04
  -6   8 -10  241.20   14.36
  -6   8 -10  240.94   20.78
  -6   8 -11   81.36    9.18
  -6   8 -11   70.20    7.95
  -6   8 -12  112.09    2.42
  -6   8 -12  140.90   16.35
  -6   8 -12  111.22    1.74
  -6   8 -13   73.09    8.38
  -6   8 -13   66.43    2.53
  -6   8 -14  155.04   20.22
  -6   8 -14  146.22    4.55
  -6   8 -15    6.48    2.38
  -6   8 -15   24.21    6.55
  -6   8 -16   57.69    2.52
  -6   8 -16   61.76   15.90
  -6   8 -17   60.67   10.23
  -6   8 -18    4.48    7.09
  -6   8 -19  123.60   14.76
  -6   8 -20   40.38   10.73
  -6   8 -21   34.11   11.08
   6  -7 -22   41.74    9.51
   6  -7 -22   39.94    9.69
  -6   7  22   29.51    8.93
   6  -7 -21   18.79    7.24
   6  -7 -21    2.15    7.29
  -6   7  21    1.50   11.56
   6  -7 -20   46.75    8.60
   6  -7 -20   26.93    8.59
  -6   7  20   41.60    8.15
   6  -7 -19   30.11    7.45
   6  -7 -19   20.72    7.26
  -6   7  19   25.17    7.06
   6  -7 -18   15.85    6.53
   6  -7 -18   16.25   10.44
  -6   7  18   15.96    6.34
   6  -7 -17   15.80    6.12
   6  -7 -17   11.18    5.94
  -6   7  17   16.66    6.08
   6  -7 -16   79.26    8.93
   6  -7 -16   99.31    8.85
  -6   7  16   98.64   14.34
   6  -7 -15    8.84    5.03
   6  -7 -15   -1.53    4.88
  -6   7  15    3.54    4.89
   6  -7 -14  129.83    9.57
   6  -7 -14  154.52   15.17
  -6   7  14  130.45    9.32
   6  -7 -13   28.67    6.11
   6  -7 -13   44.46    6.05
  -6   7  13   45.51    9.56
   6  -7 -12   58.69    6.44
   6  -7 -12   55.88    6.38
  -6   7  12   57.75    6.39
   6  -7 -11    2.82    4.25
   6  -7 -11   10.88    7.04
  -6   7  11    6.94    4.18
   6  -7 -10  201.45   10.13
   6  -7 -10  218.73   10.39
  -6   7  10  220.03   10.31
   6  -7  -9   56.83    5.66
   6  -7  -9   61.33    9.88
  -6   7   9   82.40    9.79
   6  -7  -8   -1.74    3.33
   6  -7  -8    5.61    3.61
  -6   7   8   -0.72    3.57
   6  -7  -7  535.32   19.45
   6  -7  -7  575.69   18.06
  -6   7   7  597.29   20.35
   6  -7  -6   24.38    4.63
   6  -7  -6   29.98    3.63
  -6   7   6   30.29    4.42
   6  -7  -5  297.67   12.12
   6  -7  -5  321.88   14.29
  -6   7   5  315.44   11.93
   6  -7  -4   44.52    3.47
   6  -7  -4   48.55    4.94
  -6   7   4   47.31    4.94
   6  -7  -3  462.74   11.69
   6  -7  -3  452.71   15.87
  -6   7   3  464.30   15.97
   6  -7  -2   49.03    5.25
   6  -7  -2   52.10    2.86
  -6   7   2   66.98    5.37
   6  -7  -1 1188.47   41.60
   6  -7  -1 1188.20   30.32
  -6   7   1 1201.15   52.33
   6  -7   0   25.42    1.65
  -6   7   0   25.04    4.51
  -6   7  -1  615.90   21.07
  -6   7  -2    7.44    3.84
  -6   7  -3  292.70   18.77
  -6   7  -4   23.87    4.97
  -6   7  -5  574.54   22.08
  -6   7  -6    2.18    3.93
  -6   7  -6    2.40    4.39
  -6   7  -7  180.10   10.43
  -6   7  -7  149.30   15.40
  -6   7  -8  133.04    9.40
  -6   7  -8  123.33    8.55
  -6   7  -9  269.31   14.03
  -6   7  -9  218.04   12.58
  -6   7 -10   69.67    8.36
  -6   7 -10   64.19    7.44
  -6   7 -11  171.58   12.58
  -6   7 -11  177.08   11.00
  -6   7 -12  307.58   23.48
  -6   7 -12  265.22    4.22
  -6   7 -13   -0.08    1.24
  -6   7 -13   -2.53    5.29
  -6   7 -14  154.49   19.77
  -6   7 -14  144.64    3.01
  -6   7 -15   84.61    2.59
  -6   7 -15   90.81   10.26
  -6   7 -16    1.69    1.52
  -6   7 -16   -2.81    9.98
  -6   7 -17   59.58   10.13
  -6   7 -18   56.44   10.11
  -6   7 -19    4.85    7.56
  -6   7 -20   81.19   13.41
  -6   7 -21   24.57   10.46
   6  -6 -22    7.27   13.83
   6  -6 -22   16.76    7.81
  -6   6  22   16.68    7.79
   6  -6 -21   57.11    9.71
   6  -6 -21   13.31   15.45
  -6   6  21   54.18    9.31
   6  -6 -20   15.14    6.78
   6  -6 -20   -1.30    6.51
  -6   6  20   10.29    6.59
   6  -6 -19   10.49    6.46
   6  -6 -19    6.86    6.71
  -6   6  19   22.90    6.46
   6  -6 -18   66.33    8.99
   6  -6 -18   79.27    9.44
  -6   6  18   87.90   14.85
   6  -6 -17   11.41    5.88
   6  -6 -17   11.05    5.83
  -6   6  17   11.28    5.91
   6  -6 -16   92.21    8.71
   6  -6 -16   89.23   14.05
  -6   6  16   74.57    8.62
   6  -6 -15   -1.21    4.80
   6  -6 -15    0.26    4.61
  -6   6  15   -4.32    4.80
   6  -6 -14  165.34   10.38
   6  -6 -14  136.61   10.30
  -6   6  14  165.34   10.14
   6  -6 -13    4.39    4.12
   6  -6 -13   -0.67    4.12
  -6   6  13  -11.11    6.97
   6  -6 -12  219.74   11.24
   6  -6 -12  234.82   11.54
  -6   6  12  218.80   11.74
   6  -6 -11   -0.86    3.78
   6  -6 -11    2.60    3.91
  -6   6  11   -1.52    3.87
   6  -6 -10  187.54    9.38
   6  -6 -10  200.21   15.72
  -6   6  10  188.49    9.80
   6  -6  -9   -2.49    3.52
   6  -6  -9    4.97    3.78
  -6   6   9    3.23    3.74
   6  -6  -8  640.66   20.45
   6  -6  -8  592.46   21.99
  -6   6   8  637.56   31.15
   6  -6  -7  195.70   12.46
   6  -6  -7  218.29    9.79
  -6   6   7  212.85    9.95
   6  -6  -6 1038.51   31.30
   6  -6  -6 1024.32   35.91
  -6   6   6 1076.98   36.60
   6  -6  -5    7.39    2.74
   6  -6  -5   17.51    6.63
  -6   6   5   16.31    3.84
   6  -6  -4  332.96   12.49
   6  -6  -4  322.65    8.99
  -6   6   4  349.66   12.50
   6  -6  -3   27.59    4.18
   6  -6  -3   31.54    4.38
  -6   6   3   30.06    4.36
   6  -6  -2  543.98   18.67
   6  -6  -2  537.80   15.43
  -6   6   2  534.40   18.25
   6  -6  -1   36.74    8.15
   6  -6  -1   34.73    1.93
  -6   6   1   35.76    7.88
   6  -6   0 1229.31   43.00
   6  -6   0 1207.88   27.90
  -6   6   0 1310.07   55.33
  -6   6  -1   -2.70    3.54
  -6   6  -2  244.31   10.46
  -6   6  -3    6.32    3.98
  -6   6  -4  365.83   15.18
  -6   6  -5   22.26    5.03
  -6   6  -6  135.26    8.41
  -6   6  -6   99.73    7.67
  -6   6  -7   93.18   11.98
  -6   6  -7   97.93    7.81
  -6   6  -8  271.46   13.74
  -6   6  -8  250.50   12.16
  -6   6  -9    3.60    5.49
  -6   6  -9   13.95    4.90
  -6   6 -10  463.64   21.79
  -6   6 -10  417.10   19.17
  -6   6 -11   73.92    9.14
  -6   6 -11   87.38    8.36
  -6   6 -12   45.74    1.34
  -6   6 -12   38.37   11.89
  -6   6 -13  260.57    4.41
  -6   6 -13  259.14   15.81
  -6   6 -14    1.65   10.14
  -6   6 -14    8.34    2.05
  -6   6 -15   48.80    8.56
  -6   6 -15   48.48    2.18
  -6   6 -16  180.74   21.10
  -6   6 -16  148.23    4.26
  -6   6 -17   -1.74    6.26
  -6   6 -17    0.15    1.76
  -6   6 -18  122.06   21.31
  -6   6 -19   11.48    8.12
  -6   6 -20   98.68   13.47
  -6   6 -21    7.86    8.93
   6  -5 -23  108.50   14.34
   6  -5 -23  114.50   13.63
  -6   5  23   91.15   13.18
   6  -5 -22   29.43    8.21
   6  -5 -22    2.20    7.81
  -6   5  22   -1.18   12.81
   6  -5 -21   32.54    9.20
   6  -5 -21   47.02    8.95
  -6   5  21   31.22    8.79
   6  -5 -20    0.26    6.12
   6  -5 -20   -0.04    5.91
  -6   5  20   -0.06    9.76
   6  -5 -19   54.43   16.07
   6  -5 -19   52.54   15.46
  -6   5  19   85.57    9.22
   6  -5 -18    0.94    9.76
   6  -5 -18    0.81    5.77
  -6   5  18    9.49    5.72
   6  -5 -17  151.18   11.43
   6  -5 -17  157.54   11.24
  -6   5  17  125.82   11.58
   6  -5 -16   47.61    7.04
   6  -5 -16   34.19    7.03
  -6   5  16   42.02    7.14
   6  -5 -15  253.13   13.55
   6  -5 -15  235.58   13.32
  -6   5  15  236.57   21.78
   6  -5 -14   32.90    5.84
   6  -5 -14   21.08    9.50
  -6   5  14   19.95    5.82
   6  -5 -13  638.84   25.19
   6  -5 -13  633.58   26.54
  -6   5  13  676.42   26.36
   6  -5 -12  107.81    7.68
   6  -5 -12  107.96    8.11
  -6   5  12   93.92   13.00
   6  -5 -11  152.77    8.64
   6  -5 -11  146.58    9.03
  -6   5  11  159.49    9.15
   6  -5 -10  213.31   10.54
   6  -5 -10  210.86    9.66
  -6   5  10  196.21   10.39
   6  -5  -9    3.46    3.51
   6  -5  -9   -1.75    4.10
  -6   5   9   17.70    4.00
   6  -5  -8   23.44    4.05
   6  -5  -8   28.13    4.62
  -6   5   8   18.32    7.86
   6  -5  -7  616.31   18.64
   6  -5  -7  615.03   21.77
  -6   5   7  654.97   30.67
   6  -5  -6   62.88    6.69
   6  -5  -6   47.12    8.70
  -6   5   6   54.48    5.26
   6  -5  -5  388.28   10.79
   6  -5  -5  399.48   14.09
  -6   5   5  388.25   14.31
   6  -5  -4  248.20   10.37
   6  -5  -4  248.24   10.25
  -6   5   4  245.95   10.10
   6  -5  -3   22.90    4.05
   6  -5  -3   20.28    2.18
  -6   5   3   18.32    4.10
   6  -5  -2  174.21   13.03
   6  -5  -2  168.79    4.20
  -6   5   2  180.68    8.22
   6  -5  -1  367.62    8.77
   6  -5  -1  376.61   13.52
  -6   5   1  369.12   13.58
   6  -5   0   16.07    3.84
   6  -5   0    8.53    1.55
  -6   5   0    6.59    6.49
  -6   5  -1  366.17   13.61
  -6   5  -2    9.58    3.88
  -6   5  -3  296.52   12.28
  -6   5  -4    6.37    4.22
  -6   5  -5  475.39   18.64
  -6   5  -6   30.01    8.62
  -6   5  -6   16.67    4.88
  -6   5  -7   59.27    6.36
  -6   5  -7   76.49    6.84
  -6   5  -8  145.07    9.96
  -6   5  -8  140.53    8.93
  -6   5  -9  347.53   16.62
  -6   5  -9  318.10   15.22
  -6   5 -10   14.38    5.80
  -6   5 -10   13.66    5.44
  -6   5 -11  607.12   27.02
  -6   5 -11  555.50   24.81
  -6   5 -12    3.00    9.12
  -6   5 -12    9.36    1.27
  -6   5 -13  106.42    9.58
  -6   5 -13   98.79    2.32
  -6   5 -14   57.23   15.38
  -6   5 -14   77.61    3.72
  -6   5 -15   89.50    3.01
  -6   5 -15   75.34    9.87
  -6   5 -16    1.27    1.73
  -6   5 -16    5.37   10.37
  -6   5 -17  177.48    5.52
  -6   5 -17  152.58   14.51
  -6   5 -18   -3.82   11.28
  -6   5 -19  131.12   14.61
  -6   5 -20    5.20    7.98
  -6   5 -21  115.31   15.77
   6  -4 -23   50.21   10.60
   6  -4 -23   20.93   16.76
  -6   4  23   38.98   10.07
   6  -4 -22  126.51   14.50
   6  -4 -22  120.82   14.13
  -6   4  22  142.52   13.75
   6  -4 -21   17.55    7.98
   6  -4 -21   24.28    7.81
  -6   4  21   17.88    7.89
   6  -4 -20   72.06   10.67
   6  -4 -20   76.49   10.17
  -6   4  20   75.78    9.98
   6  -4 -19   -9.14    6.52
   6  -4 -19   -3.92    6.22
  -6   4  19   -4.42    6.09
   6  -4 -18   74.27    9.33
   6  -4 -18   74.15    9.10
  -6   4  18   70.04    9.24
   6  -4 -17    4.44    9.88
   6  -4 -17   15.41    9.97
  -6   4  17    9.46    6.03
   6  -4 -16   12.45    9.73
   6  -4 -16   12.36    5.47
  -6   4  16    1.49    5.45
   6  -4 -15   45.36    7.12
   6  -4 -15   36.29    6.69
  -6   4  15   48.03   11.24
   6  -4 -14  291.46   15.05
   6  -4 -14  312.35   14.67
  -6   4  14  290.42   15.00
   6  -4 -13   67.75    7.13
   6  -4 -13   54.21   11.50
  -6   4  13   61.62    6.94
   6  -4 -12  189.60   11.14
   6  -4 -12  222.00   11.37
  -6   4  12  226.52   18.01
   6  -4 -11  110.92    7.82
   6  -4 -11  112.59    7.96
  -6   4  11  111.06    8.05
   6  -4 -10   70.48    6.17
   6  -4 -10   58.96    6.41
  -6   4  10   75.82    6.46
   6  -4  -9  793.20   26.38
   6  -4  -9  754.20   27.89
  -6   4   9  780.30   27.88
   6  -4  -8   25.34    4.27
   6  -4  -8   23.62    4.71
  -6   4   8   29.75    4.62
   6  -4  -7  154.51    6.84
   6  -4  -7  146.47   13.18
  -6   4   7  134.10   12.80
   6  -4  -6  158.99    6.47
   6  -4  -6  162.96    8.29
  -6   4   6  170.66    8.25
   6  -4  -5  140.82    8.45
   6  -4  -5  157.99    7.42
  -6   4   5  127.78    7.37
   6  -4  -4   66.88    3.33
   6  -4  -4   71.20    5.67
  -6   4   4   65.85    5.54
   6  -4  -3  371.59    8.55
   6  -4  -3  387.52   19.71
  -6   4   3  390.42   13.54
   6  -4  -2   35.56    1.94
   6  -4  -2   34.36    4.46
  -6   4   2   43.83    4.55
   6  -4  -1   76.53    5.78
   6  -4  -1   73.74    3.22
  -6   4   1   92.74    5.77
   6  -4   0  256.69   10.33
   6  -4   0  246.12    4.46
  -6   4   0  238.87   15.52
  -6   4  -1   27.23    4.48
  -6   4  -2  240.94   10.48
  -6   4  -3   13.85    4.30
  -6   4  -4  823.02   29.57
  -6   4  -5  142.87    8.69
  -6   4  -6  468.28   26.48
  -6   4  -6  431.70   16.79
  -6   4  -7   67.80    6.83
  -6   4  -7   61.80    6.22
  -6   4  -8  136.47    9.51
  -6   4  -8  124.70    8.24
  -6   4  -9   12.69    5.30
  -6   4  -9    7.14    4.94
  -6   4 -10  562.18   24.53
  -6   4 -10  536.13   22.34
  -6   4 -11   91.63    9.02
  -6   4 -11   89.62    8.18
  -6   4 -11   80.89    2.00
  -6   4 -12  482.20    8.60
  -6   4 -12  500.95   32.24
  -6   4 -13   24.10    6.21
  -6   4 -13   21.30    1.51
  -6   4 -14   83.56    4.32
  -6   4 -14   89.83   15.18
  -6   4 -15   28.56    2.24
  -6   4 -15   36.77    7.26
  -6   4 -16   93.22    3.70
  -6   4 -16   93.43   10.78
  -6   4 -17   15.68    4.20
  -6   4 -17   23.20    7.41
  -6   4 -18   29.08   14.35
  -6   4 -19   60.75   10.85
  -6   4 -20   32.04   16.10
  -6   4 -21   14.68    9.34
   6  -3 -24   -4.90   14.90
   6  -3 -24    9.94    8.78
  -6   3  24   19.90    8.77
   6  -3 -23   12.51   13.89
   6  -3 -23   16.56    8.07
  -6   3  23   -1.09    8.00
   6  -3 -22   -7.91   12.20
   6  -3 -22    5.20    7.15
  -6   3  22    2.51    7.01
   6  -3 -21   40.70    9.07
   6  -3 -21   20.26   15.24
  -6   3  21   31.73    8.70
   6  -3 -20    1.63    6.76
   6  -3 -20   -0.05    6.75
  -6   3  20   14.01    6.38
   6  -3 -19   52.64    9.12
   6  -3 -19   69.72    9.34
  -6   3  19   40.93    8.97
   6  -3 -18   -4.80    6.06
   6  -3 -18   -8.14    6.27
  -6   3  18   -4.80    6.21
   6  -3 -17    6.47    6.17
   6  -3 -17   17.05    6.47
  -6   3  17   12.30   10.28
   6  -3 -16  212.30   13.48
   6  -3 -16  184.35   14.17
  -6   3  16  233.88   13.68
   6  -3 -15   26.12    6.26
  -6   3  15   36.54    6.47
   6  -3 -14  244.10   13.18
  -6   3  14  240.34   13.78
   6  -3 -13   11.49    4.96
  -6   3  13   14.66    5.13
   6  -3 -12    3.33    4.47
  -6   3  12    9.63    4.61
   6  -3 -11   69.47    6.99
  -6   3  11   80.99    7.02
   6  -3 -10  235.57   16.82
  -6   3  10  205.39   10.69
   6  -3  -9   94.92    7.22
  -6   3   9  106.25    7.39
   6  -3  -8  445.20   16.43
  -6   3   8  450.07   16.52
   6  -3  -7   -1.01    3.53
  -6   3   7    5.41    5.99
   6  -3  -6   49.25    5.21
  -6   3   6   49.58    5.19
   6  -3  -5  352.12   13.14
  -6   3   5  377.27   13.49
   6  -3  -4  100.04   10.27
  -6   3   4  108.57    6.54
   6  -3  -3  123.35    6.54
  -6   3   3  109.27    6.78
   6  -3  -2    5.71    1.47
   6  -3  -2   -4.88    3.42
  -6   3   2    2.24    3.35
   6  -3  -1  408.85    9.22
   6  -3  -1  405.46   14.21
  -6   3   1  408.05   14.19
   6  -3   0   17.01    0.83
   6  -3   0   27.00    4.02
  -6   3   0   14.05    6.73
  -6   3  -1  324.94   12.21
  -6   3  -2   16.59    4.09
  -6   3  -3  451.72   16.65
  -6   3  -4  108.44    7.44
  -6   3  -5  732.55   26.41
  -6   3  -6   40.94    5.52
  -6   3  -6   31.11    5.28
  -6   3  -7  252.10   12.12
  -6   3  -7  254.41   11.49
  -6   3  -8   64.19    7.55
  -6   3  -8   99.39    7.06
  -6   3  -9  101.04    8.42
  -6   3  -9   85.50    7.82
  -6   3 -10   -1.06    4.59
  -6   3 -10   10.92    4.99
  -6   3 -11  273.64   15.18
  -6   3 -11  250.48   13.52
  -6   3 -11  258.12    5.80
  -6   3 -12    5.88    6.19
  -6   3 -12   19.52    2.34
  -6   3 -12   19.03    9.85
  -6   3 -13   78.32    8.47
  -6   3 -13   81.10    4.22
  -6   3 -14  111.41   10.07
  -6   3 -14  105.00    3.52
  -6   3 -15   43.52    2.71
  -6   3 -15   52.26    7.94
  -6   3 -16   40.04    4.86
  -6   3 -16   47.71    8.23
  -6   3 -17   29.42    4.95
  -6   3 -17   30.17    7.91
  -6   3 -18   84.26    4.78
  -6   3 -18  103.79   11.74
  -6   3 -19    2.99    7.20
  -6   3 -20  112.24   24.02
   6  -2 -24   -2.63    8.14
   6  -2 -24    9.77   14.15
  -6   2  24    8.18    7.92
   6  -2 -23   10.56    8.28
   6  -2 -23    9.02    8.49
  -6   2  23    5.69   13.53
   6  -2 -22    9.38    8.38
   6  -2 -22   35.46    8.89
  -6   2  22    6.69    8.23
   6  -2 -21   66.18   10.90
   6  -2 -21   81.58   11.56
  -6   2  21   69.06   10.80
   6  -2 -20    0.07   11.21
   6  -2 -20   -4.92    7.13
  -6   2  20   -5.76    6.53
   6  -2 -19   12.83   11.35
  -6   2  19    5.05   11.04
   6  -2 -18  163.98   12.90
  -6   2  18  157.08   12.81
   6  -2 -17   -1.20    5.40
  -6   2  17    6.44    9.03
   6  -2 -16   27.74    6.72
  -6   2  16   27.77    6.82
   6  -2 -15  191.25   12.41
  -6   2  15  198.66   12.53
   6  -2 -14   10.45    5.07
  -6   2  14    5.89    5.30
   6  -2 -13    1.94    4.71
  -6   2  13   10.39    4.88
   6  -2 -12  182.84   10.55
  -6   2  12  184.38   10.56
   6  -2 -11   90.53    7.53
  -6   2  11  104.75    7.74
   6  -2 -10  147.66    8.80
  -6   2  10  138.58    8.85
   6  -2  -9    2.60    4.01
  -6   2   9    5.44    3.99
   6  -2  -8   75.32    6.37
  -6   2   8   76.67    6.28
   6  -2  -7   43.58    5.10
  -6   2   7   41.21    8.56
   6  -2  -6  638.23   22.18
  -6   2   6  657.60   21.92
   6  -2  -5   -0.78    6.20
  -6   2   5  -10.26    3.80
   6  -2  -4  124.98    7.00
  -6   2   4  140.96    6.97
   6  -2  -3   62.60    5.65
  -6   2   3   95.36    5.60
   6  -2  -2  162.44    8.10
  -6   2   2  195.23    8.10
   6  -2  -1   45.05    4.79
  -6   2   1   42.61    7.92
   6  -2   0  546.58   18.70
  -6   2   0  595.45   19.00
   6  -2   1    2.31    3.50
   6  -2   1    0.23    0.52
   6  -2   1   10.91    0.63
  -6   2  -1   11.20    3.54
  -6   2  -2   76.73    5.86
  -6   2  -3   49.82    8.82
  -6   2  -4  253.99   11.01
  -6   2  -5   94.33    7.03
  -6   2  -6  372.46   14.96
  -6   2  -6  339.19   14.04
  -6   2  -7   43.72    5.56
  -6   2  -7   27.86    5.26
  -6   2  -8   14.01    4.79
  -6   2  -8    8.84    4.47
  -6   2  -9   99.76   12.98
  -6   2  -9   85.54    7.57
  -6   2 -10  114.28    9.12
  -6   2 -10  111.90   13.75
  -6   2 -11   24.86    6.02
  -6   2 -11   16.10    5.35
  -6   2 -11   19.82    2.56
  -6   2 -12   78.56    8.34
  -6   2 -12   74.39    7.84
  -6   2 -12   67.74    3.92
  -6   2 -13  166.78    4.59
  -6   2 -13  189.65   11.53
  -6   2 -14    6.84    5.41
  -6   2 -14    2.33    3.23
  -6   2 -15   98.27    4.25
  -6   2 -15   98.10    9.91
  -6   2 -16   45.57    3.46
  -6   2 -16   49.81    8.42
  -6   2 -17   24.86    3.24
  -6   2 -17   24.45    7.61
  -6   2 -18   20.65    3.37
  -6   2 -18   14.77    7.87
  -6   2 -19  105.17   12.59
  -6   2 -20    8.44    8.16
   6  -1 -25   -4.26    8.27
  -6   1  25    9.98    8.23
   6  -1 -24    6.70    7.75
   6  -1 -24  -19.73    8.53
  -6   1  24    4.40    7.87
   6  -1 -23  -10.33    7.27
   6  -1 -23    9.66    7.93
  -6   1  23    7.63   12.02
   6  -1 -22   -7.78    7.01
  -6   1  22    4.54    7.01
   6  -1 -21    5.19    7.17
  -6   1  21   10.98   12.05
   6  -1 -20    5.76    7.25
  -6   1  20   20.36    7.28
   6  -1 -19   48.52    9.11
  -6   1  19   67.38   14.67
   6  -1 -18   33.03   13.43
  -6   1  18   41.41    8.24
   6  -1 -17  461.99   23.83
  -6   1  17  505.31   36.57
   6  -1 -16   42.57    7.77
  -6   1  16   57.09    7.94
   6  -1 -15  352.32   18.24
  -6   1  15  367.56   18.10
   6  -1 -14  132.30   16.21
  -6   1  14  134.17   10.32
   6  -1 -13  202.35   11.50
  -6   1  13  191.24   12.09
   6  -1 -12  277.49   13.02
  -6   1  12  251.17   12.96
   6  -1 -11  277.22   13.12
  -6   1  11  312.01   13.99
   6  -1 -10  117.03    8.23
  -6   1  10  130.15    8.15
   6  -1  -9   73.60    6.80
  -6   1   9  113.71    7.09
   6  -1  -8   73.44    6.43
  -6   1   8   89.32   10.69
   6  -1  -7  714.25   25.14
  -6   1   7  763.65   25.59
   6  -1  -6  172.27   13.86
  -6   1   6  176.52    8.58
   6  -1  -5  671.73   22.97
  -6   1   5  720.32   23.60
   6  -1  -4   63.90    5.07
  -6   1   4   49.08    4.99
   6  -1  -3    7.18    3.52
  -6   1   3    4.52    3.49
   6  -1  -2   62.90    5.01
  -6   1   2   62.57    5.03
   6  -1  -1  121.09    6.67
  -6   1   1  123.40   10.50
   6  -1   0    1.23    5.47
  -6   1   0    1.86    3.31
   6  -1   1  126.53    7.03
   6  -1   1  140.76    2.90
  -6   1  -1  141.22    7.22
   6  -1   2   94.20    1.97
  -6   1  -2   94.43    6.13
   6  -1   3   34.72    0.74
  -6   1  -3   35.34    4.59
  -6   1  -4   -1.07    3.52
  -6   1  -5  336.36   13.65
  -6   1  -6    8.07    4.16
  -6   1  -6    7.51    3.96
  -6   1  -7   55.41    6.05
  -6   1  -7   56.16    9.48
  -6   1  -8  135.62    8.96
  -6   1  -8  141.66    8.27
  -6   1  -9   37.34    5.38
  -6   1  -9   25.36    5.78
  -6   1 -10    6.06    4.91
  -6   1 -10    4.57    7.77
  -6   1 -11  449.22   19.89
  -6   1 -11  417.66   17.94
  -6   1 -11  397.10    8.90
  -6   1 -12    1.57    5.22
  -6   1 -12    3.44    4.78
  -6   1 -12    3.04    1.76
  -6   1 -13   33.03    7.59
  -6   1 -13   58.58    4.68
  -6   1 -13   52.34   11.88
  -6   1 -14   88.65    4.01
  -6   1 -14   73.49    9.03
  -6   1 -15   72.02    3.94
  -6   1 -15   13.46   14.52
  -6   1 -16    2.19    4.36
  -6   1 -16    7.42    5.85
  -6   1 -17  148.92   10.03
  -6   1 -17  152.00   21.25
  -6   1 -18    3.73    5.03
  -6   1 -18    0.64    6.54
  -6   1 -19   24.48   14.21
  -6   1 -20   20.06    8.81
   6   0 -25   22.89    9.19
  -6   0  25   -0.21    9.09
   6   0 -24   20.23    9.78
  -6   0  24   22.18    9.55
   6   0 -23  104.76   14.18
  -6   0  23  112.42   22.69
   6   0 -22   74.85   12.55
  -6   0  22  102.62   12.55
   6   0 -21   48.95    9.34
  -6   0  21    7.69   15.75
   6   0 -20   30.53    8.75
  -6   0  20   44.05    8.65
   6   0 -19   -5.86    6.21
  -6   0  19   10.18   10.29
   6   0 -18  121.91   12.28
  -6   0  18  155.33   12.50
   6   0 -17  123.64   18.35
  -6   0  17  143.81   18.88
   6   0 -16  625.17   29.10
  -6   0  16  635.25   29.25
   6   0 -15  100.48    9.11
  -6   0  15   75.70    9.10
   6   0 -14  228.68   13.64
  -6   0  14  267.39   14.37
   6   0 -13  498.23   21.32
  -6   0  13  529.76   22.08
   6   0 -12  552.69   22.43
  -6   0  12  539.38   33.06
   6   0 -11  322.45   20.23
  -6   0  11  264.88   13.11
   6   0 -10    3.33    4.24
  -6   0  10    7.64    4.29
   6   0  -9  144.72   12.77
  -6   0   9  126.24    8.15
   6   0  -8   -4.99    3.77
  -6   0   8    7.95    6.38
   6   0  -7    2.12    3.56
  -6   0   7    2.52    3.74
   6   0  -6  584.21   27.64
  -6   0   6  570.42   19.36
   6   0  -5    8.31    3.74
  -6   0   5    9.37    3.80
   6   0  -4  192.10    8.18
  -6   0   4  180.77    8.11
   6   0  -3  199.65    8.39
  -6   0   3  197.72   13.53
   6   0  -2   -1.34    3.16
  -6   0   2   -2.89    5.38
   6   0  -1   73.41    5.47
  -6   0   1   81.27    5.37
   6   0   0   91.25    9.77
  -6   0   0  100.74    5.82
   6   0   1   26.36    4.43
   6   0   1   41.65    2.28
  -6   0  -1   38.71    4.44
   6   0   2   36.46    2.22
  -6   0  -2   49.32    7.34
   6   0   3    5.47    0.99
  -6   0  -3    3.17    3.44
   6   0   4  417.22    9.06
  -6   0  -4  409.08   15.07
   6   0   5  139.38    3.02
  -6   0  -5  127.45   12.56
  -6   0  -6  633.84   22.50
  -6   0  -6  582.51   20.65
  -6   0  -7   11.96    7.28
  -6   0  -7    9.44    4.02
  -6   0  -8  122.92    8.02
  -6   0  -8  105.92    7.23
  -6   0  -9    5.22    4.34
  -6   0  -9    2.66    4.17
  -6   0 -10  424.67   28.23
  -6   0 -10  422.36   17.62
  -6   0 -11   84.89    7.85
  -6   0 -11   71.95    7.02
  -6   0 -11   70.63    3.33
  -6   0 -12  541.39   24.36
  -6   0 -12  523.20   22.03
  -6   0 -12  502.94   17.25
  -6   0 -13   23.99    6.35
  -6   0 -13   17.75    6.00
  -6   0 -13   20.13    2.64
  -6   0 -14  126.63   11.82
  -6   0 -14  164.35    8.61
  -6   0 -14  171.50   11.35
  -6   0 -15    5.14    5.65
  -6   0 -15    3.65    2.66
  -6   0 -15    1.14    5.56
  -6   0 -16  151.44    6.59
  -6   0 -16  149.65   11.94
  -6   0 -17    2.63    3.19
  -6   0 -17   17.97    6.31
  -6   0 -18  127.90    6.89
  -6   0 -18  123.59   12.49
  -6   0 -19    7.63    7.28
  -6   0 -19    5.88    3.68
   6   1 -25   -7.92    8.94
  -6  -1  25   -9.31    8.75
   6   1 -24   38.18   11.04
  -6  -1  24   53.78   11.27
   6   1 -23   24.08    9.67
  -6  -1  23   38.33   16.10
   6   1 -22  106.18   13.67
  -6  -1  22  124.98   13.60
   6   1 -21   76.59   10.48
  -6  -1  21   22.94   17.54
   6   1 -20   15.23    6.96
  -6  -1  20   -1.43    7.04
   6   1 -19   95.90   11.20
  -6  -1  19   79.60   18.03
   6   1 -18   11.51    6.82
  -6  -1  18   16.19    6.81
   6   1 -17    8.84    6.15
  -6  -1  17    9.02   10.56
   6   1 -16  120.76   15.90
  -6  -1  16   91.86    9.98
   6   1 -15    9.60    5.75
  -6  -1  15    8.23    9.66
   6   1 -14   12.25    5.74
  -6  -1  14   17.76    5.83
   6   1 -13  162.70   15.81
  -6  -1  13  131.03    9.83
   6   1 -12  472.95   19.86
  -6  -1  12  500.90   30.79
   6   1 -11  286.24   13.20
  -6  -1  11  281.65   13.36
   6   1 -10   -3.22    4.10
  -6  -1  10   10.85    4.22
   6   1  -9   88.70    6.81
  -6  -1   9   94.60   11.49
   6   1  -8  359.55   14.05
  -6  -1   8  386.02   14.81
   6   1  -7   -1.61    3.66
  -6  -1   7    8.63    3.71
   6   1  -6    3.42    3.44
  -6  -1   6   -0.52    3.43
   6   1  -5  595.30   19.60
  -6  -1   5  595.36   19.99
   6   1  -4   11.56    3.59
  -6  -1   4   11.34    6.23
   6   1  -3  293.58   11.00
  -6  -1   3  308.31   11.10
   6   1  -2   -2.15    3.04
  -6  -1   2    2.97    3.10
   6   1  -1  366.96   12.79
  -6  -1   1  395.90   13.11
   6   1   0   16.34    3.82
  -6  -1   0   20.03    3.75
   6   1   1  144.36    5.01
  -6  -1  -1  163.48   11.32
   6   1   2   38.00    1.81
  -6  -1  -2   45.95    4.51
   6   1   3   87.18    2.51
  -6  -1  -3  100.24    5.94
   6   1   4   47.15    2.07
  -6  -1  -4   47.64    8.34
   6   1   5 1131.20   31.93
  -6  -1  -5 1089.17   38.89
   6   1   6  299.76    6.88
  -6  -1  -6  261.42   11.51
  -6  -1  -6  289.98   12.17
  -6  -1  -7  490.67   18.46
  -6  -1  -7  467.63   17.02
  -6  -1  -8    0.90    6.89
  -6  -1  -8    5.84    6.62
  -6  -1  -9  176.54    9.68
  -6  -1  -9  141.54    8.83
  -6  -1 -10    2.96    4.51
  -6  -1 -10    4.47    4.13
  -6  -1 -11  484.58   29.45
  -6  -1 -11  423.60   18.12
  -6  -1 -11  435.42   11.60
  -6  -1 -12   86.47    8.67
  -6  -1 -12   85.12    7.78
  -6  -1 -12   91.15    4.38
  -6  -1 -13  302.38   16.24
  -6  -1 -13  256.17   14.81
  -6  -1 -13  302.55    9.04
  -6  -1 -14   -7.06    5.25
  -6  -1 -14  -14.88    8.18
  -6  -1 -14    1.38    2.61
  -6  -1 -15   93.66   10.48
  -6  -1 -15  120.17    9.47
  -6  -1 -15   97.14    5.29
  -6  -1 -16    2.87    6.16
  -6  -1 -16   -7.07    9.83
  -6  -1 -16    8.51    4.87
  -6  -1 -17   76.42    9.14
  -6  -1 -17   83.40    9.98
  -6  -1 -18    5.16   11.66
  -6  -1 -18    8.61    3.80
  -6  -1 -19   16.33    7.76
  -6  -1 -19   13.72    4.27
   6   2 -25   21.16   16.73
  -6  -2  25   18.83   10.07
   6   2 -24   44.08   20.61
  -6  -2  24   73.00   12.54
   6   2 -23   -6.79   13.57
  -6  -2  23   -5.85   13.50
   6   2 -22   14.81   12.63
  -6  -2  22    1.99    7.65
   6   2 -21   13.69    7.59
  -6  -2  21    1.81   12.62
   6   2 -20    6.05    7.55
  -6  -2  20   24.33    7.48
   6   2 -19    3.13    6.56
  -6  -2  19    8.06    6.74
   6   2 -18   30.44    7.08
  -6  -2  18   13.41    7.49
   6   2 -17    1.17    5.75
  -6  -2  17    3.77    5.84
   6   2 -16   -1.36    9.45
  -6  -2  16    9.32    5.88
   6   2 -15  403.20   19.57
  -6  -2  15  398.55   30.45
   6   2 -14  123.88    9.66
  -6  -2  14  124.36   10.16
   6   2 -13   11.41    4.94
  -6  -2  13    4.32    5.07
   6   2 -12  207.05   11.46
  -6  -2  12  224.01   11.91
   6   2 -11  418.77   17.32
  -6  -2  11  407.92   17.61
   6   2 -10  530.39   19.94
  -6  -2  10  517.65   20.07
   6   2  -9   45.56    5.28
  -6  -2   9   30.27    5.39
   6   2  -8   14.66    4.09
  -6  -2   8   10.60    4.36
   6   2  -7   40.44    5.02
  -6  -2   7   49.61    5.18
   6   2  -6  106.47    6.49
  -6  -2   6  106.19    6.41
   6   2  -5   13.58    3.82
  -6  -2   5   19.87    6.42
   6   2  -4  297.77   11.10
  -6  -2   4  328.67   11.50
   6   2  -3    2.49    3.27
  -6  -2   3    6.97    3.25
   6   2  -2  430.90   14.09
  -6  -2   2  447.51   14.49
   6   2  -1  168.08    7.49
  -6  -2   1  169.52    7.74
   6   2   0  654.25   14.91
   6   2   0  667.98   20.77
  -6  -2   0  662.51   28.61
   6   2   1    6.88    1.69
  -6  -2  -1    2.33    3.30
   6   2   2    9.22    2.93
  -6  -2  -2   12.46    3.55
   6   2   3  150.65    6.14
  -6  -2  -3  150.71    7.22
   6   2   4   98.22    3.39
  -6  -2  -4  103.99    6.19
   6   2   5   85.89    5.16
  -6  -2  -5   72.54    5.98
   6   2   6  613.81   19.02
  -6  -2  -6  621.88   21.52
  -6  -2  -6  586.78   19.65
   6   2   7   37.19    2.98
  -6  -2  -7   29.44    5.12
  -6  -2  -7   43.89    4.65
  -6  -2  -8   54.60    5.86
  -6  -2  -8   53.79    5.45
  -6  -2  -9   39.95    5.54
  -6  -2  -9   35.99    8.57
  -6  -2 -10   58.86    6.52
  -6  -2 -10   55.33    5.83
  -6  -2 -11   -0.83    4.28
  -6  -2 -11    1.58    3.97
  -6  -2 -12  109.74   14.05
  -6  -2 -12   98.35   13.59
  -6  -2 -12  103.29    5.00
  -6  -2 -13   10.81    5.47
  -6  -2 -13    7.33    3.09
  -6  -2 -13   16.74    5.00
  -6  -2 -14    8.14    5.74
  -6  -2 -14   11.83    5.43
  -6  -2 -14   10.05    5.40
  -6  -2 -15   17.69    7.38
  -6  -2 -15   39.15    6.91
  -6  -2 -15   40.85    4.20
  -6  -2 -16   28.55    7.53
  -6  -2 -16   45.57    7.29
  -6  -2 -16   29.73    4.43
  -6  -2 -17    0.08    6.58
  -6  -2 -17   13.32    6.15
  -6  -2 -17    6.33    3.65
  -6  -2 -18   21.11    7.84
  -6  -2 -18   33.54    7.73
  -6  -2 -18   16.42    4.46
   6   3 -25   24.31   10.80
  -6  -3  25   28.50   10.54
   6   3 -24    3.71    9.36
  -6  -3  24   24.31    9.25
   6   3 -23   36.98   16.91
  -6  -3  23   34.54   17.23
   6   3 -22   31.50   15.73
  -6  -3  22   27.67    9.49
   6   3 -21   38.04   17.09
  -6  -3  21   67.83   10.74
   6   3 -20   21.66    8.07
  -6  -3  20   24.04    7.84
   6   3 -19    2.31    6.47
  -6  -3  19    9.73    6.65
   6   3 -18   48.98    8.61
  -6  -3  18   62.35    8.97
   6   3 -17  227.48   14.73
  -6  -3  17  202.68   14.85
   6   3 -16   42.10    7.74
  -6  -3  16   55.95    7.88
   6   3 -15    0.43    5.06
  -6  -3  15    3.53    5.38
   6   3 -14  191.35   11.32
  -6  -3  14  163.24   11.66
   6   3 -13   10.47    5.05
  -6  -3  13   17.68    9.19
   6   3 -12   87.47    7.34
  -6  -3  12   75.91    7.67
   6   3 -11  590.50   23.53
  -6  -3  11  625.18   23.96
   6   3 -10  575.68   22.09
  -6  -3  10  614.85   23.17
   6   3  -9  588.62   21.58
  -6  -3   9  608.63   22.20
   6   3  -8  185.01    9.02
  -6  -3   8  177.72    9.19
   6   3  -7  409.20   14.78
  -6  -3   7  441.75   22.97
   6   3  -6  127.66    7.38
  -6  -3   6  157.43    7.70
   6   3  -5  157.93    7.22
  -6  -3   5  143.03    7.59
   6   3  -4    8.40    3.40
  -6  -3   4    9.95    3.54
   6   3  -3    4.33    3.27
  -6  -3   3    7.10    3.23
   6   3  -2    8.46    3.22
  -6  -3   2    7.06    5.67
   6   3  -1  270.36   10.23
  -6  -3   1  293.73   10.30
   6   3   0   97.51    5.67
   6   3   0   91.68    5.98
  -6  -3   0  101.84    5.73
   6   3   1  143.35    4.52
  -6  -3  -1  155.09    6.92
   6   3   2  132.79    6.67
  -6  -3  -2  144.97   10.75
   6   3   3   69.88    3.29
  -6  -3  -3   72.83    5.25
   6   3   4  250.79    9.81
  -6  -3  -4  271.13   10.02
   6   3   5   -0.08    1.97
  -6  -3  -5   -3.00    5.23
  -6  -3  -5    1.25    3.02
   6   3   6    0.51    2.04
  -6  -3  -6    0.38    3.30
  -6  -3  -6   -5.08    5.22
   6   3   7   37.73    3.15
  -6  -3  -7   25.97    8.07
  -6  -3  -7   38.71    4.35
   6   3   8   39.49    3.50
  -6  -3  -8   44.80    5.25
  -6  -3  -8   32.30    4.78
  -6  -3  -9   15.76    4.64
  -6  -3  -9   20.92    4.25
  -6  -3 -10   73.08    6.89
  -6  -3 -10   67.10   10.45
  -6  -3 -11   12.89    4.83
  -6  -3 -11   11.98    4.48
  -6  -3 -12    5.51    4.47
  -6  -3 -12    0.80    4.38
  -6  -3 -12    2.60    2.84
  -6  -3 -13    6.01    9.80
  -6  -3 -13   20.83    9.25
  -6  -3 -13   26.43    3.84
  -6  -3 -14   55.97   13.02
  -6  -3 -14   53.10    7.42
  -6  -3 -14   71.02    5.25
  -6  -3 -15   -0.71    5.41
  -6  -3 -15    4.80    5.13
  -6  -3 -15    1.95    5.77
  -6  -3 -16    1.33    5.61
  -6  -3 -16   -1.13    6.03
  -6  -3 -16    4.68    5.35
  -6  -3 -17   79.22    9.84
  -6  -3 -17   68.81    9.62
  -6  -3 -17   71.95    6.41
  -6  -3 -18    7.59    6.81
  -6  -3 -18    9.30    6.72
  -6  -3 -18    6.63    4.38
   6   4 -25   20.86   10.43
  -6  -4  25   32.28   10.71
   6   4 -24    3.67    8.57
  -6  -4  24    6.32    8.59
   6   4 -23    7.53    8.76
  -6  -4  23   24.61   14.64
   6   4 -22   12.14    7.64
  -6  -4  22    1.10    7.89
   6   4 -21   17.11   11.68
  -6  -4  21   -2.84    7.18
   6   4 -20   24.24   13.49
  -6  -4  20   28.80    8.21
   6   4 -19   14.88    6.62
  -6  -4  19   -2.32    6.68
   6   4 -18   85.86   10.22
  -6  -4  18   85.75   10.61
   6   4 -17  267.59   15.84
  -6  -4  17  238.61   16.49
   6   4 -16  347.68   18.10
  -6  -4  16  341.17   19.07
   6   4 -15  281.60   15.45
  -6  -4  15  315.66   16.73
   6   4 -14  126.88    9.57
  -6  -4  14  146.44   10.14
   6   4 -13    4.03    4.50
  -6  -4  13    1.68    4.76
   6   4 -12   62.77    6.68
  -6  -4  12   66.15    7.13
   6   4 -11  133.52    8.53
  -6  -4  11  140.18   14.73
   6   4 -10  216.70   10.57
  -6  -4  10  226.82   11.18
   6   4  -9   86.03    6.58
  -6  -4   9   93.68    6.90
   6   4  -8  186.35    8.99
  -6  -4   8  205.47   14.98
   6   4  -7  221.78    9.70
  -6  -4   7  238.48   10.26
   6   4  -6  426.48   21.50
  -6  -4   6  432.88   15.38
   6   4  -5  180.20    7.97
  -6  -4   5  167.80    8.00
   6   4  -4    4.98    3.10
  -6  -4   4    4.10    5.51
   6   4  -3  153.55    7.04
  -6  -4   3  167.22    7.29
   6   4  -2  145.96    6.85
  -6  -4   2  146.44    6.92
   6   4  -1   33.54    3.17
   6   4  -1   38.40    4.02
  -6  -4   1   42.84    4.09
   6   4   0  133.96    6.23
   6   4   0  117.48    4.64
  -6  -4   0  130.60    6.13
   6   4   1    0.99    3.73
  -6  -4  -1    8.09    5.08
   6   4   2    0.86    2.05
  -6  -4  -2   -2.04    2.88
   6   4   3  198.14    6.17
  -6  -4  -3  198.05    8.25
   6   4   4   18.75    2.71
  -6  -4  -4   35.19    6.39
   6   4   5   22.09    2.85
  -6  -4  -5   25.59    3.86
  -6  -4  -5   21.96    3.74
   6   4   6   62.55    5.99
  -6  -4  -6   50.39    8.23
  -6  -4  -6   47.90    4.59
   6   4   7    7.75    4.32
  -6  -4  -7    1.28    3.58
  -6  -4  -7    6.02    3.37
   6   4   8    5.99    2.72
  -6  -4  -8    7.49    6.18
  -6  -4  -8    1.93    5.74
   6   4   9   47.53    4.42
  -6  -4  -9   56.68    5.70
  -6  -4  -9   58.33    5.25
  -6  -4 -10   -4.30    3.78
  -6  -4 -10    0.89    3.65
  -6  -4 -11    1.97    7.33
  -6  -4 -11    8.22    6.93
  -6  -4 -12  139.68    8.66
  -6  -4 -12  117.06    9.27
  -6  -4 -13    1.94    4.79
  -6  -4 -13    9.44    4.57
  -6  -4 -13    0.20    3.35
  -6  -4 -14   24.01    6.35
  -6  -4 -14   25.33    9.87
  -6  -4 -14   27.84    4.53
  -6  -4 -15    0.80    5.37
  -6  -4 -15   12.30    5.20
  -6  -4 -15    1.29    3.89
  -6  -4 -16   11.07   11.88
  -6  -4 -16   43.16   12.03
  -6  -4 -16   34.00    5.34
  -6  -4 -17    1.29   10.69
  -6  -4 -17   15.60    6.52
  -6  -4 -17    8.33    4.69
   6   5 -25   13.69    9.89
  -6  -5  25   26.46   16.71
   6   5 -24   46.73   12.02
  -6  -5  24   65.89   12.15
   6   5 -23   76.63   13.24
  -6  -5  23  110.49   13.92
   6   5 -22  156.86   16.05
  -6  -5  22  175.58   16.33
   6   5 -21   22.61   12.17
  -6  -5  21    1.63    7.75
   6   5 -20  -12.89   11.10
  -6  -5  20    6.05   11.50
   6   5 -19   14.20    6.82
  -6  -5  19    8.11    7.10
   6   5 -18   25.54    7.09
  -6  -5  18   16.76   12.43
   6   5 -17   61.64    9.09
  -6  -5  17   88.92    9.58
   6   5 -16  194.64   12.83
  -6  -5  16  195.93   21.97
   6   5 -15   91.66    8.73
  -6  -5  15   92.34    9.44
   6   5 -14   99.18    8.17
  -6  -5  14   84.11   14.73
   6   5 -13  169.20   10.54
  -6  -5  13  188.88   11.27
   6   5 -12   79.00    7.24
  -6  -5  12  100.56   12.50
   6   5 -11   30.25    5.24
  -6  -5  11   37.81    5.60
   6   5 -10    0.75    3.60
  -6  -5  10    1.34    3.96
   6   5  -9   23.73    7.63
  -6  -5   9   35.45    8.21
   6   5  -8    7.20    3.65
  -6  -5   8    6.06    3.84
   6   5  -7   20.41    4.17
  -6  -5   7   27.86    4.44
   6   5  -6  355.19   12.82
  -6  -5   6  380.80   19.90
   6   5  -5  349.04   18.36
  -6  -5   5  367.64   13.05
   6   5  -4  240.21   13.76
  -6  -5   4  248.11    9.62
   6   5  -3   23.93    3.62
  -6  -5   3   16.70    3.75
   6   5  -2   19.83    5.52
  -6  -5   2   10.27    5.73
   6   5  -1   24.12    3.33
   6   5  -1   29.67    6.06
  -6  -5   1   42.02    6.13
   6   5   0   -2.40    2.93
   6   5   0    7.94    4.09
  -6  -5   0    8.69    2.97
   6   5   1   68.44    6.83
  -6  -5  -1   89.69    5.06
   6   5   2    5.12    2.50
  -6  -5  -2    5.43    2.96
   6   5   3   16.65    2.78
  -6  -5  -3    9.67    3.34
   6   5   4    0.24    2.35
  -6  -5  -4    1.72    2.94
   6   5   5  145.32    5.92
  -6  -5  -5  170.55   10.71
  -6  -5  -5  147.22   10.19
   6   5   6  146.64    6.20
  -6  -5  -6  141.54    7.03
  -6  -5  -6  145.71    6.59
   6   5   7  102.06    5.42
  -6  -5  -7   88.40   10.16
  -6  -5  -7  101.23    5.97
   6   5   8    2.85    3.19
  -6  -5  -8   16.31    3.86
  -6  -5  -8   12.77    3.61
   6   5   9    1.76    3.20
  -6  -5  -9    1.84    6.07
  -6  -5  -9    3.55    3.50
   6   5  10    3.66    3.46
  -6  -5 -10    1.05    3.80
  -6  -5 -10    1.39    6.12
  -6  -5 -11  134.36    8.26
  -6  -5 -11  105.78    7.93
  -6  -5 -12   67.83    6.93
  -6  -5 -12   70.85    6.85
  -6  -5 -13  169.39   16.12
  -6  -5 -13  154.51    9.89
  -6  -5 -14    2.09    4.84
  -6  -5 -14    4.80    4.89
  -6  -5 -15   21.56    6.35
  -6  -5 -15   41.56   10.40
  -6  -5 -15   23.50    5.17
  -6  -5 -16   -1.73    5.20
  -6  -5 -16   -5.60    5.47
  -6  -5 -16    1.29    4.26
   6   6 -25   19.07    9.51
  -6  -6  25   -5.89   16.33
   6   6 -24    0.47    8.17
  -6  -6  24    9.17    8.45
   6   6 -23  112.14   13.93
  -6  -6  23   95.44   14.10
   6   6 -22   34.32    9.71
  -6  -6  22   35.27   16.49
   6   6 -21  108.14   20.12
  -6  -6  21  100.25   12.93
   6   6 -20   -1.63   10.53
  -6  -6  20   -1.48    6.68
   6   6 -19    0.98    6.00
  -6  -6  19    3.27    6.35
   6   6 -18   13.69    6.40
  -6  -6  18   10.91    6.80
   6   6 -17   -8.91    5.68
  -6  -6  17   -0.96    6.03
   6   6 -16    3.42    5.32
  -6  -6  16    5.56    5.72
   6   6 -15    4.69    4.99
  -6  -6  15    4.02    5.22
   6   6 -14   33.02    6.10
  -6  -6  14   29.59    6.52
   6   6 -13   17.02    8.54
  -6  -6  13   17.27    5.57
   6   6 -12  251.54   12.28
  -6  -6  12  264.21   13.29
   6   6 -11  327.49   14.16
  -6  -6  11  339.47   14.84
   6   6 -10  102.32    7.09
  -6  -6  10  110.84    7.69
   6   6  -9   -0.92    5.81
  -6  -6   9   -0.92    3.69
   6   6  -8   83.01    5.78
  -6  -6   8   80.37    6.11
   6   6  -7    9.33    3.56
  -6  -6   7    8.39    3.75
   6   6  -6  100.72    6.38
  -6  -6   6  123.80    6.58
   6   6  -5  502.27   16.68
  -6  -6   5  558.29   17.84
   6   6  -4  214.48    8.36
  -6  -6   4  208.63   13.50
   6   6  -3  481.65   15.91
  -6  -6   3  541.93   16.68
   6   6  -2  331.03   11.31
   6   6  -2  326.32   11.28
  -6  -6   2  369.66   11.57
   6   6  -1  137.28    6.39
   6   6  -1  135.91    6.35
  -6  -6   1  145.73    6.32
   6   6   0  390.71   12.20
  -6  -6   0  411.45   18.26
   6   6   1  186.81    7.45
  -6  -6  -1  209.49    7.87
   6   6   2  123.06    5.67
  -6  -6  -2  130.03    6.08
   6   6   3   -1.29    2.74
  -6  -6  -3    6.00    2.86
   6   6   4   42.63    3.90
  -6  -6  -4   46.79    6.73
  -6  -6  -4   38.41    3.84
   6   6   5  115.93    5.89
  -6  -6  -5  132.23    6.36
  -6  -6  -5  113.89    5.72
   6   6   6  321.72   10.84
  -6  -6  -6  310.92   16.26
  -6  -6  -6  299.59   10.60
   6   6   7  360.45   12.79
  -6  -6  -7  371.67   13.18
  -6  -6  -7  377.94   18.87
   6   6   8  114.94    9.77
  -6  -6  -8   92.06   10.06
  -6  -6  -8  102.42    9.77
   6   6   9   10.33    3.43
  -6  -6  -9    5.92    3.66
  -6  -6  -9    0.06    3.56
   6   6  10    2.77    3.61
  -6  -6 -10   -0.45    3.69
  -6  -6 -10    2.52    3.70
  -6  -6 -11    3.28    6.62
  -6  -6 -11    5.30    6.74
  -6  -6 -12  105.10    7.63
  -6  -6 -12   90.19    7.30
  -6  -6 -13    6.27    4.63
  -6  -6 -13    6.68    4.74
  -6  -6 -14   13.75    5.25
  -6  -6 -14    9.88    8.76
  -6  -6 -15    4.26    8.39
  -6  -6 -15    7.94    5.37
  -6  -6 -16   35.51   10.58
  -6  -6 -16   13.69   11.11
   6   7 -25   31.13   10.41
  -6  -7  25   21.81   10.91
   6   7 -24   14.00    8.22
  -6  -7  24   -6.26    8.36
   6   7 -23    6.13    8.05
  -6  -7  23    4.02    8.16
   6   7 -22   11.30    8.11
  -6  -7  22   18.83   14.29
   6   7 -21    7.27   10.94
  -6  -7  21   -4.77    6.87
   6   7 -20   14.25   12.22
  -6  -7  20   19.18    7.88
   6   7 -19   12.49    6.57
  -6  -7  19   11.20   11.94
   6   7 -18   17.54    6.83
  -6  -7  18   29.31    7.43
   6   7 -17   14.53    6.07
  -6  -7  17   16.23   11.23
   6   7 -16    3.80    8.38
  -6  -7  16    0.90    5.47
   6   7 -15   99.78    9.35
  -6  -7  15  139.68   10.26
   6   7 -14    8.95    5.30
  -6  -7  14   21.00    5.71
   6   7 -13   23.92    9.19
  -6  -7  13   39.09    6.29
   6   7 -12   52.77    6.04
  -6  -7  12   59.11    6.83
   6   7 -11  444.70   26.46
  -6  -7  11  504.42   20.01
   6   7 -10  661.56   24.41
  -6  -7  10  709.80   26.26
   6   7  -9  229.41   10.29
  -6  -7   9  268.45   17.19
   6   7  -8  101.53   10.16
  -6  -7   8  103.39    6.87
   6   7  -7   10.00    3.52
  -6  -7   7    8.97    3.73
   6   7  -6  147.84    7.13
  -6  -7   6  163.09   11.78
   6   7  -5   99.13    5.44
  -6  -7   5   93.19    5.84
   6   7  -4  438.64   14.41
  -6  -7   4  469.48   15.02
   6   7  -3  128.62    6.09
  -6  -7   3  129.49    6.30
   6   7  -2  212.44    8.57
   6   7  -2  186.55    7.66
  -6  -7   2  205.30   12.05
   6   7  -1  563.97   17.45
   6   7  -1  552.17   17.87
  -6  -7   1  580.09   17.70
   6   7   0  474.62   15.96
  -6  -7   0  493.57   15.01
   6   7   1  357.89   12.42
  -6  -7  -1  376.75   11.70
   6   7   2   17.58    3.50
  -6  -7  -2   10.95    5.32
   6   7   3   17.51    3.58
  -6  -7  -3   22.61    3.36
   6   7   4   68.11    4.97
  -6  -7  -4   64.35    6.92
  -6  -7  -4   74.02    4.72
   6   7   5    3.09    2.97
  -6  -7  -5   -2.25    4.19
  -6  -7  -5   -0.67    2.79
   6   7   6  169.55    7.83
  -6  -7  -6  158.03    7.44
  -6  -7  -6  176.42    7.03
   6   7   7  127.51   10.49
  -6  -7  -7  112.31    6.09
  -6  -7  -7  119.70    9.98
   6   7   8    3.73    3.37
  -6  -7  -8   -2.73    3.11
  -6  -7  -8    4.97    3.12
   6   7   9    5.31    3.55
  -6  -7  -9    6.74    3.25
  -6  -7  -9   -6.68    3.38
   6   7  10   15.19    4.48
  -6  -7 -10   12.71    6.66
  -6  -7 -10    9.52    6.69
   6   7  11   -1.88    4.02
  -6  -7 -11    2.23    3.47
  -6  -7 -11   -0.17    3.66
  -6  -7 -12    5.05    4.07
  -6  -7 -12    1.36    4.21
  -6  -7 -13    8.42    7.68
  -6  -7 -13   15.05    8.03
  -6  -7 -14    6.76    4.54
  -6  -7 -14    3.87    5.06
  -6  -7 -15    7.59    4.91
  -6  -7 -15    5.32    8.85
   6   8 -25   10.35    8.47
  -6  -8  25   -6.16    8.69
   6   8 -24   15.97    9.64
  -6  -8  24   33.44   16.75
   6   8 -23   -9.10    7.24
  -6  -8  23    8.46    7.43
   6   8 -22    3.99   13.26
  -6  -8  22   17.38    8.54
   6   8 -21   -0.04   11.34
  -6  -8  21    8.85   12.19
   6   8 -20   16.89    7.42
  -6  -8  20   21.64    7.89
   6   8 -19   29.35    7.55
  -6  -8  19   29.33    8.45
   6   8 -18   30.53    7.53
  -6  -8  18   35.78    7.80
   6   8 -17  184.42   13.03
  -6  -8  17  199.01   14.33
   6   8 -16   53.08   12.13
  -6  -8  16   44.99   13.47
   6   8 -15   71.97    7.43
  -6  -8  15   65.87    8.36
   6   8 -14   60.16    6.88
  -6  -8  14   76.40   12.81
   6   8 -13    2.08    4.22
  -6  -8  13    7.06    4.83
   6   8 -12    5.11    3.88
  -6  -8  12   -3.40    7.54
   6   8 -11   76.07    6.34
  -6  -8  11   78.68    6.98
   6   8 -10  181.47    9.06
  -6  -8  10  186.00   15.66
   6   8  -9  417.84   15.41
  -6  -8   9  418.80   16.44
   6   8  -8  219.74    9.34
  -6  -8   8  226.25   10.07
   6   8  -7  229.82   13.63
  -6  -8   7  224.40    9.86
   6   8  -6   49.39    7.19
  -6  -8   6   43.90    4.65
   6   8  -5   82.98    4.98
  -6  -8   5   81.77    8.77
   6   8  -4    0.83    4.65
  -6  -8   4    3.56    2.99
   6   8  -3   -2.34    3.40
   6   8  -3   -1.96    4.33
  -6  -8   3    3.63    2.73
   6   8  -2    2.29    4.87
   6   8  -2    5.86    3.67
  -6  -8   2    7.36    2.91
   6   8  -1   33.19    4.57
  -6  -8   1   33.38    6.05
   6   8   0  245.46   16.37
  -6  -8   0  276.01    9.21
   6   8   1  202.69   13.50
  -6  -8  -1  202.41    7.39
   6   8   2   58.12    5.03
  -6  -8  -2   56.72    6.58
   6   8   3   61.18    5.01
  -6  -8  -3   65.62    4.25
  -6  -8  -3   56.18    3.77
   6   8   4  132.60    7.22
  -6  -8  -4  135.89    6.12
  -6  -8  -4  144.68    5.57
   6   8   5   25.46    4.21
  -6  -8  -5   21.62    5.62
  -6  -8  -5   19.77    3.16
   6   8   6   -0.65    5.75
  -6  -8  -6   -1.91    2.78
  -6  -8  -6   -0.65    2.76
   6   8   7   -2.94    3.46
  -6  -8  -7    1.58    4.75
  -6  -8  -7   -0.27    2.87
   6   8   8   -0.09    3.65
  -6  -8  -8    1.63    2.98
  -6  -8  -8    1.11    3.08
   6   8   9   16.21    4.50
  -6  -8  -9   17.11    6.19
  -6  -8  -9   18.17    6.35
   6   8  10   -4.75    6.65
  -6  -8 -10   -2.15    3.58
  -6  -8 -10   -1.78    3.31
   6   8  11    7.20    4.46
  -6  -8 -11    2.13    3.82
  -6  -8 -11   -0.47    3.42
  -6  -8 -12    6.99    6.78
  -6  -8 -12   12.47    7.32
  -6  -8 -13    1.20    4.08
  -6  -8 -13    4.65    4.54
  -6  -8 -14    2.59    4.22
  -6  -8 -14    2.53    4.68
   6   9 -24   70.27   12.45
  -6  -9  24   69.02   12.95
   6   9 -23   12.94    8.33
  -6  -9  23    7.53    8.73
   6   9 -22   51.25   18.23
  -6  -9  22   75.90   11.82
   6   9 -21    1.56    6.96
  -6  -9  21   11.02    7.42
   6   9 -20   -1.76    6.18
  -6  -9  20   -1.74    6.67
   6   9 -19    4.55    6.22
  -6  -9  19    8.09    6.76
   6   9 -18   52.16    8.23
  -6  -9  18   57.93   14.97
   6   9 -17   66.88   14.13
  -6  -9  17   80.64    9.64
   6   9 -16  298.96   16.60
  -6  -9  16  345.74   18.30
   6   9 -15   67.26    7.09
  -6  -9  15   38.58    7.63
   6   9 -14   61.97   11.81
  -6  -9  14   83.12    8.11
   6   9 -13   40.79    5.77
  -6  -9  13   57.13   10.78
   6   9 -12   10.21    4.17
  -6  -9  12    9.72    4.73
   6   9 -11   16.33    4.20
  -6  -9  11   12.13    7.88
   6   9 -10   -2.32    5.77
  -6  -9  10   -4.98    3.95
   6   9  -9    3.30    3.33
  -6  -9   9   -2.22    6.05
   6   9  -8   48.48    4.79
  -6  -9   8   60.01    5.21
   6   9  -7   37.01    4.26
  -6  -9   7   44.47    7.51
   6   9  -6  143.78    6.60
  -6  -9   6  151.90    7.17
   6   9  -5   49.98    4.24
  -6  -9   5   55.16    4.47
   6   9  -4    8.15    4.07
   6   9  -4    5.55    2.92
  -6  -9   4    9.35    5.12
   6   9  -3  157.84   13.33
   6   9  -3  137.88    6.12
  -6  -9   3  144.17    6.39
   6   9  -2  185.08    6.96
   6   9  -2  179.29    8.86
  -6  -9   2  186.95    7.16
   6   9  -1   52.70    5.43
  -6  -9   1   59.08    6.54
   6   9   0   50.47    4.82
  -6  -9   0   29.74    3.50
   6   9   1  122.28    7.60
  -6  -9  -1  141.95    5.66
   6   9   2   41.35    8.03
  -6  -9  -2   37.39    3.58
  -6  -9  -2   47.83    3.34
   6   9   3    6.05    3.60
  -6  -9  -3    4.37    2.38
  -6  -9  -3    4.18    4.30
   6   9   4   14.52    4.11
  -6  -9  -4    7.20    2.90
  -6  -9  -4   14.84    2.74
   6   9   5   19.43    4.17
  -6  -9  -5   13.74    2.87
  -6  -9  -5   10.39    3.00
   6   9   6    2.54    6.43
  -6  -9  -6    6.36    2.78
  -6  -9  -6    1.47    2.83
   6   9   7   -2.00    3.71
  -6  -9  -7   -0.23    2.70
  -6  -9  -7    1.84    4.61
   6   9   8   -2.69    3.87
  -6  -9  -8    1.53    2.81
  -6  -9  -8   -0.28    4.76
   6   9   9    1.59    4.10
  -6  -9  -9   -0.73    3.04
  -6  -9  -9   -2.84    3.19
   6   9  10   -0.31    4.11
  -6  -9 -10   -1.51    3.04
  -6  -9 -10    2.02    3.34
   6   9  11    7.41    4.93
  -6  -9 -11   -2.71    5.80
  -6  -9 -11    8.53    6.74
   6   9  12    0.94    5.50
  -6  -9 -12    0.93    3.74
  -6  -9 -12   14.28    4.37
  -6  -9 -13    4.39    3.87
  -6  -9 -13    4.46    4.46
   6  10 -24   15.20   16.16
  -6 -10  24   30.01   10.26
   6  10 -23  123.40   24.14
  -6 -10  23  133.99   15.97
   6  10 -22   40.13   15.03
  -6 -10  22   25.04    9.90
   6  10 -21   66.44    9.85
  -6 -10  21   39.20   10.73
   6  10 -20    0.02    6.30
  -6 -10  20   10.93    7.12
   6  10 -19   10.70    5.94
  -6 -10  19   -3.10    6.57
   6  10 -18   22.52    6.60
  -6 -10  18   30.18    7.71
   6  10 -17   24.15   10.93
  -6 -10  17   36.04   12.50
   6  10 -16    1.04    4.71
  -6 -10  16   -0.31    5.36
   6  10 -15  101.71    9.09
  -6 -10  15  145.67   10.27
   6  10 -14    3.46    4.22
  -6 -10  14    3.06    5.05
   6  10 -13   23.29    4.76
  -6 -10  13   18.52    5.65
   6  10 -12   16.10    4.42
  -6 -10  12   22.35    8.62
   6  10 -11    2.32    3.53
  -6 -10  11    3.68    4.09
   6  10 -10   27.58    4.32
  -6 -10  10   25.67    4.92
   6  10  -9   37.72    7.17
  -6 -10   9   34.00    4.93
   6  10  -8  177.29   11.81
  -6 -10   8  167.60    8.34
   6  10  -7    2.16    2.93
  -6 -10   7    0.17    3.16
   6  10  -6   67.37    4.55
  -6 -10   6   69.48    8.17
   6  10  -5  322.90   10.91
  -6 -10   5  328.59   11.50
   6  10  -4   41.62    6.34
   6  10  -4   63.74    6.77
  -6 -10   4   64.00    7.13
   6  10  -3   -0.07    4.23
   6  10  -3    5.36    3.86
  -6 -10   3   -0.18    2.67
   6  10  -2   26.80    4.91
  -6 -10   2   25.88    3.33
   6  10  -1   -4.65    6.42
  -6 -10   1    3.19    4.09
   6  10   0   21.78    4.63
  -6 -10   0   19.10    3.01
   6  10   1   94.40    7.13
  -6 -10  -1   94.02    4.51
   6  10   2   30.78    4.88
  -6 -10  -2   23.54    4.42
  -6 -10  -2   23.18    3.07
   6  10   3   59.37    9.15
  -6 -10  -3   40.96    3.41
  -6 -10  -3   59.35    5.69
   6  10   4   21.77    4.54
  -6 -10  -4   16.80    2.77
  -6 -10  -4   16.12    2.87
   6  10   5   30.64    4.99
  -6 -10  -5   24.06    3.24
  -6 -10  -5   21.55    5.16
   6  10   6   37.45    8.71
  -6 -10  -6   29.45    3.45
  -6 -10  -6   22.20    3.26
   6  10   7   62.35    6.04
  -6 -10  -7   28.44    6.84
  -6 -10  -7   43.92    3.79
   6  10   8   15.88    4.73
  -6 -10  -8    1.96    5.32
  -6 -10  -8    6.38    3.01
   6  10   9    1.48    7.18
  -6 -10  -9    1.96    3.08
  -6 -10  -9   -1.36    2.76
   6  10  10   -1.97    4.58
  -6 -10 -10    1.82    3.43
  -6 -10 -10   -3.23    2.95
   6  10  11    3.28    5.14
   6  11 -23    7.69    8.17
  -6 -11  23   15.57    8.70
   6  11 -22   99.82   12.62
  -6 -11  22  121.75   22.84
   6  11 -21   39.20    8.54
  -6 -11  21   29.13    9.51
   6  11 -20   15.49    8.07
  -6 -11  20   53.60    8.98
   6  11 -19    6.22    6.66
  -6 -11  19   25.90    7.54
   6  11 -18    6.37    9.16
  -6 -11  18   -7.13    6.13
   6  11 -17   36.52    7.29
  -6 -11  17   47.84    8.07
   6  11 -16    3.91    4.61
  -6 -11  16   -7.50    5.35
   6  11 -15   25.84    8.46
  -6 -11  15    7.79    6.03
   6  11 -14   31.28    5.37
  -6 -11  14   30.58    6.37
   6  11 -13   -0.83    6.27
  -6 -11  13   -1.26    7.52
  -6 -11  13    3.84    7.48
   6  11 -12   79.35    6.41
  -6 -11  12   87.81    7.50
   6  11 -11   22.51    7.42
  -6 -11  11   33.52    5.39
   6  11 -10   55.81    5.33
  -6 -11  10   64.42    5.97
   6  11  -9    9.28    3.36
  -6 -11   9   -0.10    3.82
   6  11  -8    1.37    3.16
  -6 -11   8   12.08    5.90
   6  11  -7   12.40    3.30
  -6 -11   7   13.93    3.67
   6  11  -6   53.74    4.31
  -6 -11   6   57.55    7.46
   6  11  -5   97.72    7.69
   6  11  -5   72.79    4.69
  -6 -11   5   69.44    4.94
   6  11  -4  331.86   10.77
   6  11  -4  361.90   15.69
  -6 -11   4  338.77   11.12
   6  11  -3  140.44    5.74
   6  11  -3  150.60    9.06
  -6 -11   3  142.07    6.21
   6  11  -2  117.63    8.43
  -6 -11   2  118.27    5.29
   6  11  -1   34.73    5.61
  -6 -11   1   22.80    5.16
   6  11   0  122.72   13.23
  -6 -11   0  116.37    5.08
   6  11   1   43.53    5.75
  -6 -11  -1   35.31    3.22
  -6 -11  -1   32.80    4.53
   6  11   2  106.86    7.96
  -6 -11  -2  101.42    6.99
  -6 -11  -2  102.10    6.56
   6  11   3   34.75    9.36
  -6 -11  -3   36.05    3.09
  -6 -11  -3   35.48    2.95
   6  11   4   17.06    5.06
  -6 -11  -4   21.79    2.70
  -6 -11  -4   14.77    2.74
   6  11   5    9.16    4.77
  -6 -11  -5   11.22    2.73
  -6 -11  -5    6.05    4.20
   6  11   6   92.95   12.74
  -6 -11  -6   87.20    4.69
  -6 -11  -6   80.47    4.30
   6  11   7   75.36    7.61
  -6 -11  -7   71.70    7.43
  -6 -11  -7   71.73    6.60
   6  11   8   30.63    6.22
   6  11   9   -8.18    8.87
   6  11  10   -5.81    5.26
   6  12 -23    4.98    6.92
  -6 -12  23   -6.01    7.64
   6  12 -22   -4.37    6.65
  -6 -12  22    6.07    7.26
   6  12 -21   39.06    9.05
  -6 -12  21   48.55   10.04
   6  12 -20    4.28    6.10
  -6 -12  20    1.25    6.82
   6  12 -19   53.75   14.11
  -6 -12  19   60.73    9.85
   6  12 -18   -3.13    5.57
  -6 -12  18   -4.15    6.22
   6  12 -17   64.98    7.50
  -6 -12  17   38.54   14.55
   6  12 -16    7.57    7.68
  -6 -12  16   -6.00    5.50
   6  12 -15   21.18    5.59
  -6 -12  15   38.76    6.71
   6  12 -14    3.35    4.12
  -6 -12  14    2.96    8.35
   6  12 -13   16.77    4.62
  -6 -12  13   20.30    5.50
   6  12 -12   11.48    4.06
  -6 -12  12    7.78    4.82
   6  12 -11  233.65   10.33
  -6 -12  11  220.31   18.44
   6  12 -10   89.59    6.38
  -6 -12  10  120.31    7.59
   6  12  -9  119.19   10.60
  -6 -12   9  139.45   12.41
   6  12  -8   16.85    5.64
  -6 -12   8   11.99    3.90
   6  12  -7   28.55    5.58
  -6 -12   7   15.55    3.99
   6  12  -6    2.46    4.95
   6  12  -6    2.76    4.72
  -6 -12   6    7.84    5.22
   6  12  -5   96.95    8.34
   6  12  -5  110.87   14.95
  -6 -12   5  119.40    5.84
   6  12  -4   19.76    3.05
   6  12  -4   19.33    5.46
  -6 -12   4   20.30    5.33
   6  12  -3  101.09    8.01
  -6 -12   3   77.47    4.65
   6  12  -2   42.19   10.20
  -6 -12   2   29.39    5.34
   6  12  -1  130.54    9.55
  -6 -12   1  132.86    5.22
   6  12   0   43.44    6.28
  -6 -12   0   33.41    3.12
  -6 -12   0   40.13    2.62
   6  12   1  187.48   15.80
  -6 -12  -1  150.59    7.74
  -6 -12  -1  127.15    6.73
   6  12   2   60.11    6.43
  -6 -12  -2   40.67    3.02
  -6 -12  -2   39.83    2.84
   6  12   3    6.46    4.73
  -6 -12  -3    4.92    3.51
  -6 -12  -3    5.83    2.09
   6  12   4   11.94    8.33
  -6 -12  -4    6.42    3.65
  -6 -12  -4   10.55    2.24
   6  12   5    0.94    4.64
   6  12   6    3.37    4.96
   6  12   7   37.01    6.67
   6  12   8   13.22    5.88
   6  12   9   16.11   10.36
   6  13 -22   33.31    8.86
  -6 -13  22   33.78    9.96
   6  13 -21   -8.96    6.62
  -6 -13  21    0.82    7.49
   6  13 -20   -0.42   13.41
  -6 -13  20   51.43    9.24
   6  13 -19   -0.69    5.52
  -6 -13  19    2.33   10.49
   6  13 -18   96.37    9.93
  -6 -13  18  109.24   11.42
   6  13 -17   34.64    7.19
  -6 -13  17   59.39    8.56
   6  13 -16  160.45   10.71
  -6 -13  16  177.67   20.76
   6  13 -15   15.21    4.99
  -6 -13  15   11.92    5.98
   6  13 -14   14.32    8.00
  -6 -13  14   21.37    6.08
   6  13 -13   14.25    4.47
  -6 -13  13   14.07    5.46
   6  13 -12   13.91    4.19
  -6 -13  12    6.49    8.22
   6  13 -11    1.38    5.52
  -6 -13  11    0.83    4.10
   6  13 -10  108.15    6.58
  -6 -13  10  119.79    7.94
   6  13  -9   25.83    4.00
  -6 -13   9   26.70    7.69
   6  13  -8   55.06    4.45
  -6 -13   8   59.80    5.42
   6  13  -7   10.92    5.80
   6  13  -7    8.77    3.07
  -6 -13   7   10.24    3.56
   6  13  -6   53.51   12.03
   6  13  -6   41.61    3.74
  -6 -13   6   44.28    7.13
   6  13  -5    6.42    4.29
   6  13  -5   -0.06    5.19
  -6 -13   5    7.89    2.97
   6  13  -4   10.32    5.06
  -6 -13   4   -0.69    4.52
   6  13  -3   21.50    5.64
  -6 -13   3   12.14    2.87
   6  13  -2    5.77    4.76
  -6 -13   2   -0.82    2.24
   6  13  -1   20.57    8.81
  -6 -13   1    6.85    3.74
  -6 -13   1    7.88    1.83
   6  13   0   48.71    6.89
  -6 -13   0   42.32    2.87
  -6 -13   0   48.41    3.99
   6  13   1   39.80    6.69
   6  13   2   52.82    7.36
   6  13   3    0.48    4.83
   6  13   4    8.11    9.05
   6  13   5   18.49    6.08
   6  13   6   17.00    6.17
   6  13   7   -1.23    8.86
   6  14 -20   -0.14    6.21
  -6 -14  20   10.49    7.13
   6  14 -19   23.76    6.82
  -6 -14  19   16.59    7.87
   6  14 -18   -2.14    5.27
  -6 -14  18   -1.59    6.22
   6  14 -17   80.79    8.14
  -6 -14  17   66.58   16.10
   6  14 -16   15.30    5.70
  -6 -14  16   27.87    6.90
   6  14 -15   85.45   13.13
  -6 -14  15  112.41   10.01
   6  14 -14    1.68    4.04
  -6 -14  14    2.90    4.99
   6  14 -13    7.58    7.04
  -6 -14  13   14.14    8.64
   6  14 -12   28.23    4.70
  -6 -14  12   31.56    5.81
   6  14 -11    8.00    3.48
  -6 -14  11   -2.22    4.31
   6  14 -10   29.36    4.39
  -6 -14  10   36.42    5.34
   6  14  -9    0.05    2.95
  -6 -14   9    9.66    6.05
   6  14  -8   25.93    6.21
   6  14  -8    8.55    3.14
  -6 -14   8    6.12    3.72
   6  14  -7   15.19   10.29
   6  14  -7    8.40    2.90
  -6 -14   7    8.59    3.44
   6  14  -6   15.05    2.81
   6  14  -6   10.37    6.10
  -6 -14   6    7.93    5.57
   6  14  -5   12.91    2.64
   6  14  -5   13.38    9.94
  -6 -14   5   17.30    5.20
   6  14  -4    3.27    5.40
  -6 -14   4    2.88    2.50
   6  14  -3   -8.25    5.17
  -6 -14   3    2.74    2.18
   6  14  -2   94.17    9.49
   6  14  -1   23.86    6.53
   6  14   0   12.56    9.92
   6  14   1   43.99    7.39
   6  14   2   19.96   10.66
   6  14   3   22.82    6.71
   6  14   4   14.60    6.23
   6  14   5    7.60    5.97
   6  15 -19   15.16   11.18
  -6 -15  19   26.26   13.19
   6  15 -18    4.60    5.35
  -6 -15  18    8.77    6.71
   6  15 -17   25.07    5.82
  -6 -15  17   16.12    7.30
   6  15 -16   16.66    8.93
  -6 -15  16   19.48    6.82
   6  15 -15   -3.22    4.44
  -6 -15  15   -4.11    9.24
   6  15 -14   25.77    8.46
  -6 -15  14   26.54   10.62
   6  15 -13   -2.09    3.61
  -6 -15  13    2.97    4.59
   6  15 -12    9.50    3.92
  -6 -15  12    5.16    4.79
   6  15 -11   16.41    6.62
  -6 -15  11   17.76    4.97
   6  15 -10    3.10    4.95
  -6 -15  10   -1.57    6.47
   6  15  -9   63.35    8.83
   6  15  -9   34.61    6.99
  -6 -15   9   48.32    8.54
   6  15  -8    3.33   10.60
   6  15  -8    1.71    4.52
  -6 -15   8    4.38    3.40
   6  15  -7   32.90    3.29
   6  15  -7   22.53    7.51
  -6 -15   7   23.06    4.03
   6  15  -6   16.43   10.99
   6  15  -5    1.64    5.75
   6  15  -4   54.34   14.31
   6  15  -3    7.84    6.19
   6  15  -2   -8.98   10.32
   6  15  -1   28.82    7.25
   6  15   0    0.11    5.49
   6  15   1    3.00    5.76
   6  15   2   23.23    7.30
   6  15   3    1.56    9.70
   6  16 -17   11.36    8.89
  -6 -16  17    9.82    6.26
   6  16 -16   14.84    5.16
  -6 -16  16    3.06   10.67
   6  16 -15    9.55    8.36
  -6 -16  15   20.20    6.34
   6  16 -14    0.15    4.07
  -6 -16  14    6.15    5.14
   6  16 -13   26.68    4.93
  -6 -16  13   23.75    6.01
   6  16 -12   -3.08    5.72
  -6 -16  12   -3.73    4.50
   6  16 -11   36.81    7.59
  -6 -16  11   56.61    6.02
   6  16 -10   13.82    6.78
  -6 -16  10   -1.10    3.81
   6  16  -9   46.40   15.82
   6  16  -8   22.75    7.81
   6  16  -7   -7.21   11.00
   6  16  -6   12.75    7.14
   6  16  -5   82.49   10.42
   6  16  -4   12.68    7.04
   6  16  -3   54.46   15.09
   6  16  -2    5.33    6.41
   6  16  -1   13.29   11.62
   6  16   0   -2.65    6.19
   6  17 -14   14.01    4.23
  -6 -17  14    9.88    5.41
  -6 -17  13   -3.44    4.37
   6  17 -12   37.71   10.09
   6  17 -11   -1.50    7.34
   6  17 -10   75.03   19.46
   6  17  -9   29.62    8.97
   6  17  -8   46.92   15.75
   6  17  -7   15.25    7.91
   6  17  -6    7.36    7.32
   6  17  -5   -0.36    6.35
   6  17  -4   18.20    7.91
  -7  19   1    4.77    5.63
  -7  19   0    0.66    3.85
  -7  19   0   12.62    5.23
  -7  19   0    5.56    3.37
  -7  19  -1    2.53    3.42
  -7  19  -1   -7.87    8.10
  -7  19  -1    8.26    3.95
  -7  19  -2   -1.07    3.49
  -7  19  -2    9.93    4.34
  -7  19  -2    3.91    3.93
  -7  19  -3   11.70    4.70
  -7  19  -3    7.46    3.94
  -7  19  -3    8.72    4.42
  -7  19  -4   -4.50    6.37
  -7  19  -4   -3.72    4.19
  -7  19  -4   -4.64    6.96
  -7  19  -5    9.52    7.52
  -7  19  -5   24.62    5.11
  -7  19  -5   13.24    4.70
  -7  19  -6    1.74    3.79
  -7  19  -6    2.32    4.44
  -7  19  -6    0.85    4.08
  -7  19  -7   15.33    4.13
  -7  19  -7    5.63    8.59
  -7  19  -7    4.01    7.99
  -7  18   4    4.55    6.22
  -7  18   3   -0.67    5.75
  -7  18   3   -0.09    2.95
  -7  18   2    9.08    3.95
  -7  18   2    6.15    5.68
  -7  18   2    1.72    5.43
  -7  18   1    1.31    3.56
  -7  18   1    0.15    2.99
  -7  18   1   -0.46    4.72
  -7  18   0    1.87    4.58
  -7  18   0    3.15    3.11
  -7  18   0   -0.66    3.73
  -7  18  -1   -1.79    6.92
  -7  18  -1   -1.82    5.43
  -7  18  -1    2.38    3.62
  -7  18  -2    2.95    3.96
  -7  18  -2    3.29    6.44
  -7  18  -2    2.10    3.51
  -7  18  -3    0.93    3.66
  -7  18  -3    6.17    6.50
  -7  18  -3   -0.23    3.46
  -7  18  -4   16.74    4.35
  -7  18  -4   20.12    4.82
  -7  18  -4   14.04    4.46
  -7  18  -5    3.14    4.05
  -7  18  -5    6.58    3.66
  -7  18  -5    4.56    4.52
  -7  18  -6   46.90    4.95
  -7  18  -6   37.06   10.32
  -7  18  -6   42.49    9.39
  -7  18  -7    9.20    3.86
  -7  18  -7    9.19    5.25
  -7  18  -7   20.68    4.96
  -7  18  -8    4.31   10.72
  -7  18  -8   45.71    6.25
  -7  18  -9    5.84    9.72
  -7  18  -9   19.75    5.80
  -7  18 -10   49.17   10.46
  -7  18 -10    8.96    6.39
  -7  18 -11    4.38    5.65
   7 -17  -8    4.15    9.18
   7 -17  -7    1.38    5.22
  -7  17   7    2.62    6.15
   7 -17  -6    7.24    5.22
  -7  17   6    4.96    6.60
  -7  17   5   -0.64    5.98
  -7  17   4    4.51    3.84
  -7  17   3   11.50    4.14
  -7  17   2    9.81    3.77
  -7  17   2   -6.86    5.18
  -7  17   1   13.93    5.32
  -7  17   1   16.54    3.65
  -7  17   1   14.77    4.27
  -7  17   0   14.76    4.80
  -7  17   0    9.30    4.16
  -7  17   0   14.40    5.84
  -7  17  -1    1.24    3.95
  -7  17  -1   -0.13    3.13
  -7  17  -1   -0.26    5.91
  -7  17  -2    7.19    3.85
  -7  17  -2    4.98    3.61
  -7  17  -2   11.24    4.18
  -7  17  -3   17.71    4.25
  -7  17  -3   20.85    4.07
  -7  17  -3   13.09    4.70
  -7  17  -4   -0.25    3.20
  -7  17  -4    5.45    6.37
  -7  17  -4   -1.43    3.53
  -7  17  -5   15.30    6.55
  -7  17  -5   23.61    5.23
  -7  17  -5   28.76    8.00
  -7  17  -6   14.81    3.55
  -7  17  -6    6.67    5.06
  -7  17  -6   13.84    4.73
  -7  17  -7   84.73    5.23
  -7  17  -7   60.67   12.43
  -7  17  -7   61.73    7.14
  -7  17  -8   20.57    6.11
  -7  17  -8   40.96    6.29
  -7  17  -8   27.22    6.06
  -7  17  -9   75.92   13.17
  -7  17  -9   61.19    7.68
  -7  17 -10   23.77    6.58
  -7  17 -10    8.32   10.07
  -7  17 -11   29.06    7.10
  -7  17 -11    8.53    6.42
  -7  17 -12   -2.41    5.66
  -7  17 -12   -1.68   10.50
  -7  17 -13   -7.63    6.56
  -7  17 -13   10.89   10.02
   7 -16 -10    1.60    4.02
   7 -16 -10    6.81    9.21
  -7  16  10    3.22    3.99
   7 -16  -9   26.35    6.49
  -7  16   9   24.44    8.11
   7 -16  -8   14.99    5.79
  -7  16   8   13.41    7.45
   7 -16  -7   10.00    5.22
  -7  16   7    9.19    4.23
   7 -16  -6    7.38    4.56
  -7  16   6   -3.11    3.78
   7 -16  -5    1.05    4.44
  -7  16   5    2.38    3.75
  -7  16   4    5.82    3.96
  -7  16   3    6.58    3.84
  -7  16   2   22.71    7.46
  -7  16   1   22.79    5.36
  -7  16   1   26.32    7.57
  -7  16   0    9.91    4.34
  -7  16   0   12.81    3.54
  -7  16   0    9.54    4.13
  -7  16  -1   27.35    4.46
  -7  16  -1   21.50    4.51
  -7  16  -1   16.34    3.97
  -7  16  -2   21.48    6.62
  -7  16  -2   22.10    4.52
  -7  16  -2   15.81    4.04
  -7  16  -3    8.53    3.33
  -7  16  -3   -0.10    6.82
  -7  16  -3    4.39    3.62
  -7  16  -4    9.26    3.20
  -7  16  -4    2.55    4.33
  -7  16  -4   10.58    6.66
  -7  16  -5   -0.82    4.78
  -7  16  -5    4.70    4.22
  -7  16  -5    2.15    3.94
  -7  16  -6    2.44    2.81
  -7  16  -6   -2.72    4.45
  -7  16  -6    8.81    6.83
  -7  16  -7   -3.60    4.26
  -7  16  -7    1.52    4.50
  -7  16  -7   -0.83    2.65
  -7  16  -8   32.08    5.70
  -7  16  -8   32.45    6.84
  -7  16  -8   41.63    6.04
  -7  16  -9   18.62    6.04
  -7  16  -9    5.48    5.40
  -7  16 -10   21.62    6.54
  -7  16 -10   45.76    7.46
  -7  16 -11    3.20    9.79
  -7  16 -11    1.91    8.83
  -7  16 -12   -9.66    6.54
  -7  16 -12    0.15    5.97
  -7  16 -13   23.59    7.10
  -7  16 -13   -4.50    6.41
  -7  16 -14   14.25   12.98
  -7  16 -14    9.49   11.88
   7 -15 -12   15.06    5.08
   7 -15 -12   25.38   10.78
  -7  15  12   13.61    5.03
   7 -15 -11    5.45    4.48
   7 -15 -11    4.17    5.66
  -7  15  11    6.71    4.42
   7 -15 -10   24.74    9.07
   7 -15 -10   43.44    7.00
  -7  15  10   21.88    8.98
   7 -15  -9   13.09    4.91
   7 -15  -9   22.67    6.03
  -7  15   9   21.03    4.87
   7 -15  -8   52.28    6.01
   7 -15  -8   61.44   11.94
  -7  15   8   62.89    6.18
   7 -15  -7   18.76    5.76
  -7  15   7   37.20    5.09
   7 -15  -6   18.90    5.08
  -7  15   6   14.53    4.52
   7 -15  -5    3.18    6.99
  -7  15   5   -6.93    6.36
   7 -15  -4    9.11    4.29
  -7  15   4   12.05    6.88
  -7  15   3   27.94    4.77
  -7  15   2    9.88    4.12
  -7  15   1    2.91    3.66
  -7  15   1    1.92    3.98
  -7  15   0   -0.08    3.65
  -7  15   0    2.97    3.58
  -7  15  -1   -7.35    3.40
  -7  15  -1    7.60    6.18
  -7  15  -1   -2.33    3.38
  -7  15  -2   -0.42    3.11
  -7  15  -2    3.99    3.77
  -7  15  -2    1.15    3.32
  -7  15  -3    2.51    4.53
  -7  15  -3    2.17    3.87
  -7  15  -3   -6.04    5.55
  -7  15  -4    0.47    3.64
  -7  15  -4   -3.20    2.66
  -7  15  -4   -1.39    6.95
  -7  15  -5   -0.37    4.30
  -7  15  -5    6.18    4.51
  -7  15  -5   12.57    6.91
  -7  15  -6   14.15    4.73
  -7  15  -6    5.79    2.61
  -7  15  -6   -2.75    4.39
  -7  15  -7    3.17    4.65
  -7  15  -7    1.43    2.34
  -7  15  -7   -5.89    7.05
  -7  15  -8    2.97    5.13
  -7  15  -8    1.95    3.68
  -7  15  -8    0.53    4.52
  -7  15  -9   -3.98    5.23
  -7  15  -9    2.00    4.62
  -7  15 -10   11.49    9.44
  -7  15 -10    0.35    5.18
  -7  15 -11   28.59    7.13
  -7  15 -11   18.20    6.54
  -7  15 -12   13.12    6.76
  -7  15 -12    1.80   10.56
  -7  15 -13   27.14   13.10
  -7  15 -13   17.68    7.15
  -7  15 -14   25.37    7.88
  -7  15 -14    3.24    6.96
  -7  15 -15    5.25    7.27
  -7  15 -15    0.87    6.82
   7 -14 -13   14.80    5.65
   7 -14 -13   19.46    6.74
  -7  14  13   26.01    5.44
   7 -14 -12    8.70    4.65
   7 -14 -12    0.46    5.49
  -7  14  12   -0.19    7.58
   7 -14 -11   29.59    5.61
   7 -14 -11   18.58    6.68
  -7  14  11   35.71    5.55
   7 -14 -10   -1.60    4.33
   7 -14 -10    5.34    4.98
  -7  14  10    7.62    4.31
   7 -14  -9   59.33    6.71
   7 -14  -9   56.63   12.28
  -7  14   9   89.96    6.74
   7 -14  -8   11.78    8.48
   7 -14  -8   33.56    5.67
  -7  14   8   28.84    8.41
   7 -14  -7   12.93    4.78
   7 -14  -7   29.25    5.21
  -7  14   7   27.39    8.02
   7 -14  -6    3.05    3.69
   7 -14  -6    0.88    6.34
  -7  14   6   -0.13    3.79
   7 -14  -5    3.47    3.92
  -7  14   5    7.61    3.96
   7 -14  -4    3.47    5.92
  -7  14   4    2.75    3.81
   7 -14  -3    5.73    3.30
  -7  14   3   -5.35    3.62
  -7  14   2   10.90    6.72
  -7  14   1    5.90    3.90
  -7  14   0   -5.21    3.50
  -7  14   0    0.80    3.77
  -7  14  -1    0.64    3.11
  -7  14  -1    0.62    3.71
  -7  14  -2    1.38    2.83
  -7  14  -2    1.02    6.40
  -7  14  -2    1.26    3.52
  -7  14  -3    6.00    4.52
  -7  14  -3    1.83    4.06
  -7  14  -3    1.18    3.64
  -7  14  -4    3.69    4.00
  -7  14  -4   -6.15    4.24
  -7  14  -4   -4.31    3.79
  -7  14  -5    0.92    3.86
  -7  14  -5    0.67    2.29
  -7  14  -5    9.99    7.29
  -7  14  -6    7.16    6.93
  -7  14  -6   -8.94    4.68
  -7  14  -6   -0.97    3.58
  -7  14  -7    7.11    8.19
  -7  14  -7    2.09    1.98
  -7  14  -7    3.00    4.43
  -7  14  -8    3.61    5.41
  -7  14  -8    4.72    1.96
  -7  14  -8    2.19    7.92
  -7  14  -9   16.29    3.44
  -7  14  -9   20.90   10.71
  -7  14  -9   20.68    5.71
  -7  14 -10   51.19    8.18
  -7  14 -10   42.42    7.07
  -7  14 -11   35.65    6.74
  -7  14 -11   18.14    7.42
  -7  14 -12   37.55   14.11
  -7  14 -12   36.88    7.51
  -7  14 -13   38.79    8.64
  -7  14 -13   23.60    7.87
  -7  14 -14   72.11   11.23
  -7  14 -14   65.47   10.04
  -7  14 -15   29.62    9.09
  -7  14 -15   15.54   13.74
  -7  14 -16   -1.76   15.99
  -7  14 -16   38.33    9.01
   7 -13 -15   -0.22    6.35
   7 -13 -15   13.48    5.34
  -7  13  15    3.86    5.33
   7 -13 -14   -4.35    8.41
   7 -13 -14   -0.64    5.68
  -7  13  14   -7.53    8.01
   7 -13 -13   -1.45    4.77
   7 -13 -13   10.78    5.32
  -7  13  13   -0.59    4.64
   7 -13 -12   -7.67    4.60
   7 -13 -12    5.34    5.11
  -7  13  12   -3.01    4.40
   7 -13 -11    3.42    4.92
   7 -13 -11    8.65    5.43
  -7  13  11   19.11    4.76
   7 -13 -10    8.61    4.86
   7 -13 -10   33.09    8.76
  -7  13  10    5.28    7.66
   7 -13  -9    3.11    6.83
   7 -13  -9    2.10    4.34
  -7  13   9   -5.59    4.08
   7 -13  -8   77.44    6.75
   7 -13  -8   73.22    6.93
  -7  13   8   71.22    6.65
   7 -13  -7    0.38    6.59
   7 -13  -7    0.76    6.74
  -7  13   7    2.70    3.87
   7 -13  -6    6.30    4.20
   7 -13  -6    5.84    3.91
  -7  13   6    6.82    4.08
   7 -13  -5   21.48    7.07
   7 -13  -5   22.99    4.77
  -7  13   5   10.20    7.47
   7 -13  -4    1.65    3.24
  -7  13   4    2.11    3.75
   7 -13  -3   -0.51    5.06
  -7  13   3   -1.05    3.70
   7 -13  -2    5.69    3.10
  -7  13   2    6.95    3.84
  -7  13   1   53.09    5.57
  -7  13   0   16.58    7.35
  -7  13  -1    1.55    3.84
  -7  13  -2   19.65    4.94
  -7  13  -2   29.07    3.42
  -7  13  -3   15.09    8.37
  -7  13  -3   20.23    4.57
  -7  13  -3   21.34    2.97
  -7  13  -4   57.22    3.69
  -7  13  -4   81.71    6.70
  -7  13  -4   68.04    6.12
  -7  13  -5   11.39    5.27
  -7  13  -5   21.90    3.93
  -7  13  -5   12.07    4.77
  -7  13  -6   58.33    6.42
  -7  13  -6   32.59    2.59
  -7  13  -6   48.18    5.76
  -7  13  -7   32.06    6.05
  -7  13  -7   18.68    2.09
  -7  13  -7   20.59    5.38
  -7  13  -8  132.54   10.05
  -7  13  -8  105.09    4.99
  -7  13  -8  107.25    8.78
  -7  13  -9   84.34    8.33
  -7  13  -9  114.27    9.42
  -7  13  -9   78.53    2.66
  -7  13 -10   30.23    7.29
  -7  13 -10   31.58    6.56
  -7  13 -11   63.85   13.46
  -7  13 -11   51.72   14.76
  -7  13 -12   19.32    7.17
  -7  13 -12   10.13    6.35
  -7  13 -13   44.68    9.28
  -7  13 -13   35.35   13.32
  -7  13 -14   53.55   10.19
  -7  13 -14   53.32    9.35
  -7  13 -15    9.99   18.34
  -7  13 -15   75.15   10.06
  -7  13 -16   33.70    9.87
  -7  13 -16   24.22    8.89
  -7  13 -17   18.94    8.82
  -7  13 -17    0.41    7.97
   7 -12 -16    4.70    6.05
   7 -12 -16    2.70    9.05
  -7  12  16   -8.13    5.23
   7 -12 -15   13.65    6.31
   7 -12 -15   14.42    5.79
  -7  12  15    3.92    9.30
   7 -12 -14   -8.84    5.37
   7 -12 -14    2.69    4.72
  -7  12  14    7.85    4.77
   7 -12 -13    1.53    4.87
   7 -12 -13    0.09    4.47
  -7  12  13   -1.06    4.37
   7 -12 -12    7.10    8.56
   7 -12 -12   13.80    9.32
  -7  12  12   18.41    8.42
   7 -12 -11   -0.73    4.36
   7 -12 -11    0.45    4.62
  -7  12  11    5.50    4.23
   7 -12 -10   47.38   10.56
   7 -12 -10   56.06    6.41
  -7  12  10   50.24    6.20
   7 -12  -9   57.02    6.78
   7 -12  -9   64.14    6.73
  -7  12   9   83.20    6.52
   7 -12  -8   64.72    6.54
   7 -12  -8   65.09   10.41
  -7  12   8   70.66   10.42
   7 -12  -7  218.03   11.40
   7 -12  -7  234.25   10.67
  -7  12   7  238.62   11.32
   7 -12  -6   19.51    5.05
   7 -12  -6   29.12    4.43
  -7  12   6   20.71    4.86
   7 -12  -5   23.21    4.76
   7 -12  -5   17.34    4.10
  -7  12   5   25.36    4.61
   7 -12  -4   -1.37    3.91
   7 -12  -4   -4.66    3.07
  -7  12   4    0.88    3.80
   7 -12  -3   63.15    4.55
  -7  12   3   57.47    9.53
   7 -12  -2  147.32    6.41
  -7  12   2  150.75    8.34
  -7  12   1   77.43    6.47
  -7  12   0   65.67    6.18
  -7  12  -1  113.85   12.27
  -7  12  -2   62.34    6.39
  -7  12  -3  153.47    9.58
  -7  12  -4   15.84    2.60
  -7  12  -4   45.20    4.91
  -7  12  -5   79.75    7.41
  -7  12  -5   67.44    3.13
  -7  12  -5   90.91    6.70
  -7  12  -6    0.24    1.50
  -7  12  -6    7.56    7.67
  -7  12  -6   -1.00    4.05
  -7  12  -7   74.59    2.49
  -7  12  -7  105.02    8.28
  -7  12  -7   65.47    7.23
  -7  12  -8   42.29    6.45
  -7  12  -8   56.21   12.12
  -7  12  -8   41.51    2.54
  -7  12  -9   79.56    8.30
  -7  12  -9   52.30    2.24
  -7  12  -9   71.21    7.29
  -7  12 -10   89.26    8.11
  -7  12 -10   44.45    1.06
  -7  12 -10   55.16    7.40
  -7  12 -11   -1.09    6.00
  -7  12 -11   -1.83    5.19
  -7  12 -12    2.96    6.83
  -7  12 -12   13.13    6.03
  -7  12 -13    8.11    5.75
  -7  12 -13   -5.39    6.64
  -7  12 -14    5.48   12.66
  -7  12 -14   11.14    6.97
  -7  12 -15   25.74    9.23
  -7  12 -15   27.15    8.31
  -7  12 -16   21.50    9.47
  -7  12 -16   22.10   13.60
  -7  12 -17   17.67    9.56
  -7  12 -17   17.59    8.75
  -7  12 -18    8.02    8.54
  -7  12 -18   -0.34    7.73
   7 -11 -17   28.60   13.25
   7 -11 -17   23.35   12.42
  -7  11  17   42.45   12.01
   7 -11 -16   -4.59    9.32
   7 -11 -16    1.15    5.37
  -7  11  16    2.65    5.16
   7 -11 -15   -0.34    9.24
   7 -11 -15   -4.95    5.20
  -7  11  15   11.34    5.15
   7 -11 -14   91.18   14.81
   7 -11 -14   76.28    8.67
  -7  11  14  109.13   13.67
   7 -11 -13   19.47    5.60
   7 -11 -13    0.80    5.33
  -7  11  13   19.81    5.36
   7 -11 -12   22.16    5.33
   7 -11 -12   14.07    5.25
  -7  11  12   13.10    5.09
   7 -11 -11   35.42    5.97
   7 -11 -11   37.69    9.73
  -7  11  11   35.57    9.54
   7 -11 -10   24.57    5.28
   7 -11 -10   24.79    5.46
  -7  11  10   28.11    5.31
   7 -11  -9    0.36    6.75
   7 -11  -9   -0.94    4.26
  -7  11   9   -5.12    4.05
   7 -11  -8  197.68   10.87
   7 -11  -8  203.33    9.95
  -7  11   8  208.13   10.68
   7 -11  -7   88.79    7.27
   7 -11  -7   86.56    6.43
  -7  11   7   92.88    7.05
   7 -11  -6  271.90   12.67
   7 -11  -6  272.31   16.47
  -7  11   6  297.26   19.26
   7 -11  -5   43.02    5.71
   7 -11  -5   36.29    4.50
  -7  11   5   57.70    5.41
   7 -11  -4  104.12    7.49
   7 -11  -4  108.28    5.65
  -7  11   4  106.17    7.26
   7 -11  -3   62.14    6.27
   7 -11  -3   74.82    6.90
  -7  11   3   57.74    5.98
   7 -11  -2  140.49    5.52
  -7  11   2  132.12    8.09
   7 -11  -1   64.11    3.68
  -7  11   1   72.08    9.78
  -7  11   0   32.42    5.16
  -7  11  -1   11.96    4.45
  -7  11  -2  122.26   13.15
  -7  11  -3   17.92    5.07
  -7  11  -4   92.87    7.80
  -7  11  -5   32.83    5.20
  -7  11  -5   19.09    5.74
  -7  11  -6   -4.63    4.62
  -7  11  -6    7.59    6.98
  -7  11  -7   31.55    6.43
  -7  11  -7   27.38    5.62
  -7  11  -8    6.19    5.45
  -7  11  -8    5.14    4.88
  -7  11  -9   14.45    5.91
  -7  11  -9    3.63    5.23
  -7  11 -10   27.22   11.92
  -7  11 -10   22.68    6.39
  -7  11 -11    9.72    6.06
  -7  11 -11   -1.88    5.43
  -7  11 -12   19.05    7.19
  -7  11 -12    9.95   10.93
  -7  11 -13   16.06    6.27
  -7  11 -13   -5.52    7.14
  -7  11 -14   12.38    7.93
  -7  11 -14   14.81   11.40
  -7  11 -15    7.38    7.82
  -7  11 -15    5.13    6.82
  -7  11 -16    8.65    8.64
  -7  11 -16   10.86    7.36
  -7  11 -17   -2.21    7.73
  -7  11 -17    2.08    7.08
  -7  11 -18   13.08    9.21
  -7  11 -18    6.18    8.26
   7 -10 -18    1.25    6.49
   7 -10 -18    8.81    6.44
  -7  10  18    9.48    6.04
   7 -10 -17    0.84    6.22
   7 -10 -17   12.25    6.04
  -7  10  17    6.95    5.83
   7 -10 -16    8.39    6.29
   7 -10 -16   17.73    6.36
  -7  10  16   20.89   10.03
   7 -10 -15   68.51    8.13
   7 -10 -15   16.04   13.20
  -7  10  15   67.32    7.73
   7 -10 -14   30.52    6.04
   7 -10 -14   10.78    6.19
  -7  10  14   24.35    5.84
   7 -10 -13  190.54   11.35
   7 -10 -13  179.02   11.65
  -7  10  13  167.38   17.55
   7 -10 -12   21.33    5.44
   7 -10 -12   17.90    9.13
  -7  10  12   22.67    5.43
   7 -10 -11   63.56    6.73
   7 -10 -11   69.77    7.01
  -7  10  11   68.39    6.86
   7 -10 -10   29.31    8.71
   7 -10 -10   34.53    5.63
  -7  10  10   31.58    5.49
   7 -10  -9   51.31    5.59
   7 -10  -9   45.13    6.09
  -7  10   9   43.17    9.81
   7 -10  -8   14.67    3.88
   7 -10  -8    2.49    4.35
  -7  10   8    4.63    4.35
   7 -10  -7  190.70    9.15
   7 -10  -7  219.20   10.69
  -7  10   7  214.39   10.48
   7 -10  -6    1.91    4.13
   7 -10  -6    3.01    3.24
  -7  10   6    9.87    4.00
   7 -10  -5   58.05    6.24
   7 -10  -5   66.86    4.70
  -7  10   5   60.13    9.94
   7 -10  -4   14.18    4.76
   7 -10  -4   17.43    3.25
  -7  10   4   32.71    4.64
   7 -10  -3  123.88    8.13
   7 -10  -3  129.71    5.27
  -7  10   3  117.35    7.74
   7 -10  -2   -0.08    3.79
   7 -10  -2   -1.38    3.41
  -7  10   2    1.03    3.60
   7 -10  -1   46.05    5.04
  -7  10   1   62.82    5.65
  -7  10   0   16.98    4.63
  -7  10  -1    1.52    3.96
  -7  10  -2   37.34    5.57
  -7  10  -3   57.20    6.37
  -7  10  -4   14.30    5.05
  -7  10  -5    8.46    7.84
  -7  10  -5    2.38    4.32
  -7  10  -6   84.60    7.71
  -7  10  -6   60.15    6.80
  -7  10  -7   29.73   10.72
  -7  10  -7   28.61    5.57
  -7  10  -8   46.68    7.88
  -7  10  -8   65.39    6.85
  -7  10  -9   34.02    6.79
  -7  10  -9   13.58    5.92
  -7  10 -10    8.10    6.17
  -7  10 -10   11.25    9.05
  -7  10 -11    8.56    6.50
  -7  10 -11    8.29    5.83
  -7  10 -12    8.13    6.65
  -7  10 -12    4.40    9.85
  -7  10 -13   17.17   12.25
  -7  10 -13   11.36    6.59
  -7  10 -14   14.06    6.65
  -7  10 -14  -10.97    5.77
  -7  10 -15   19.63    9.40
  -7  10 -15   36.98    8.30
  -7  10 -16    4.88    8.07
  -7  10 -16   11.66    7.37
  -7  10 -17   17.96    8.26
  -7  10 -17   -5.47    7.68
  -7  10 -18   -3.61    8.19
  -7  10 -18    4.09    7.33
   7  -9 -19   11.70    7.03
   7  -9 -19    8.58    6.97
  -7   9  19    7.39    6.53
   7  -9 -18   70.77   10.27
   7  -9 -18   93.92   10.10
  -7   9  18   81.13   15.83
   7  -9 -17   -0.29   11.28
   7  -9 -17   26.17    6.65
  -7   9  17   15.77    6.51
   7  -9 -16    3.24    5.77
   7  -9 -16   10.58    5.58
  -7   9  16    0.98    5.38
   7  -9 -15   21.73    6.11
   7  -9 -15   11.00    5.89
  -7   9  15   12.73    9.59
   7  -9 -14   81.97    8.34
   7  -9 -14   70.70    8.07
  -7   9  14   83.11    8.05
   7  -9 -13    8.58    4.88
   7  -9 -13   -6.16    4.56
  -7   9  13    5.22    4.58
   7  -9 -12  109.78    8.31
   7  -9 -12   88.90    7.82
  -7   9  12   81.45   13.07
   7  -9 -11   61.86    7.17
   7  -9 -11   91.05   10.98
  -7   9  11   69.45    7.06
   7  -9 -10   13.49    4.37
   7  -9 -10   13.79    4.91
  -7   9  10   15.64    4.86
   7  -9  -9   15.75    4.14
   7  -9  -9    9.06    4.55
  -7   9   9   13.07    4.58
   7  -9  -8  159.65    7.61
   7  -9  -8  147.77    9.08
  -7   9   8  154.05   14.03
   7  -9  -7    7.49    5.68
   7  -9  -7    7.59    4.34
  -7   9   7    7.84    4.37
   7  -9  -6    5.87    3.12
   7  -9  -6    6.34    4.13
  -7   9   6    5.65    3.99
   7  -9  -5  124.33    8.92
   7  -9  -5  102.89    7.71
  -7   9   5  129.67    7.74
   7  -9  -4    1.70    3.99
   7  -9  -4   -4.62    2.50
  -7   9   4   -3.82    6.51
   7  -9  -3   -0.17    6.81
   7  -9  -3    3.49    2.31
  -7   9   3    3.43    3.86
   7  -9  -2  198.82   10.58
   7  -9  -2  197.81    5.98
  -7   9   2  214.48    9.92
   7  -9  -1   15.19    2.04
  -7   9   1   18.14    4.53
  -7   9   0   29.20    5.08
  -7   9  -1   23.29    4.95
  -7   9  -2   33.53    5.53
  -7   9  -3   26.04    8.92
  -7   9  -4   88.64    7.65
  -7   9  -5   12.29    5.20
  -7   9  -6    0.81    4.84
  -7   9  -6   -3.01    4.27
  -7   9  -7   73.13    7.91
  -7   9  -7   72.09    7.18
  -7   9  -8   19.41    5.63
  -7   9  -8   32.81    6.53
  -7   9  -9   10.93   10.66
  -7   9  -9   19.59    5.78
  -7   9 -10  217.31   13.59
  -7   9 -10  156.99   11.95
  -7   9 -11    3.58    6.72
  -7   9 -11   20.80    6.02
  -7   9 -12   21.30    7.74
  -7   9 -12   22.75    6.58
  -7   9 -13    3.75    6.47
  -7   9 -13   -1.08    5.63
  -7   9 -14   52.47    9.44
  -7   9 -14   32.90    8.24
  -7   9 -15   13.47    8.14
  -7   9 -15   13.91    7.19
  -7   9 -16   21.36    9.84
  -7   9 -16   42.09    8.52
  -7   9 -17    0.31    7.55
  -7   9 -17    4.00    7.24
  -7   9 -18   -4.59    8.57
  -7   9 -18   -4.03    7.58
  -7   9 -19    5.21    8.58
  -7   9 -19   -2.17   13.56
   7  -8 -20   -0.16   10.93
   7  -8 -20   -6.56   11.08
  -7   8  20    5.83    6.26
   7  -8 -19    0.63   15.24
   7  -8 -19   64.79    9.43
  -7   8  19   63.96    9.16
   7  -8 -18    9.57   10.62
   7  -8 -18    5.04    6.34
  -7   8  18    8.07    6.11
   7  -8 -17   29.34   10.98
   7  -8 -17   16.51    6.60
  -7   8  17    8.12   10.79
   7  -8 -16   48.17   12.80
   7  -8 -16   43.71    7.62
  -7   8  16   54.13    7.81
   7  -8 -15    7.89    8.85
   7  -8 -15   15.09    9.14
  -7   8  15    1.83    5.34
   7  -8 -14   31.24   11.01
   7  -8 -14   47.28    6.88
  -7   8  14   36.38    6.78
   7  -8 -13    4.17    8.88
   7  -8 -13   11.00    5.45
  -7   8  13   20.75    5.31
   7  -8 -12  211.90   18.08
   7  -8 -12  175.28   16.63
  -7   8  12  188.66   11.09
   7  -8 -11   -4.06    4.61
   7  -8 -11   -2.70    3.97
  -7   8  11   -1.19    7.39
   7  -8 -10   94.97    8.18
   7  -8 -10  106.38    6.95
  -7   8  10  102.48    8.04
   7  -8  -9   88.95    7.40
   7  -8  -9   99.02    6.35
  -7   8   9   87.08    7.48
   7  -8  -8   -2.84    4.27
   7  -8  -8    6.80    3.40
  -7   8   8   10.74    4.09
   7  -8  -7  216.62   12.81
   7  -8  -7  218.54   10.96
  -7   8   7  204.05   16.45
   7  -8  -6   -1.19    2.68
   7  -8  -6   -2.06    3.94
  -7   8   6    6.01    3.76
   7  -8  -5   24.86    5.39
   7  -8  -5   27.68    4.86
  -7   8   5   17.78    4.84
   7  -8  -4   47.20   10.14
   7  -8  -4   69.20    3.83
  -7   8   4   53.70    6.08
   7  -8  -3   49.89    5.73
   7  -8  -3   43.55    3.17
  -7   8   3   60.60    9.42
   7  -8  -2   15.44    4.35
   7  -8  -2    4.48    1.96
  -7   8   2    2.92    4.06
   7  -8  -1  614.76   23.30
   7  -8  -1  617.15   17.16
  -7   8   1  635.12   23.37
   7  -8   0   65.59    2.24
  -7   8   0   70.80    6.56
  -7   8  -1  210.08   16.84
  -7   8  -2   26.23    5.33
  -7   8  -3  514.23   21.12
  -7   8  -4  315.20   15.10
  -7   8  -5  197.43   11.70
  -7   8  -6   -3.68    5.03
  -7   8  -6   -0.52    4.38
  -7   8  -7   55.98    7.42
  -7   8  -7   39.52   10.89
  -7   8  -8   23.74    6.37
  -7   8  -8   16.34    5.43
  -7   8  -9  338.65   26.60
  -7   8  -9  288.27   15.31
  -7   8 -10   34.56    7.42
  -7   8 -10   26.70    6.48
  -7   8 -11  107.33   10.77
  -7   8 -11   92.36    9.62
  -7   8 -12   18.33   12.44
  -7   8 -12   20.90    6.63
  -7   8 -13   15.75    7.02
  -7   8 -13    6.45    6.39
  -7   8 -14   10.41    7.18
  -7   8 -14    2.03    6.39
  -7   8 -15   42.72    9.77
  -7   8 -15   46.31    9.15
  -7   8 -16    5.87    7.31
  -7   8 -16   -4.87    6.40
  -7   8 -17   21.70    8.88
  -7   8 -17    3.80   14.15
  -7   8 -18    4.96    9.18
  -7   8 -18   22.30    8.49
  -7   8 -19  -10.57    9.07
  -7   8 -19  -16.67   14.60
   7  -7 -21   80.58   11.63
   7  -7 -21   97.24   12.02
  -7   7  21   40.76   18.64
   7  -7 -20    8.50    6.99
   7  -7 -20    7.17    7.11
  -7   7  20    7.93    6.80
   7  -7 -19   41.03    7.80
   7  -7 -19   19.18    8.16
  -7   7  19   37.03   13.17
   7  -7 -18   27.47    6.76
   7  -7 -18   27.37   11.51
  -7   7  18    8.27    6.87
   7  -7 -17   58.44    7.78
   7  -7 -17   43.31    8.01
  -7   7  17   38.06    7.86
   7  -7 -16    5.58    5.84
   7  -7 -16   12.91    6.08
  -7   7  16   17.99    6.04
   7  -7 -15   10.35    5.69
   7  -7 -15   27.64    6.12
  -7   7  15   14.14    6.00
   7  -7 -14   96.78    8.16
   7  -7 -14   86.20   14.25
  -7   7  14   80.39   13.80
   7  -7 -13    9.81    4.67
   7  -7 -13    0.11    5.33
  -7   7  13    9.19    4.97
   7  -7 -12   89.25    7.75
   7  -7 -12  112.02    8.87
  -7   7  12  111.72    8.63
   7  -7 -11  217.31   10.67
   7  -7 -11  234.53   18.62
  -7   7  11  206.12   11.40
   7  -7 -10    4.40    3.70
   7  -7 -10    7.53    4.27
  -7   7  10   -6.75    4.18
   7  -7  -9   27.46    4.27
   7  -7  -9   21.15    8.73
  -7   7   9   20.91    5.22
   7  -7  -8  326.37   11.57
   7  -7  -8  305.00   13.93
  -7   7   8  314.88   13.98
   7  -7  -7  174.96   15.79
   7  -7  -7  190.98   11.65
  -7   7   7  168.01   15.84
   7  -7  -6  701.20   27.19
   7  -7  -6  705.90   21.28
  -7   7   6  726.14   26.55
   7  -7  -5   98.47   12.14
   7  -7  -5   88.54    7.36
  -7   7   5   97.67    7.22
   7  -7  -4  300.83    8.52
   7  -7  -4  288.81   13.46
  -7   7   4  319.72   13.15
   7  -7  -3    7.96    4.70
   7  -7  -3   13.67    2.21
  -7   7   3   11.65    4.57
   7  -7  -2  520.82   27.81
   7  -7  -2  473.49   10.89
  -7   7   2  508.54   27.80
   7  -7  -1   35.24    5.33
   7  -7  -1   31.55    3.00
  -7   7   1   24.63    5.36
   7  -7   0  610.23   14.09
  -7   7   0  661.79   23.47
  -7   7  -1   91.48   12.24
  -7   7  -2  438.02   18.33
  -7   7  -3  441.04   19.23
  -7   7  -4  782.06   31.28
  -7   7  -5   90.53    8.21
  -7   7  -6   81.77    8.07
  -7   7  -6   70.21    7.42
  -7   7  -7   17.80    5.99
  -7   7  -7   13.18    5.17
  -7   7  -8   25.46    6.64
  -7   7  -8   26.90    5.72
  -7   7  -9   -2.08    5.21
  -7   7  -9    7.41    7.84
  -7   7 -10  175.83   12.72
  -7   7 -10  149.92   11.48
  -7   7 -11    7.29    5.94
  -7   7 -11   -0.21    5.26
  -7   7 -12   -8.31   11.43
  -7   7 -12   16.40    6.04
  -7   7 -13    2.98    6.32
  -7   7 -13    3.39    5.79
  -7   7 -14   16.40    7.63
  -7   7 -14    8.53    6.64
  -7   7 -15    4.35    6.92
  -7   7 -15   -7.42    6.44
  -7   7 -16   40.75    9.94
  -7   7 -16   31.92    8.74
  -7   7 -17    7.72    7.57
  -7   7 -17   -9.64   11.97
  -7   7 -18   12.72    8.34
  -7   7 -18    1.23    7.84
  -7   7 -19   32.33   16.52
   7  -6 -22   10.73   14.20
   7  -6 -21   25.95    9.30
   7  -6 -21   38.33    9.44
  -7   6  21   38.04    8.98
   7  -6 -20   40.28    8.71
   7  -6 -20   25.08    8.84
  -7   6  20   28.09    8.39
   7  -6 -19   33.26    8.00
   7  -6 -19   30.35    8.18
  -7   6  19   32.50    8.02
   7  -6 -18   42.12    7.82
   7  -6 -18   46.34    8.08
  -7   6  18   23.77    7.82
   7  -6 -17   16.51    6.23
   7  -6 -17   19.91    6.43
  -7   6  17    6.77    6.29
   7  -6 -16   13.57    5.90
   7  -6 -16   22.34   10.21
  -7   6  16    5.24   10.26
   7  -6 -15  172.91   11.14
   7  -6 -15  142.13   11.69
  -7   6  15  165.82   11.66
   7  -6 -14  101.61    8.42
   7  -6 -14   93.47    9.30
  -7   6  14  103.71    8.96
   7  -6 -13  610.88   24.67
   7  -6 -13  610.52   26.79
  -7   6  13  616.73   25.90
   7  -6 -12    1.43    4.01
   7  -6 -12   -4.18    4.61
  -7   6  12    3.69    4.42
   7  -6 -11  142.74    8.19
   7  -6 -11  131.81    9.40
  -7   6  11  123.14    9.10
   7  -6 -10  147.07    7.91
   7  -6 -10  107.91   14.80
  -7   6  10  154.00   14.78
   7  -6  -9   18.79    3.98
   7  -6  -9   15.56    5.04
  -7   6   9   14.72    4.93
   7  -6  -8   -3.52    3.05
   7  -6  -8   -0.25    6.86
  -7   6   8    4.39    4.01
   7  -6  -7  521.07   22.60
   7  -6  -7  519.30   20.18
  -7   6   7  525.67   20.24
   7  -6  -6  180.75    6.76
   7  -6  -6  168.24   10.05
  -7   6   6  192.28   15.73
   7  -6  -5  582.81   15.90
   7  -6  -5  571.54   22.02
  -7   6   5  588.63   22.04
   7  -6  -4   93.66    6.81
   7  -6  -4   74.77    3.76
  -7   6   4   80.50    6.59
   7  -6  -3  575.18   13.39
   7  -6  -3  567.28   30.92
  -7   6   3  576.30   21.37
   7  -6  -2   39.70    6.07
   7  -6  -2   53.17    2.36
  -7   6   2   51.57    9.99
   7  -6  -1  383.64   15.95
   7  -6  -1  373.95    9.19
  -7   6   1  388.25   15.71
   7  -6   0  177.31    2.89
  -7   6   0  170.34   10.00
  -7   6  -1    3.72    4.25
  -7   6  -2   75.26    6.98
  -7   6  -3  397.85   17.34
  -7   6  -4  148.57   15.45
  -7   6  -5  255.32   13.71
  -7   6  -6   26.61    9.84
  -7   6  -6   20.59    5.47
  -7   6  -7   -2.93    5.07
  -7   6  -7   -4.89    4.50
  -7   6  -8  120.99    9.98
  -7   6  -8  103.08    8.60
  -7   6  -9   14.21    9.06
  -7   6  -9   21.24    6.39
  -7   6 -10   -1.63    5.50
  -7   6 -10    2.39    4.91
  -7   6 -11  113.04   11.13
  -7   6 -11  123.29   16.46
  -7   6 -12  -13.82   10.91
  -7   6 -12   12.28    5.72
  -7   6 -13    1.87    6.16
  -7   6 -13   -2.99    5.52
  -7   6 -14   32.25    8.05
  -7   6 -14   15.38    7.11
  -7   6 -15   48.51   10.03
  -7   6 -15   53.13    9.18
  -7   6 -16   -6.22    7.22
  -7   6 -16    2.07    6.46
  -7   6 -17   38.42   10.20
  -7   6 -17   42.61   15.61
  -7   6 -18   14.89    8.80
  -7   6 -18    4.94    7.97
  -7   6 -19    7.54    8.76
  -7   6 -19    9.75   13.65
   7  -5 -22  153.22   15.02
   7  -5 -22  120.62   15.37
  -7   5  22  143.62   14.95
   7  -5 -21    6.99    7.30
   7  -5 -21   14.30    7.39
  -7   5  21   -2.65    7.05
   7  -5 -20  183.53   24.10
   7  -5 -20  167.62   15.84
  -7   5  20  200.00   15.30
   7  -5 -19   -6.75    9.96
   7  -5 -19    3.75   10.03
  -7   5  19    0.37    5.97
   7  -5 -18   75.70    9.43
   7  -5 -18   95.48    9.97
  -7   5  18   41.64   16.14
   7  -5 -17   30.97    6.97
   7  -5 -17   44.22    7.29
  -7   5  17   11.28    7.16
   7  -5 -16   25.13    6.29
   7  -5 -16   35.09    6.66
  -7   5  16    9.55    6.49
   7  -5 -15    3.24    5.03
   7  -5 -15   14.54    5.52
  -7   5  15   -3.67    5.30
   7  -5 -14  190.83   12.04
   7  -5 -14  220.15   13.04
  -7   5  14  224.41   12.93
   7  -5 -13   19.83    5.26
   7  -5 -13   18.79    5.77
  -7   5  13   11.16    9.60
   7  -5 -12  682.23   25.88
   7  -5 -12  687.47   28.72
  -7   5  12  720.80   29.00
   7  -5 -11    6.69    4.03
   7  -5 -11    6.49    4.78
  -7   5  11    8.65    4.75
   7  -5 -10   30.80    4.78
   7  -5 -10   33.39    5.76
  -7   5  10   38.88    9.56
   7  -5  -9  224.24    9.53
   7  -5  -9  223.71   11.85
  -7   5   9  231.64   11.82
   7  -5  -8   -0.73    3.07
   7  -5  -8   -2.60    4.20
  -7   5   8   -1.22    4.12
   7  -5  -7  103.63    5.58
   7  -5  -7   91.23    7.72
  -7   5   7  125.59    7.68
   7  -5  -6   56.19    6.08
   7  -5  -6   34.47    5.81
  -7   5   6   48.31    9.59
   7  -5  -5   73.78    3.96
   7  -5  -5   70.55    6.87
  -7   5   5   75.36    6.50
   7  -5  -4   62.69    5.51
   7  -5  -4   67.57    6.32
  -7   5   4   66.05    6.40
   7  -5  -3    3.74    4.21
   7  -5  -3    5.89    1.82
  -7   5   3    7.76    4.18
   7  -5  -2  494.65   19.55
   7  -5  -2  524.42   10.74
  -7   5   2  498.03   19.16
   7  -5  -1   31.26    5.27
   7  -5  -1   30.80    1.42
  -7   5   1   35.97    5.38
   7  -5   0   -0.31    4.04
   7  -5   0    1.42    0.95
  -7   5   0    2.67    3.96
  -7   5  -1  530.03   20.85
  -7   5  -2   34.80    5.69
  -7   5  -3   11.54    4.83
  -7   5  -4  321.56   22.80
  -7   5  -5    5.63    4.92
  -7   5  -6   65.49   12.39
  -7   5  -7   96.10    8.42
  -7   5  -7   77.88    7.56
  -7   5  -8   33.12    6.63
  -7   5  -8   31.55    5.97
  -7   5  -9    4.46    4.54
  -7   5  -9    1.26    5.24
  -7   5 -10  201.74   12.99
  -7   5 -10  162.88   11.33
  -7   5 -11   -5.87    5.67
  -7   5 -11    5.59    8.79
  -7   5 -12   45.57   14.21
  -7   5 -12   54.11    7.72
  -7   5 -13   43.45    8.31
  -7   5 -13   27.79    7.50
  -7   5 -14   38.11    8.42
  -7   5 -14   25.08    7.47
  -7   5 -15    5.93    6.85
  -7   5 -15   -8.16    6.16
  -7   5 -16   80.15   11.75
  -7   5 -16   77.73   10.58
  -7   5 -17   18.75    8.16
  -7   5 -17    3.42    7.67
  -7   5 -18    9.99    8.95
  -7   5 -18   21.03    8.49
  -7   5 -19   10.50    8.77
  -7   5 -19   10.62   14.25
   7  -4 -23   87.12   13.93
   7  -4 -23  116.91   13.87
  -7   4  23   87.54   13.57
   7  -4 -22   16.68    8.30
   7  -4 -22   10.86    8.44
  -7   4  22   -0.15   13.73
   7  -4 -21  105.18   14.17
   7  -4 -21  137.93   14.40
  -7   4  21  162.75   13.96
   7  -4 -20    6.54    7.45
   7  -4 -20   16.73    7.47
  -7   4  20   10.48   12.20
   7  -4 -19  313.17   19.60
   7  -4 -19  316.25   19.99
  -7   4  19  310.98   19.89
   7  -4 -18    6.70   11.54
   7  -4 -18   18.62    7.14
  -7   4  18   18.79   11.55
   7  -4 -17   49.78   13.53
   7  -4 -17   35.54   13.28
  -7   4  17   45.96    8.10
   7  -4 -16  210.29   13.10
   7  -4 -16  161.46   12.99
  -7   4  16  209.91   13.23
   7  -4 -15   24.90    6.49
   7  -4 -15   27.41    6.60
  -7   4  15   27.32    6.67
   7  -4 -14  188.48   11.73
   7  -4 -14  182.19   11.98
  -7   4  14  164.56   11.69
   7  -4 -13  161.26   10.45
   7  -4 -13  177.75   11.06
  -7   4  13  156.35   10.84
   7  -4 -12   12.46    4.84
   7  -4 -12    8.14    5.27
  -7   4  12   13.98    5.33
   7  -4 -11  150.92    9.00
   7  -4 -11  142.87   16.16
  -7   4  11  161.09    9.88
   7  -4 -10  153.37    8.57
   7  -4 -10  157.53    9.89
  -7   4  10  149.11    9.68
   7  -4  -9    6.94    3.77
   7  -4  -9    9.69    7.61
  -7   4   9    4.01    4.52
   7  -4  -8  296.17   10.93
   7  -4  -8  286.75   13.42
  -7   4   8  299.34   13.44
   7  -4  -7    6.14    3.04
   7  -4  -7    1.97    7.12
  -7   4   7    2.31    4.26
   7  -4  -6  619.51   17.62
   7  -4  -6  610.06   23.46
  -7   4   6  614.47   22.93
   7  -4  -5  123.72    7.87
   7  -4  -5  126.53    8.19
  -7   4   5  118.46    8.04
   7  -4  -4  383.96    9.70
   7  -4  -4  405.56   23.83
  -7   4   4  416.73   15.72
   7  -4  -3  115.61    7.66
   7  -4  -3  113.56    5.61
  -7   4   3  111.08    7.51
   7  -4  -2    0.88    1.35
   7  -4  -2    8.87    3.97
  -7   4   2    4.38    3.86
   7  -4  -1  297.53   19.91
   7  -4  -1  305.08    6.72
  -7   4   1  298.37   12.98
   7  -4   0   28.98    4.98
   7  -4   0   20.51    1.02
  -7   4   0   36.28    4.79
  -7   4  -1   75.73    6.87
  -7   4  -2  352.09   15.01
  -7   4  -3   45.14    6.07
  -7   4  -4    6.21    7.90
  -7   4  -5  574.91   23.38
  -7   4  -6    8.21    8.49
  -7   4  -7  196.25   11.12
  -7   4  -7  162.91   10.25
  -7   4  -8   11.89    5.62
  -7   4  -8   12.48    4.95
  -7   4  -9  191.90   11.34
  -7   4  -9  205.01   12.91
  -7   4 -10    7.67    6.22
  -7   4 -10   19.81    5.49
  -7   4 -11  122.23   10.78
  -7   4 -11  100.10   16.08
  -7   4 -12   24.97   12.48
  -7   4 -12   30.21    6.69
  -7   4 -13   20.32    8.03
  -7   4 -13   38.55    7.12
  -7   4 -14   13.46    7.76
  -7   4 -14   27.19    6.92
  -7   4 -15   53.38    9.67
  -7   4 -15   43.58    8.53
  -7   4 -16   11.79    7.29
  -7   4 -16    2.97    6.62
  -7   4 -17   42.51    9.36
  -7   4 -17   16.98    8.53
  -7   4 -18   51.77   10.52
  -7   4 -18   33.22    9.58
  -7   4 -19  -11.10    8.66
  -7   4 -19   -4.63    8.18
   7  -3 -23   71.32   12.57
   7  -3 -23   29.58   20.13
  -7   3  23   66.51   11.70
   7  -3 -22   21.00   15.32
   7  -3 -22   15.76   14.91
  -7   3  22   19.74    8.44
   7  -3 -21   77.96   11.58
   7  -3 -21   53.68   11.26
  -7   3  21   73.26   10.83
   7  -3 -20   64.86   11.87
   7  -3 -20   73.03   11.03
  -7   3  20  102.00   10.80
   7  -3 -19    8.29    7.05
   7  -3 -19    7.05    6.51
  -7   3  19    2.20    6.61
   7  -3 -18  189.29   14.11
   7  -3 -18  149.89   13.29
  -7   3  18  155.36   13.22
   7  -3 -17   30.80    8.04
   7  -3 -17   28.18    7.41
  -7   3  17   29.21    7.34
   7  -3 -16    3.06    6.07
   7  -3 -16   -2.42    9.39
  -7   3  16    2.75    5.47
   7  -3 -15  210.77   13.90
  -7   3  15  256.60   22.27
   7  -3 -14   -3.34    5.01
  -7   3  14    0.26    5.02
   7  -3 -13  246.82   20.69
  -7   3  13  215.07   12.92
   7  -3 -12   65.63    7.61
  -7   3  12   65.00    7.27
   7  -3 -11  161.80   10.95
  -7   3  11  178.24   10.58
   7  -3 -10   53.90    6.84
  -7   3  10   66.55    6.80
   7  -3  -9   91.82    7.83
  -7   3   9   91.18    7.72
   7  -3  -8  258.91   12.57
  -7   3   8  248.76   12.25
   7  -3  -7   29.28    5.24
  -7   3   7   23.40    5.24
   7  -3  -6   81.47    6.47
  -7   3   6   62.06    6.69
   7  -3  -5  394.44   23.24
  -7   3   5  380.80   15.42
   7  -3  -4    7.18    4.27
  -7   3   4    6.92    4.24
   7  -3  -3  189.87    9.67
  -7   3   3  181.33    9.69
   7  -3  -2  281.83   13.29
   7  -3  -2  310.67    6.54
  -7   3   2  316.01   19.48
   7  -3  -1   52.33    5.66
   7  -3  -1   42.96    1.62
  -7   3   1   46.77    5.63
   7  -3   0  690.92   26.07
   7  -3   0  733.01   12.32
  -7   3   0  696.93   25.58
  -7   3  -1    3.39    4.18
  -7   3  -2  524.35   20.32
  -7   3  -3    6.99    4.42
  -7   3  -4  695.58   27.21
  -7   3  -5   31.64    6.00
  -7   3  -6  398.00   17.91
  -7   3  -7   43.24    6.53
  -7   3  -7   43.19    5.97
  -7   3  -8   80.80    7.96
  -7   3  -8   67.85    7.10
  -7   3  -9   -0.27    7.18
  -7   3  -9    2.09    8.22
  -7   3 -10  228.76   13.78
  -7   3 -10  205.68   12.42
  -7   3 -11   13.85    6.15
  -7   3 -11   12.57    5.65
  -7   3 -12   51.52    8.92
  -7   3 -12   68.07    7.96
  -7   3 -13  102.32   17.29
  -7   3 -13   90.29    9.58
  -7   3 -14    3.28    6.46
  -7   3 -14   -7.62    5.66
  -7   3 -15   43.64    8.90
  -7   3 -15   37.61    8.11
  -7   3 -16   30.01    9.41
  -7   3 -16   45.07    8.36
  -7   3 -17   14.14    8.77
  -7   3 -17   26.35    8.02
  -7   3 -18   14.53    7.64
  -7   3 -18   -6.58    6.92
  -7   3 -19   29.06   10.77
  -7   3 -19   46.83   10.30
   7  -2 -24   19.10   10.07
   7  -2 -23   43.53   11.54
  -7   2  23   51.25   11.10
   7  -2 -22  130.69   15.36
   7  -2 -22  147.12   16.18
  -7   2  22  111.44   13.99
   7  -2 -21   -4.36   12.46
   7  -2 -21    1.19    8.33
  -7   2  21   -8.59    7.12
   7  -2 -20  121.39   22.92
  -7   2  20  157.32   14.00
   7  -2 -19   31.05    8.80
  -7   2  19   57.05    9.14
   7  -2 -18   13.67    6.72
  -7   2  18    6.95    6.62
   7  -2 -17  292.60   18.33
  -7   2  17  330.30   18.82
   7  -2 -16   -0.34    5.44
  -7   2  16    4.48    5.54
   7  -2 -15  116.36   17.57
  -7   2  15  151.71   17.73
   7  -2 -14   22.93    6.16
  -7   2  14   16.32    6.18
   7  -2 -13  277.56   15.74
  -7   2  13  307.48   15.53
   7  -2 -12   48.42    6.65
  -7   2  12   37.12    6.84
   7  -2 -11  135.47   10.20
  -7   2  11  166.47   10.19
   7  -2 -10  127.55   14.93
  -7   2  10  131.72    9.30
   7  -2  -9  278.39   13.22
  -7   2   9  281.27   13.45
   7  -2  -8    7.91    8.01
  -7   2   8   12.39    4.76
   7  -2  -7 1036.55   39.23
  -7   2   7 1045.61   38.52
   7  -2  -6   58.37    6.37
  -7   2   6   60.75   10.69
   7  -2  -5  647.07   33.85
  -7   2   5  686.35   25.04
   7  -2  -4   38.16    5.47
  -7   2   4   33.24    5.28
   7  -2  -3  233.19   11.11
  -7   2   3  232.45   10.90
   7  -2  -2    9.58    7.13
  -7   2   2    5.91    6.94
   7  -2  -1  528.36   19.88
  -7   2   1  530.35   19.92
   7  -2   0    5.39    3.98
  -7   2   0    0.35    3.95
   7  -2   1  404.94    5.40
   7  -2   1  332.09    4.30
  -7   2  -1  342.74   22.24
  -7   2  -2    6.95    4.33
  -7   2  -3 1032.51   38.51
  -7   2  -4  121.47    8.58
  -7   2  -5  606.65   24.17
  -7   2  -6   75.87    7.53
  -7   2  -7    8.19    4.87
  -7   2  -7    6.03    4.53
  -7   2  -8  149.12   10.04
  -7   2  -8  130.59    9.07
  -7   2  -9  101.13   13.63
  -7   2  -9  110.18   14.63
  -7   2 -10   -1.64    5.20
  -7   2 -10    2.44    4.45
  -7   2 -11  149.19   11.16
  -7   2 -11  123.97   10.14
  -7   2 -12   14.26    5.84
  -7   2 -12    1.86    5.43
  -7   2 -13   36.40   12.94
  -7   2 -13   38.65    7.22
  -7   2 -14   68.81    9.39
  -7   2 -14   68.10   14.11
  -7   2 -15   49.04    9.11
  -7   2 -15   42.16    8.22
  -7   2 -16   12.28    7.54
  -7   2 -16    6.15   11.24
  -7   2 -17   46.27    9.00
  -7   2 -17    9.57    8.09
  -7   2 -18   44.12   10.34
  -7   2 -18   35.16   15.50
   7  -1 -24   91.40   14.52
  -7   1  24   88.52   13.85
   7  -1 -23   25.46    9.53
  -7   1  23   15.56    9.61
   7  -1 -22   90.23   12.82
  -7   1  22   79.61   12.17
   7  -1 -21   62.16   11.41
  -7   1  21   67.78   10.97
   7  -1 -20   65.37   10.81
  -7   1  20   58.55   10.10
  -7   1  19   22.62    7.71
   7  -1 -18  301.31   18.93
  -7   1  18  333.42   19.83
   7  -1 -17   -5.00    5.55
  -7   1  17    8.13    5.80
   7  -1 -16  254.41   15.78
  -7   1  16  258.34   15.66
   7  -1 -15   -5.71    5.68
  -7   1  15  -10.07    9.61
   7  -1 -14  646.77   28.87
  -7   1  14  666.54   29.20
   7  -1 -13  126.81    9.89
  -7   1  13  103.62    9.92
   7  -1 -12  964.45   55.11
  -7   1  12 1012.80   41.61
   7  -1 -11   -5.21    4.79
  -7   1  11    0.32    4.68
   7  -1 -10  218.15   11.88
  -7   1  10  206.34   11.87
   7  -1  -9  165.58   10.02
  -7   1   9  162.54    9.99
   7  -1  -8  267.99   19.31
  -7   1   8  255.87   12.61
   7  -1  -7    4.51    4.47
  -7   1   7   13.25    4.55
   7  -1  -6  751.80   27.88
  -7   1   6  798.98   39.32
   7  -1  -5    9.74    4.37
  -7   1   5   13.99    4.55
   7  -1  -4  467.55   18.27
  -7   1   4  478.93   17.84
   7  -1  -3   17.36    4.71
  -7   1   3   21.21    4.74
   7  -1  -2  423.71   23.46
  -7   1   2  397.10   15.81
   7  -1  -1   82.43    6.48
  -7   1   1   75.04    6.59
   7  -1   0   46.80    5.73
  -7   1   0   60.35    5.93
   7  -1   1  353.62    5.34
  -7   1  -1  381.28   21.81
   7  -1   2   15.88    0.66
  -7   1  -2   17.26    4.54
  -7   1  -3  169.71    9.28
  -7   1  -4  601.31   23.12
  -7   1  -5   57.37    6.68
  -7   1  -6  398.17   17.33
  -7   1  -6  379.51   15.99
  -7   1  -7   55.35   11.53
  -7   1  -7   64.82    6.65
  -7   1  -8    8.83    4.63
  -7   1  -8   15.11    5.18
  -7   1  -9   85.29    8.54
  -7   1  -9   95.12    7.96
  -7   1 -10  120.80   15.39
  -7   1 -10  105.82    8.63
  -7   1 -11    1.11    5.30
  -7   1 -11    4.56    4.81
  -7   1 -12  140.93   11.40
  -7   1 -12  129.36   16.50
  -7   1 -13    5.92    6.20
  -7   1 -13   11.11    5.59
  -7   1 -14  123.70   18.34
  -7   1 -14   99.81   10.07
  -7   1 -15    0.66    6.75
  -7   1 -15  -11.73    5.94
  -7   1 -16  161.25   13.89
  -7   1 -16  121.74   12.51
  -7   1 -17    8.58    7.59
  -7   1 -17    6.46    6.79
  -7   1 -18   46.54    9.70
  -7   1 -18   21.82    8.95
   7   0 -24   16.23   10.09
  -7   0  24   22.44    9.63
   7   0 -23  136.17   16.19
  -7   0  23  146.04   16.40
   7   0 -22   10.70    7.81
  -7   0  22   -2.66    7.59
   7   0 -21  193.12   18.13
  -7   0  21  220.51   17.34
   7   0 -20   -4.84    6.99
  -7   0  20   -1.07    6.84
   7   0 -19  324.95   21.54
  -7   0  19  331.82   21.14
   7   0 -18    0.25   10.66
  -7   0  18    5.13    6.10
   7   0 -17  154.70   12.76
  -7   0  17  185.34   13.57
   7   0 -16  102.11    9.61
  -7   0  16   79.27    9.69
   7   0 -15   92.94    9.65
  -7   0  15  109.50    9.85
   7   0 -14   18.70   10.21
  -7   0  14   17.47    6.14
   7   0 -13  614.64   26.91
  -7   0  13  628.37   39.54
   7   0 -12   85.03    8.45
  -7   0  12   76.66    8.37
   7   0 -11  633.88   26.83
  -7   0  11  688.84   27.13
   7   0 -10   43.57    6.40
  -7   0  10   44.95   10.64
   7   0  -9   37.63    6.06
  -7   0   9   45.86    6.15
   7   0  -8  587.88   22.98
  -7   0   8  608.03   23.23
   7   0  -7   16.85    4.83
  -7   0   7   14.24    4.74
   7   0  -6  341.45   20.75
  -7   0   6  315.32   13.64
   7   0  -5   31.65    5.29
  -7   0   5   37.79    5.33
   7   0  -4  223.04   10.79
  -7   0   4  228.49   10.61
   7   0  -3  244.65   11.18
  -7   0   3  274.87   17.59
   7   0  -2   27.85    8.19
  -7   0   2   27.69    4.93
   7   0  -1  335.44   13.73
  -7   0   1  365.57   14.08
   7   0   0  157.88    3.37
   7   0   0  158.31    8.68
  -7   0   0  158.89   13.83
   7   0   1   75.56    3.13
  -7   0  -1   97.56    6.56
   7   0   2 1101.78   26.96
  -7   0  -2 1160.56   41.97
   7   0   3    0.81    0.89
  -7   0  -3    2.46    6.63
   7   0   4   41.86    2.25
  -7   0  -4   35.80    5.55
  -7   0  -5  676.33   36.07
  -7   0  -6   86.90    7.74
  -7   0  -6   95.12    7.14
  -7   0  -7  369.27   16.61
  -7   0  -7  379.90   23.07
  -7   0  -8   44.27    6.06
  -7   0  -8   30.87    5.46
  -7   0  -9   74.40    7.82
  -7   0  -9  118.01    8.44
  -7   0 -10   -2.58    4.83
  -7   0 -10   -1.33    7.32
  -7   0 -11  185.30   12.35
  -7   0 -11  184.54   11.33
  -7   0 -12    1.52    5.16
  -7   0 -12    0.61    4.79
  -7   0 -13   54.09    9.19
  -7   0 -13   90.72    8.29
  -7   0 -14    2.74    5.88
  -7   0 -14    1.70    5.39
  -7   0 -15  147.59   20.21
  -7   0 -15  130.41   11.41
  -7   0 -16    0.64   11.14
  -7   0 -16    5.27    6.13
  -7   0 -17  107.17   13.23
  -7   0 -17  138.55   19.36
  -7   0 -18   11.27    8.14
  -7   0 -18   12.53    7.51
   7   1 -24   38.64   11.49
  -7  -1  24   32.38   10.92
   7   1 -23    7.29    9.56
  -7  -1  23   28.49    9.41
   7   1 -22   38.90   10.50
  -7  -1  22   40.07   10.04
   7   1 -21   56.59   10.84
  -7  -1  21   61.16   10.66
   7   1 -20  111.61   13.51
  -7  -1  20  124.26   13.14
   7   1 -19    9.21    7.08
  -7  -1  19    5.22    7.02
   7   1 -18  199.80   15.05
  -7  -1  18  178.81   14.61
   7   1 -17   60.37   14.51
  -7  -1  17   53.45    8.89
   7   1 -16   23.54    6.58
  -7  -1  16   10.97    6.60
   7   1 -15  507.54   24.18
  -7  -1  15  515.41   24.93
   7   1 -14   -8.94    8.32
  -7  -1  14    4.17    5.08
   7   1 -13  188.64   12.06
  -7  -1  13  202.18   19.73
   7   1 -12  159.12   10.64
  -7  -1  12  158.69   10.88
   7   1 -11   -4.48    4.65
  -7  -1  11   -3.35    4.77
   7   1 -10  270.61   13.92
  -7  -1  10  294.65   14.13
   7   1  -9  139.79    9.25
  -7  -1   9  161.37    9.41
   7   1  -8   25.89    5.35
  -7  -1   8   33.66    5.45
   7   1  -7  497.49   19.56
  -7  -1   7  533.46   28.80
   7   1  -6    7.74    7.24
  -7  -1   6    7.77    4.39
   7   1  -5  892.46   31.83
  -7  -1   5  909.60   32.65
   7   1  -4   26.68    5.02
  -7  -1   4   30.17    8.23
   7   1  -3  424.92   16.46
  -7  -1   3  457.57   16.61
   7   1  -2  367.75   23.01
  -7  -1   2  422.94   15.41
   7   1  -1   13.22    4.18
  -7  -1   1    8.02    4.22
   7   1   0  262.33   11.52
   7   1   0  241.62    7.75
  -7  -1   0  280.14   11.28
   7   1   1  100.69    4.36
  -7  -1  -1  112.96    7.08
   7   1   2    0.16    2.10
  -7  -1  -2    6.32    6.23
   7   1   3  399.40   10.11
  -7  -1  -3  388.98   15.71
   7   1   4   77.76    3.87
  -7  -1  -4   81.48    6.57
   7   1   5    6.80    1.49
  -7  -1  -5   10.04    4.20
  -7  -1  -6  400.83   16.18
  -7  -1  -6  359.83   15.04
  -7  -1  -7    6.83    3.97
  -7  -1  -7    3.10    4.45
  -7  -1  -8  304.02   21.32
  -7  -1  -8  270.33   12.05
  -7  -1  -9    4.59    4.53
  -7  -1  -9   -1.19    4.02
  -7  -1 -10  191.36   11.31
  -7  -1 -10  163.65   10.41
  -7  -1 -11    7.49    8.83
  -7  -1 -11    6.57    4.83
  -7  -1 -12   48.11    7.65
  -7  -1 -12   51.54    6.95
  -7  -1 -13   53.68    8.37
  -7  -1 -13   68.01   12.37
  -7  -1 -14   11.27    6.10
  -7  -1 -14    1.64    5.45
  -7  -1 -15   26.37    7.43
  -7  -1 -15   13.09   11.51
  -7  -1 -16   97.37   11.41
  -7  -1 -16   87.54   10.37
  -7  -1 -17    5.05    7.38
  -7  -1 -17   17.13    7.08
   7   2 -24    3.54   18.00
  -7  -2  24   40.02   10.49
   7   2 -23   -1.07    8.12
  -7  -2  23    9.21    8.05
   7   2 -22  273.59   22.06
  -7  -2  22  253.27   21.03
   7   2 -21    2.69    7.64
  -7  -2  21    6.13    7.41
   7   2 -20  219.23   17.57
  -7  -2  20  207.67   16.91
   7   2 -19   67.04   10.30
  -7  -2  19   73.57   10.47
   7   2 -18    9.01    6.50
  -7  -2  18   -0.52    6.29
   7   2 -17  150.56   20.60
  -7  -2  17  158.08   12.98
   7   2 -16  120.84   10.87
  -7  -2  16  130.63   11.01
   7   2 -15    4.39    5.41
  -7  -2  15    5.89    5.58
   7   2 -14  580.49   26.35
  -7  -2  14  587.69   26.51
   7   2 -13    7.88    5.25
  -7  -2  13    5.74    5.42
   7   2 -12  159.18   10.37
  -7  -2  12  163.79   10.75
   7   2 -11  169.54   16.69
  -7  -2  11  170.19   17.34
   7   2 -10   11.16    5.05
  -7  -2  10   22.26    5.32
   7   2  -9  294.85   13.88
  -7  -2   9  325.10   14.42
   7   2  -8    2.72    3.96
  -7  -2   8   -7.81    6.91
   7   2  -7  511.15   20.17
  -7  -2   7  537.02   20.45
   7   2  -6   36.55    8.83
  -7  -2   6   36.10    5.36
   7   2  -5   42.97    5.38
  -7  -2   5   44.03    9.37
   7   2  -4  741.97   26.68
  -7  -2   4  773.41   27.42
   7   2  -3    1.30    3.65
  -7  -2   3    2.10    3.64
   7   2  -2  160.53   13.97
  -7  -2   2  177.30    8.90
   7   2  -1  508.39   26.21
  -7  -2   1  507.38   18.64
   7   2   0  169.07    8.66
   7   2   0  158.12    4.44
  -7  -2   0  188.86    8.67
   7   2   1  426.21   12.65
  -7  -2  -1  449.11   16.41
   7   2   2   92.14    4.73
  -7  -2  -2   82.56    6.65
   7   2   3    4.34    1.61
  -7  -2  -3   -1.92    3.75
   7   2   4  175.75    6.72
  -7  -2  -4  162.84   14.41
   7   2   5  118.98    3.78
  -7  -2  -5  119.94    7.69
   7   2   6  103.51    3.68
  -7  -2  -6  125.61    7.35
  -7  -2  -6   94.20    7.00
   7   2   7   59.45    3.31
  -7  -2  -7   71.47    6.38
  -7  -2  -7   50.64    5.76
  -7  -2  -8  186.03   10.86
  -7  -2  -8  187.22   15.43
  -7  -2  -9   60.94   11.63
  -7  -2  -9   69.71    6.32
  -7  -2 -10    9.36    5.06
  -7  -2 -10    6.86    4.57
  -7  -2 -11  155.63   10.30
  -7  -2 -11  115.93   15.29
  -7  -2 -12   59.68    7.49
  -7  -2 -12   44.67    6.71
  -7  -2 -13    1.75    9.65
  -7  -2 -13  -10.02    5.28
  -7  -2 -14  158.62   11.81
  -7  -2 -14  114.09   10.51
  -7  -2 -15   10.66    6.70
  -7  -2 -15   12.59    6.17
  -7  -2 -16   23.37    7.83
  -7  -2 -16   24.54   11.89
  -7  -2 -17   27.11    8.14
  -7  -2 -17   23.50    7.86
   7   3 -25   54.17   12.82
  -7  -3  25   45.94   12.51
   7   3 -24   33.31   18.41
  -7  -3  24   32.10   10.86
   7   3 -23   25.25   18.19
  -7  -3  23   51.70   11.32
   7   3 -22    1.67   13.94
  -7  -3  22   11.30    8.12
   7   3 -21  222.82   18.54
  -7  -3  21  205.82   18.30
   7   3 -20   11.98    7.89
  -7  -3  20   19.80   13.02
   7   3 -19  161.33   14.41
  -7  -3  19  158.09   14.55
   7   3 -18  139.47   12.69
  -7  -3  18  150.94   20.75
   7   3 -17   15.00   11.07
  -7  -3  17   11.95    6.72
   7   3 -16  349.88   18.55
  -7  -3  16  308.17   29.48
   7   3 -15    4.45    5.62
  -7  -3  15    9.58    5.84
   7   3 -14  200.67   12.92
  -7  -3  14  215.41   13.22
   7   3 -13   44.81    7.38
  -7  -3  13   73.03    7.70
   7   3 -12  246.23   13.37
  -7  -3  12  259.29   13.53
   7   3 -11   28.13    8.73
  -7  -3  11   15.11    5.56
   7   3 -10  158.95    9.61
  -7  -3  10  155.29    9.98
   7   3  -9    7.29    4.51
  -7  -3   9    6.70    4.61
   7   3  -8  658.23   25.12
  -7  -3   8  695.95   25.99
   7   3  -7  142.99    9.00
  -7  -3   7  165.58    9.24
   7   3  -6 1142.77   54.11
  -7  -3   6 1133.67   41.60
   7   3  -5    2.87    3.82
  -7  -3   5   -9.32    4.00
   7   3  -4  114.40    7.08
  -7  -3   4   90.34    7.07
   7   3  -3  516.04   18.91
  -7  -3   3  551.58   18.91
   7   3  -2   60.67    5.50
  -7  -3   2   55.70    5.60
   7   3  -1   15.51    2.42
   7   3  -1   22.69    6.97
  -7  -3   1   18.06    4.17
   7   3   0  203.43    9.34
   7   3   0  192.68    8.36
  -7  -3   0  210.90    9.28
   7   3   1   40.34    2.74
  -7  -3  -1   46.83    4.99
   7   3   2   36.26    2.61
  -7  -3  -2   39.36    4.84
   7   3   3  137.95    6.89
  -7  -3  -3  157.42   12.70
   7   3   4   78.76    3.47
  -7  -3  -4   83.62    6.30
   7   3   5  101.41    4.01
  -7  -3  -5  133.84   11.36
   7   3   6   90.09    5.83
  -7  -3  -6   67.08    6.58
  -7  -3  -6   73.44    5.98
   7   3   7  407.82   15.22
  -7  -3  -7  400.52   23.80
  -7  -3  -7  387.04   15.01
   7   3   8    0.72    2.58
  -7  -3  -8    5.42    4.18
  -7  -3  -8    4.10    3.88
  -7  -3  -9  213.48   11.41
  -7  -3  -9  192.96   16.43
  -7  -3 -10   77.45   12.47
  -7  -3 -10   79.95    6.94
  -7  -3 -11    7.63    4.84
  -7  -3 -11   -1.95    4.39
  -7  -3 -12   80.80    8.54
  -7  -3 -12   83.85   12.58
  -7  -3 -13   59.33    7.97
  -7  -3 -13   54.10    7.14
  -7  -3 -14   -3.48    9.42
  -7  -3 -14    6.21    5.35
  -7  -3 -15   52.75   13.19
  -7  -3 -15   34.40    7.38
  -7  -3 -16   39.82    8.48
  -7  -3 -16   34.75    8.03
   7   4 -25   55.82   12.67
  -7  -4  25   53.26   12.72
   7   4 -24   12.12    9.96
  -7  -4  24   19.90    9.80
   7   4 -23  163.78   25.61
  -7  -4  23  118.16   15.97
   7   4 -22  -17.66   13.09
  -7  -4  22    8.89   12.74
   7   4 -21  105.74   12.85
  -7  -4  21   83.55   12.69
   7   4 -20   59.57   10.56
  -7  -4  20   69.47   17.19
   7   4 -19   10.37    7.24
  -7  -4  19   13.60    7.26
   7   4 -18   21.70    8.27
  -7  -4  18   49.19    8.35
   7   4 -17  224.38   15.45
  -7  -4  17  224.89   15.56
   7   4 -16   16.84    6.66
  -7  -4  16   26.66    7.00
   7   4 -15  376.11   19.06
  -7  -4  15  369.85   19.33
   7   4 -14    2.65    5.00
  -7  -4  14    1.00    5.20
   7   4 -13  654.56   27.81
  -7  -4  13  688.44   29.01
   7   4 -12   25.23    5.72
  -7  -4  12   26.67    9.79
   7   4 -11  328.84   22.14
  -7  -4  11  311.28   15.09
   7   4 -10   33.57    5.66
  -7  -4  10   38.15    5.95
   7   4  -9   62.59    6.51
  -7  -4   9   64.37    6.66
   7   4  -8   54.49    6.22
  -7  -4   8   64.41    6.52
   7   4  -7  434.32   17.51
  -7  -4   7  465.34   17.77
   7   4  -6   44.17    5.49
  -7  -4   6   49.61    5.71
   7   4  -5  642.65   31.72
  -7  -4   5  693.57   24.37
   7   4  -4   15.61    4.33
  -7  -4   4   22.57    4.47
   7   4  -3  127.52    7.46
  -7  -4   3  144.67    7.72
   7   4  -2  245.55   10.23
  -7  -4   2  235.93   10.30
   7   4  -1   24.52    4.82
   7   4  -1   23.66    4.21
  -7  -4   1   19.93    4.27
   7   4   0  161.59    5.60
  -7  -4   0  165.55    8.14
   7   4   1    3.92    2.20
  -7  -4  -1    1.84    3.63
   7   4   2  303.18    8.47
  -7  -4  -2  344.83   18.75
   7   4   3    4.48    3.64
  -7  -4  -3    2.01    3.60
   7   4   4   83.71    6.22
  -7  -4  -4   71.38    6.24
   7   4   5  246.28    7.61
  -7  -4  -5  261.77   11.08
  -7  -4  -5  248.45   10.17
   7   4   6   33.75    3.28
  -7  -4  -6   38.50    5.06
  -7  -4  -6   37.75    4.63
   7   4   7   99.01    4.99
  -7  -4  -7  110.18    7.30
  -7  -4  -7   91.33   10.63
   7   4   8  147.12    6.36
  -7  -4  -8  153.91   13.95
  -7  -4  -8  134.10    8.16
   7   4   9    3.27    3.25
  -7  -4  -9   13.45    4.53
  -7  -4  -9   11.95    4.22
  -7  -4 -10   38.30    6.01
  -7  -4 -10   27.81    9.05
  -7  -4 -11  129.26   15.26
  -7  -4 -11  131.58    8.80
  -7  -4 -12   -3.04    5.01
  -7  -4 -12   -5.50    4.72
  -7  -4 -13   91.91    9.30
  -7  -4 -13   97.92   13.69
  -7  -4 -14    4.14    5.76
  -7  -4 -14   10.84    5.53
  -7  -4 -15   74.46    9.04
  -7  -4 -15   52.33   14.59
   7   5 -24   80.01   13.29
  -7  -5  24   64.96   13.27
   7   5 -23   -6.63    8.82
  -7  -5  23  -15.69    8.94
   7   5 -22  132.79   25.44
  -7  -5  22  162.00   25.70
   7   5 -21    6.68    7.96
  -7  -5  21   16.28    8.02
   7   5 -20   74.69   10.92
  -7  -5  20   69.75   11.04
   7   5 -19   -0.24    6.71
  -7  -5  19    9.70    6.76
   7   5 -18   96.11   11.12
  -7  -5  18  120.82   11.43
   7   5 -17   56.92    8.52
  -7  -5  17   52.23    8.76
   7   5 -16   12.20    6.36
  -7  -5  16   17.43    6.72
   7   5 -15  119.12    9.72
  -7  -5  15   91.08   10.13
   7   5 -14  161.09   10.92
  -7  -5  14  143.30   11.47
   7   5 -13   27.31    6.13
  -7  -5  13   37.25    6.42
   7   5 -12  382.86   17.60
  -7  -5  12  405.81   18.13
   7   5 -11    4.74    4.82
  -7  -5  11   15.76    4.94
   7   5 -10  139.63    8.60
  -7  -5  10  120.55    9.14
   7   5  -9  213.20   10.72
  -7  -5   9  209.56   11.12
   7   5  -8   -0.72    6.21
  -7  -5   8    1.01    3.94
   7   5  -7  199.74    9.91
  -7  -5   7  203.70   10.27
   7   5  -6  163.18    8.15
  -7  -5   6  157.35    8.75
   7   5  -5   21.41    7.29
  -7  -5   5   21.65    7.53
   7   5  -4  125.88   12.23
  -7  -5   4  156.66    7.84
   7   5  -3  158.90    8.12
  -7  -5   3  169.52    8.45
   7   5  -2  138.29    6.00
   7   5  -2  143.35    7.48
  -7  -5   2  150.91   12.05
   7   5  -1    4.90    3.53
   7   5  -1    3.43    2.63
  -7  -5   1    4.47    3.55
   7   5   0  229.55    7.78
  -7  -5   0  239.68    9.98
   7   5   1  124.19    5.30
  -7  -5  -1  125.79   11.19
   7   5   2    0.70    2.44
  -7  -5  -2    5.53    3.42
   7   5   3  288.15   13.07
  -7  -5  -3  303.42   11.96
   7   5   4   89.64    6.71
  -7  -5  -4   59.58    5.84
   7   5   5   -5.06    4.20
  -7  -5  -5    6.26    3.58
  -7  -5  -5    1.02    3.21
   7   5   6  435.00   18.12
  -7  -5  -6  436.59   16.69
  -7  -5  -6  415.55   15.00
   7   5   7    1.74    4.70
  -7  -5  -7   -3.77    6.54
  -7  -5  -7    8.13    3.61
   7   5   8  132.36    6.25
  -7  -5  -8  130.59    8.19
  -7  -5  -8  135.62   12.50
   7   5   9   15.47    3.94
  -7  -5  -9   19.64    4.60
  -7  -5  -9   28.33    4.91
  -7  -5 -10   71.52    7.03
  -7  -5 -10   63.55    6.49
  -7  -5 -11   -1.32    4.45
  -7  -5 -11    5.38    4.37
  -7  -5 -12   76.90    8.41
  -7  -5 -12   92.83    7.79
  -7  -5 -13   -0.97    8.89
  -7  -5 -13   10.77    5.12
  -7  -5 -14   33.92   11.21
  -7  -5 -14   30.62   10.93
   7   6 -24   49.39   11.32
  -7  -6  24   16.04   19.30
   7   6 -23   22.91    9.36
  -7  -6  23   14.50    9.44
   7   6 -22   28.55   17.02
  -7  -6  22   43.02   10.54
   7   6 -21   -3.88    7.52
  -7  -6  21   12.33    7.52
   7   6 -20   60.37   10.57
  -7  -6  20   73.69   10.57
   7   6 -19    9.18    6.93
  -7  -6  19   13.41   12.14
   7   6 -18   15.10    7.07
  -7  -6  18   16.07    7.34
   7   6 -17   33.46   12.00
  -7  -6  17   20.24   12.62
   7   6 -16  237.98   14.47
  -7  -6  16  251.04   15.78
   7   6 -15   31.49    6.86
  -7  -6  15   33.42    7.09
   7   6 -14  512.53   34.34
  -7  -6  14  536.68   24.68
   7   6 -13   10.04    4.88
  -7  -6  13    3.04    5.32
   7   6 -12  110.16    8.39
  -7  -6  12  106.91    8.71
   7   6 -11  151.26    9.52
  -7  -6  11  182.61   16.16
   7   6 -10   20.50    4.84
  -7  -6  10   15.25    5.06
   7   6  -9   86.05    6.74
  -7  -6   9   70.86   11.59
   7   6  -8  122.78   11.94
  -7  -6   8  105.67    7.70
   7   6  -7   86.14    6.66
  -7  -6   7  103.06    7.05
   7   6  -6  104.86    6.54
  -7  -6   6  100.56   11.26
   7   6  -5   38.32    4.80
  -7  -6   5   42.19    5.04
   7   6  -4  244.02   10.24
  -7  -6   4  243.40   10.34
   7   6  -3   81.22    9.33
  -7  -6   3   80.19    9.55
   7   6  -2    3.84    3.07
   7   6  -2    0.03    5.77
  -7  -6   2    2.96    3.48
   7   6  -1  499.11   16.70
   7   6  -1  444.81   14.23
  -7  -6   1  486.88   16.51
   7   6   0   30.23    3.74
  -7  -6   0   32.78    4.50
   7   6   1  277.98    9.39
  -7  -6  -1  298.05   11.29
   7   6   2   84.89    4.81
  -7  -6  -2   83.44    9.39
   7   6   3    5.68    2.83
  -7  -6  -3    7.20    3.58
   7   6   4  157.23    6.65
  -7  -6  -4  163.58    8.06
  -7  -6  -4  161.04    7.37
   7   6   5   76.95    4.71
  -7  -6  -5   73.09    5.32
  -7  -6  -5   76.72    5.85
   7   6   6    3.54    3.09
  -7  -6  -6    8.62    3.79
  -7  -6  -6    7.06    5.58
   7   6   7  166.03    7.63
  -7  -6  -7  183.10    8.47
  -7  -6  -7  188.32    9.18
   7   6   8   31.54    4.01
  -7  -6  -8   21.98    7.99
  -7  -6  -8   22.06    4.49
   7   6   9   38.05    5.23
  -7  -6  -9   63.61    5.64
  -7  -6  -9   57.86    5.82
   7   6  10   14.99    4.31
  -7  -6 -10   15.81    4.71
  -7  -6 -10   14.94    7.53
  -7  -6 -11   59.15   11.21
  -7  -6 -11   71.16    6.74
  -7  -6 -12   15.76    5.37
  -7  -6 -12   16.21    5.29
  -7  -6 -13    7.94    5.27
  -7  -6 -13   20.59    8.74
  -7  -6 -14   96.01    9.11
  -7  -6 -14   91.74    9.23
   7   7 -24    1.87    8.33
  -7  -7  24    3.36    8.74
   7   7 -23   45.64   19.80
  -7  -7  23   66.98   12.23
   7   7 -22  -12.81   14.13
  -7  -7  22  -12.19    8.64
   7   7 -21  147.75   15.59
  -7  -7  21  186.38   25.50
   7   7 -20   31.79    8.92
  -7  -7  20   33.72    8.96
   7   7 -19  118.70   12.50
  -7  -7  19  124.95   12.94
   7   7 -18   24.52    7.21
  -7  -7  18   14.09    7.57
   7   7 -17   14.97   10.76
  -7  -7  17   14.89    7.01
   7   7 -16   59.42    7.88
  -7  -7  16   56.58    8.62
   7   7 -15  120.56    9.72
  -7  -7  15  108.28   10.61
   7   7 -14   18.55    9.66
  -7  -7  14   23.10   10.35
   7   7 -13  408.65   18.44
  -7  -7  13  426.30   19.95
   7   7 -12    9.42    7.94
  -7  -7  12   12.10    8.51
   7   7 -11   56.37    5.84
  -7  -7  11   37.78    6.39
   7   7 -10  139.08   13.25
  -7  -7  10  136.22    8.82
   7   7  -9    3.16    4.03
  -7  -7   9    8.12    4.24
   7   7  -8  213.15   10.06
  -7  -7   8  213.74   10.43
  -7  -7   7   -6.24    3.93
   7   7  -6  305.59   12.45
  -7  -7   6  337.37   12.92
   7   7  -5   11.12    3.89
  -7  -7   5   18.31    6.71
   7   7  -4   82.63    5.70
  -7  -7   4   74.22    5.86
   7   7  -3  243.43   10.11
   7   7  -3  259.42   10.46
  -7  -7   3  270.61   10.65
   7   7  -2   18.59    3.83
   7   7  -2   14.64    3.66
  -7  -7   2   11.61    6.41
   7   7  -1    1.76    3.04
  -7  -7   1    0.10    3.22
   7   7   0  433.65   14.65
  -7  -7   0  460.05   15.65
   7   7   1   12.00    5.73
  -7  -7  -1   13.74    3.75
   7   7   2  131.44   10.42
  -7  -7  -2  144.52    7.15
   7   7   3  132.79   10.50
  -7  -7  -3  150.47   11.14
   7   7   4   -2.86    2.95
  -7  -7  -4   -5.47    2.92
  -7  -7  -4    2.30    3.27
   7   7   5  184.70    7.98
  -7  -7  -5  193.64   13.09
  -7  -7  -5  173.62    7.82
   7   7   6    2.33    3.13
  -7  -7  -6    1.84    3.48
  -7  -7  -6    1.34    3.23
   7   7   7  150.42    7.70
  -7  -7  -7  154.16    7.61
  -7  -7  -7  155.49   12.63
   7   7   8   -0.34    5.59
  -7  -7  -8    2.20    3.64
  -7  -7  -8   -3.36    5.75
   7   7   9  116.76   11.47
  -7  -7  -9  115.13    7.78
  -7  -7  -9  113.85    7.35
   7   7  10   23.18    4.82
  -7  -7 -10   17.08    7.83
  -7  -7 -10   15.40    4.83
  -7  -7 -11   13.93    4.92
  -7  -7 -11   21.20    5.09
  -7  -7 -12   23.47    5.34
  -7  -7 -12   18.62    5.30
  -7  -7 -13   84.11    7.72
  -7  -7 -13   74.06    8.17
   7   8 -24    4.74    9.07
  -7  -8  24   21.00    9.52
   7   8 -23   42.94   18.66
  -7  -8  23   60.52   19.29
   7   8 -22   23.85   15.87
  -7  -8  22   31.45    9.97
   7   8 -21    1.92    6.96
  -7  -8  21   -0.30    7.09
   7   8 -20  127.28   12.53
  -7  -8  20   99.16   12.90
   7   8 -19    6.86    6.11
  -7  -8  19   -9.65    6.45
   7   8 -18   62.23    9.17
  -7  -8  18   76.14   16.00
   7   8 -17   70.89    8.99
  -7  -8  17   81.27    9.79
   7   8 -16    6.51    5.27
  -7  -8  16   -0.56    5.81
   7   8 -15  135.18   10.07
  -7  -8  15  117.65   10.83
   7   8 -14   24.89    5.75
  -7  -8  14   15.39    6.17
   7   8 -13   21.23    5.38
  -7  -8  13   26.23    5.95
   7   8 -12  115.66   13.09
  -7  -8  12  111.01    8.95
   7   8 -11   38.44    5.87
  -7  -8  11   57.51    6.10
   7   8 -10   88.12    6.98
  -7  -8  10   99.24    7.42
   7   8  -9   32.39    5.03
  -7  -8   9   35.65    5.30
   7   8  -8   21.68    4.63
  -7  -8   8   37.22    4.95
   7   8  -7  256.54   11.13
  -7  -8   7  273.26   11.87
   7   8  -6   54.35    8.93
  -7  -8   6   65.20    9.27
   7   8  -5  414.45   21.44
  -7  -8   5  419.53   15.56
   7   8  -4   92.07    6.23
  -7  -8   4  113.48   10.21
   7   8  -3   -4.47    6.11
   7   8  -3    1.48    3.28
  -7  -8   3    5.80    3.36
   7   8  -2  295.85   11.20
   7   8  -2  290.32   11.36
  -7  -8   2  279.68   10.86
   7   8  -1   -0.90    3.43
  -7  -8   1   -7.53    5.31
   7   8   0   75.06    5.48
  -7  -8   0   68.33    5.18
   7   8   1  104.44    6.17
  -7  -8  -1  101.15    5.99
   7   8   2   43.91    4.93
  -7  -8  -2   56.45    4.54
   7   8   3   -0.78    5.57
  -7  -8  -3   -0.52    3.17
  -7  -8  -3    6.22    2.85
   7   8   4  144.65    7.29
  -7  -8  -4  138.34    6.39
  -7  -8  -4  157.07   11.15
   7   8   5   -2.40    3.28
  -7  -8  -5    4.16    3.06
  -7  -8  -5   -0.26    2.95
   7   8   6  163.22    8.26
  -7  -8  -6  145.57   11.98
  -7  -8  -6  158.75   11.66
   7   8   7   -4.96    3.62
  -7  -8  -7    0.74    3.45
  -7  -8  -7    1.27    5.32
   7   8   8  194.88   16.05
  -7  -8  -8  227.04   10.15
  -7  -8  -8  207.97    9.72
   7   8   9    8.71    4.25
  -7  -8  -9   11.71    4.10
  -7  -8  -9    3.82    6.73
   7   8  10   76.82    6.75
  -7  -8 -10   58.64    6.26
  -7  -8 -10   47.64   10.54
   7   8  11   -0.56    5.64
  -7  -8 -11   23.26    4.90
  -7  -8 -11   30.57    5.09
  -7  -8 -12    0.01    7.52
  -7  -8 -12   10.01    4.88
   7   9 -23    6.67   13.36
  -7  -9  23   -8.60    8.45
   7   9 -22  115.94   14.11
  -7  -9  22  132.49   15.30
   7   9 -21   -1.45    7.23
  -7  -9  21   -8.68    7.48
   7   9 -20   14.46    7.92
  -7  -9  20   29.07    8.39
   7   9 -19   65.81   10.04
  -7  -9  19   83.42   10.47
   7   9 -18    0.49   10.93
  -7  -9  18   20.96    7.28
   7   9 -17   15.56    6.20
  -7  -9  17    8.26   11.29
   7   9 -16   70.39    8.14
  -7  -9  16   82.30    9.32
   7   9 -15   11.91    8.47
  -7  -9  15    1.60    5.67
   7   9 -14   60.31    7.30
  -7  -9  14   73.12    8.05
   7   9 -13    6.95    4.30
  -7  -9  13   -5.23    4.69
   7   9 -12   87.75    7.27
  -7  -9  12   93.81    7.99
   7   9 -11   65.39    6.55
  -7  -9  11   76.38    7.25
   7   9 -10    4.53    4.21
  -7  -9  10   10.21    4.38
   7   9  -9  255.60   11.48
  -7  -9   9  270.52   12.16
   7   9  -8    5.51    3.48
  -7  -9   8   -5.54    3.67
   7   9  -7   76.05    5.83
  -7  -9   7   73.43    6.16
   7   9  -6  157.62    8.18
  -7  -9   6  164.58    8.28
   7   9  -5    2.94    3.42
  -7  -9   5    8.60    3.54
   7   9  -4  180.66    9.40
   7   9  -4  144.46    7.69
  -7  -9   4  184.15    7.99
   7   9  -3   65.88    5.26
   7   9  -3   69.39    6.01
  -7  -9   3   60.83    8.46
   7   9  -2    2.47    3.85
  -7  -9   2    6.33    3.25
   7   9  -1  183.56   14.41
  -7  -9   1  181.09    7.83
   7   9   0    3.49    3.70
  -7  -9   0    3.40    3.06
   7   9   1   60.47    5.54
  -7  -9  -1   62.61    4.83
   7   9   2   11.83    4.04
  -7  -9  -2    4.36    5.50
  -7  -9  -2   12.44    3.05
   7   9   3   36.64    8.23
  -7  -9  -3   40.43    6.28
  -7  -9  -3   44.19    4.24
   7   9   4   19.04    7.30
  -7  -9  -4   21.48    6.07
  -7  -9  -4   23.14    5.83
   7   9   5   27.47    4.72
  -7  -9  -5   19.61    6.08
  -7  -9  -5   26.14    3.93
   7   9   6   90.08    6.68
  -7  -9  -6   82.50    8.95
  -7  -9  -6   75.40    5.52
   7   9   7    9.19    8.26
  -7  -9  -7   22.48    4.12
  -7  -9  -7   24.03    4.12
   7   9   8    5.80    4.30
  -7  -9  -8    4.97    3.68
  -7  -9  -8    4.09    5.87
   7   9   9   72.58    7.51
  -7  -9  -9   97.33    6.43
  -7  -9  -9   95.81   10.80
   7   9  10    4.79    4.98
  -7  -9 -10    9.12    3.94
  -7  -9 -10   12.34    7.02
   7  10 -23   27.65   10.78
  -7 -10  23   61.53   11.33
   7  10 -22   -4.53    7.80
  -7 -10  22  -10.23    8.30
   7  10 -21   96.88   12.30
  -7 -10  21  103.72   13.27
   7  10 -20   11.07    6.76
  -7 -10  20   -0.47    7.26
   7  10 -19   23.01    7.68
  -7 -10  19   38.12   13.66
   7  10 -18   27.87    6.99
  -7 -10  18   27.24    7.73
   7  10 -17    6.03    5.74
  -7 -10  17   10.59    6.35
   7  10 -16   54.29    7.67
  -7 -10  16   78.42   14.19
   7  10 -15   -8.44    5.25
  -7 -10  15  -11.62    5.74
   7  10 -14   92.25    8.57
  -7 -10  14  124.33    9.63
   7  10 -13    4.73    7.18
  -7 -10  13   -5.47    4.81
   7  10 -12   -4.64    4.29
  -7 -10  12   -5.96    4.79
   7  10 -11   99.89    7.53
  -7 -10  11  107.10    8.16
   7  10 -10   57.71    5.80
  -7 -10  10   57.43    6.43
   7  10  -9    6.60    3.90
  -7 -10   9    6.79    6.99
   7  10  -8  296.69   12.30
  -7 -10   8  319.49   13.31
   7  10  -7    7.18    5.71
  -7 -10   7  -11.84    5.95
   7  10  -6   87.91    9.47
  -7 -10   6   89.03    6.26
   7  10  -5  167.31    9.66
   7  10  -5  146.32    7.45
  -7 -10   5  158.71   12.02
   7  10  -4    1.99    3.52
   7  10  -4   11.04    4.46
  -7 -10   4   11.94    3.47
   7  10  -3   52.18    4.91
   7  10  -3   69.00    6.09
  -7 -10   3   65.04    5.00
   7  10  -2   18.35    4.80
  -7 -10   2   14.49    3.62
   7  10  -1   48.34    5.53
  -7 -10   1   42.12    4.29
   7  10   0   -7.18    6.53
  -7 -10   0    0.99    4.81
   7  10   1   76.60    6.36
  -7 -10  -1   70.77    4.83
   7  10   2    7.03    4.06
  -7 -10  -2    0.99    4.37
  -7 -10  -2    4.74    4.97
   7  10   3   27.80    4.98
  -7 -10  -3   27.23    5.53
  -7 -10  -3   27.38    3.73
   7  10   4   21.89    7.89
  -7 -10  -4   17.95    3.33
  -7 -10  -4   19.74    3.53
   7  10   5  116.43    7.92
  -7 -10  -5  117.24    5.86
  -7 -10  -5  106.08    5.95
   7  10   6    0.54    4.16
  -7 -10  -6    2.99    3.02
  -7 -10  -6   -0.44    3.03
   7  10   7  114.98   13.50
  -7 -10  -7  109.43    6.40
  -7 -10  -7   96.38    6.21
   7  10   8   -3.24    4.36
  -7 -10  -8    2.35    3.43
  -7 -10  -8    5.36    5.22
   7  10   9   12.88    5.12
  -7 -10  -9    7.13    6.63
  -7 -10  -9   13.08    3.75
   7  11 -22    6.20    7.80
  -7 -11  22   13.38    8.37
   7  11 -21   23.25    8.51
  -7 -11  21   26.23    9.36
   7  11 -20   -2.61    6.66
  -7 -11  20   12.20    7.14
   7  11 -19   18.71   12.62
  -7 -11  19   32.94    8.51
   7  11 -18   18.54    6.58
  -7 -11  18   15.46   12.53
   7  11 -17   22.99    6.27
  -7 -11  17   17.16    7.05
   7  11 -16    1.47    8.56
  -7 -11  16    5.83    5.72
   7  11 -15   93.99    9.09
  -7 -11  15  124.33   16.64
  -7 -11  15  127.72   16.41
   7  11 -14   25.13    5.63
  -7 -11  14   23.17    6.35
   7  11 -13   94.15    7.89
  -7 -11  13  106.79    9.00
   7  11 -12   -2.78    6.90
  -7 -11  12   -3.51    4.71
   7  11 -11    2.53    3.83
  -7 -11  11   -5.44    4.36
   7  11 -10   67.39    5.94
  -7 -11  10   43.64   10.79
   7  11  -9   25.83    7.87
  -7 -11   9   33.36    5.19
   7  11  -8    8.69    3.73
  -7 -11   8    8.38    6.98
   7  11  -7   92.35    6.12
  -7 -11   7   88.55    6.53
   7  11  -6   42.19    6.03
   7  11  -6   34.15    4.26
  -7 -11   6   18.64    4.42
   7  11  -5   20.41    8.81
   7  11  -5   15.41    3.65
  -7 -11   5   10.71    3.76
   7  11  -4   66.97    5.18
   7  11  -4   80.12    7.25
  -7 -11   4   87.83    8.64
   7  11  -3   13.11    4.62
  -7 -11   3    2.07    3.21
   7  11  -2   39.47    9.33
  -7 -11   2   30.98    6.47
   7  11  -1   -2.90    4.14
  -7 -11   1    1.73    2.80
   7  11   0  146.50    9.69
  -7 -11   0  146.32   10.07
   7  11   1   19.88    9.07
  -7 -11  -1   23.91    3.69
  -7 -11  -1   33.95    3.22
   7  11   2   90.12    7.36
  -7 -11  -2   78.37    7.88
  -7 -11  -2   83.02    4.41
   7  11   3   33.51    5.23
  -7 -11  -3   18.35    3.36
  -7 -11  -3   20.70    3.25
   7  11   4   12.88    8.09
  -7 -11  -4   10.81    3.01
  -7 -11  -4    8.43    5.12
   7  11   5    7.39    4.74
  -7 -11  -5    8.21    3.07
  -7 -11  -5   10.40    3.11
   7  11   6   44.96    6.59
   7  11   7    8.63    8.68
   7  11   8   18.39    5.82
   7  12 -21    0.31    6.99
  -7 -12  21   -9.64    7.59
   7  12 -20   40.80   14.74
  -7 -12  20   49.88   10.32
   7  12 -19   -8.71    6.08
  -7 -12  19   -0.96    7.04
   7  12 -18   22.51    6.74
  -7 -12  18   19.58    7.74
   7  12 -17   25.57   10.12
  -7 -12  17   11.02    6.95
   7  12 -16    3.56    5.49
  -7 -12  16   20.18    6.24
   7  12 -15   11.00    5.05
  -7 -12  15    4.41    5.96
   7  12 -14   30.47    6.02
  -7 -12  14   39.95    6.92
   7  12 -13    4.07    4.18
  -7 -12  13    0.56    4.87
   7  12 -12   18.71    5.23
  -7 -12  12   41.39    5.99
   7  12 -11    2.97    6.72
  -7 -12  11  -14.97    7.73
   7  12 -10    8.20    4.09
  -7 -12  10   10.65    4.59
   7  12  -9   48.69    5.40
  -7 -12   9   69.55    6.17
   7  12  -8   13.94    3.94
  -7 -12   8   13.88    7.12
   7  12  -7   21.65    5.83
   7  12  -7   19.98    6.49
  -7 -12   7   11.96    4.28
   7  12  -6    8.84    5.48
   7  12  -6    8.92    5.81
  -7 -12   6    6.00    6.15
   7  12  -5   33.87    7.71
   7  12  -5   59.01    7.07
  -7 -12   5   65.38    5.13
   7  12  -4    0.25    2.92
   7  12  -4    7.05    7.82
  -7 -12   4    5.64    5.12
   7  12  -3    1.21    4.50
  -7 -12   3   -0.05    2.88
   7  12  -2   55.95    6.72
  -7 -12   2   45.24    6.97
   7  12  -1   -6.40    7.80
  -7 -12   1    4.22    2.80
   7  12   0    0.87    4.71
  -7 -12   0    3.83    4.53
  -7 -12   0    2.60    2.34
   7  12   1  100.08    7.72
  -7 -12  -1   73.55    4.60
  -7 -12  -1   69.18    4.06
   7  12   2    4.93    8.08
  -7 -12  -2    0.97    4.47
  -7 -12  -2    6.99    2.53
   7  12   3   10.89    5.12
   7  12   4   72.87    7.47
   7  12   5   -2.98    4.95
   7  12   6   16.52    5.93
   7  13 -20    4.84    6.75
  -7 -13  20   11.77    7.58
   7  13 -19   20.47    7.26
  -7 -13  19   30.81    8.43
   7  13 -18   -1.52    5.33
  -7 -13  18    3.71   10.28
   7  13 -17    9.19    5.68
  -7 -13  17   10.74    6.76
   7  13 -16   31.57    6.43
  -7 -13  16   25.61    7.48
   7  13 -15    0.67    8.19
  -7 -13  15   17.33    9.88
   7  13 -14    5.87    4.65
  -7 -13  14    5.35    5.42
   7  13 -13    3.52    7.61
  -7 -13  13   12.32    5.34
   7  13 -12    8.58    4.22
  -7 -13  12   -2.54    8.23
   7  13 -11    4.53    3.89
  -7 -13  11    1.96    4.38
   7  13 -10    6.64    6.26
  -7 -13  10    5.43    4.48
   7  13  -9   77.68    9.36
  -7 -13   9   69.67   11.06
   7  13  -8    6.04    5.70
   7  13  -8    6.99    3.65
  -7 -13   8    5.95    4.04
   7  13  -7   83.64    8.19
   7  13  -7   47.55    4.94
  -7 -13   7   63.01    5.71
   7  13  -6   21.88    3.95
   7  13  -6   35.69    6.63
  -7 -13   6   20.88    6.98
   7  13  -5    5.68    3.21
   7  13  -5    3.63    8.98
  -7 -13   5    9.52    3.42
   7  13  -4   18.35    5.47
  -7 -13   4    3.44    3.27
   7  13  -3   79.36   13.97
  -7 -13   3   76.94    4.94
   7  13  -2   63.37    7.42
  -7 -13   2   47.42    4.13
   7  13  -1  109.93    8.94
  -7 -13   1   85.17    7.34
  -7 -13   1   83.56    4.16
   7  13   0   -9.76    9.25
   7  13   1   31.58    6.59
   7  13   2   16.93    5.92
   7  13   3   36.24    6.81
   7  13   4    5.80    5.40
   7  14 -18    4.06    6.10
  -7 -14  18   15.07    7.04
   7  14 -17   -3.73    5.34
  -7 -14  17   -4.49    6.38
   7  14 -16   36.10   10.24
  -7 -14  16   18.81   12.35
   7  14 -15  -13.37    4.79
  -7 -14  15    9.06    5.68
   7  14 -14    5.12    7.23
  -7 -14  14    1.69    5.42
   7  14 -13   -3.94    4.23
  -7 -14  13    3.05    8.48
   7  14 -12    9.87    4.43
  -7 -14  12    8.20    5.13
   7  14 -11    5.05    6.12
  -7 -14  11   -2.02    4.35
   7  14 -10   26.22    4.57
  -7 -14  10   26.91    5.45
   7  14  -9   32.96    7.03
   7  14  -9   15.06    4.17
  -7 -14   9   10.85    7.95
   7  14  -8  197.44   13.59
   7  14  -8  159.40    8.01
  -7 -14   8  150.86    9.17
   7  14  -7   14.70    3.85
   7  14  -7   24.85    6.92
  -7 -14   7   21.41    4.39
   7  14  -6   44.24    4.33
   7  14  -6   41.32    7.98
  -7 -14   6   41.84    7.82
   7  14  -5   -1.56    6.00
  -7 -14   5   10.68    3.36
   7  14  -4   11.78   10.50
   7  14  -3    2.43    5.53
   7  14  -2   57.26   13.61
   7  14  -1    2.65    5.58
   7  14   0   82.08    9.26
   7  14   1   -1.07    5.44
   7  14   2    0.79    5.28
   7  15 -16   18.50    5.94
  -7 -15  16   24.41    7.13
   7  15 -15   15.81    8.96
  -7 -15  15   15.16    6.59
   7  15 -14    5.37    4.58
  -7 -15  14    6.31    9.44
   7  15 -13   34.08    9.29
  -7 -15  13   35.63   11.09
   7  15 -12   -3.67    4.20
  -7 -15  12   -6.65    5.06
   7  15 -11   -0.73    3.54
  -7 -15  11    3.68    4.38
   7  15 -10   11.67    6.47
   7  15 -10    3.87    3.61
  -7 -15  10    0.63    4.44
   7  15  -9   38.13    7.46
   7  15  -9    7.92    3.73
  -7 -15   9    8.91    7.39
   7  15  -8    8.23    6.53
  -7 -15   8    6.36    3.92
   7  15  -7  109.61   10.99
   7  15  -6   -2.19    6.08
   7  15  -5   23.76    7.34
   7  15  -4   11.93    6.45
   7  15  -3   -4.00    6.03
   7  15  -2    9.59    6.40
   7  15  -1    7.91   10.58
   7  16 -12    7.90    3.98
  -7 -16  12    8.56    5.07
   7  16 -11    9.78    7.61
   7  16 -10   16.55    8.05
   7  16  -9    3.17    6.84
   7  16  -8    1.44    6.40
   7  16  -7   -9.43    7.22
   7  16  -6    5.96    6.85
   7  16  -5    3.74    6.56
  -8  18   1    7.82    7.84
  -8  18   1   10.15    3.95
  -8  18   0   13.82    4.42
  -8  18   0   20.55    5.23
  -8  18  -1   21.75    4.47
  -8  18  -1   11.17    5.16
  -8  18  -2   14.03    8.02
  -8  18  -2    3.25    6.91
  -8  18  -3   17.09    5.09
  -8  18  -3   29.63    5.73
  -8  18  -4   10.76    5.59
  -8  18  -4   26.31    5.14
  -8  18  -5    0.04    8.31
  -8  18  -5   -6.86    7.68
  -8  17   5   42.44    6.23
  -8  17   4   16.62    5.17
  -8  17   3   16.70    8.47
  -8  17   2    2.55    4.41
  -8  17   1   26.83    4.69
  -8  17   1   27.31    5.61
  -8  17   0   22.25    4.92
  -8  17   0    5.51    4.20
  -8  17  -1   19.90    8.61
  -8  17  -1   19.56    7.51
  -8  17  -2   35.23    5.29
  -8  17  -2   43.06    6.11
  -8  17  -3    6.63    4.77
  -8  17  -3    2.00    4.18
  -8  17  -4   29.87    6.31
  -8  17  -4   34.64    5.70
  -8  17  -5   13.99    6.27
  -8  17  -5   34.56    5.65
  -8  17  -6   28.69   10.94
  -8  17  -6   22.87    9.84
  -8  17  -7   -2.36    5.30
  -8  17  -7    3.30    4.81
  -8  17  -8   67.42    7.90
  -8  17  -8   57.81    9.05
  -8  17  -9   22.28    6.98
  -8  17  -9   12.13    6.39
   8 -16  -8    2.29    5.51
  -8  16   8   18.44    5.09
   8 -16  -7   14.76    9.03
  -8  16   7   15.05    5.22
   8 -16  -6   12.42    5.30
  -8  16   6   14.49    5.00
   8 -16  -5   67.89    6.42
  -8  16   5   26.98   10.94
  -8  16   4   -3.42    4.48
  -8  16   3   54.98    6.54
  -8  16   2   -4.35    4.45
  -8  16   1   35.08    9.05
  -8  16   1   23.20    9.35
  -8  16   0   13.43    4.89
  -8  16  -1   18.63    5.77
  -8  16  -1   39.43    5.03
  -8  16  -2   15.86    4.49
  -8  16  -2    9.06    8.69
  -8  16  -3   26.17    6.03
  -8  16  -3   24.36    5.13
  -8  16  -4   42.92    6.95
  -8  16  -4   43.74    5.95
  -8  16  -5   23.23    6.11
  -8  16  -5   16.50    5.62
  -8  16  -6   32.96    6.53
  -8  16  -6   12.80    5.75
  -8  16  -7   38.30    7.49
  -8  16  -7   34.03   10.99
  -8  16  -8   24.75    6.43
  -8  16  -8    2.92    5.88
  -8  16  -9   34.11    8.30
  -8  16  -9   46.10    7.49
  -8  16 -10   32.01   13.33
  -8  16 -10   25.30    7.23
  -8  16 -11    6.21    7.00
  -8  16 -11    3.71    6.15
   8 -15 -10   89.01    8.71
   8 -15 -10   90.98    9.11
  -8  15  10   79.40    8.38
   8 -15  -9    3.95    4.55
   8 -15  -9   -1.02    4.68
  -8  15   9   -2.43    4.41
   8 -15  -8   56.36    7.43
   8 -15  -8   39.87   12.19
  -8  15   8   99.62    7.64
   8 -15  -7    1.27    4.21
  -8  15   7    0.37    7.40
   8 -15  -6   19.52    5.06
  -8  15   6   21.67    5.44
   8 -15  -5   26.99    5.10
  -8  15   5   27.10    5.65
   8 -15  -4   25.79    4.66
  -8  15   4   23.41    5.37
  -8  15   3   14.06    8.33
  -8  15   2   34.45    5.98
  -8  15   1   23.21    5.27
  -8  15   0   46.69   10.43
  -8  15  -1   13.44    5.12
  -8  15  -2   14.47    5.61
  -8  15  -2   25.44    4.89
  -8  15  -3   55.38    6.23
  -8  15  -3   46.56   11.61
  -8  15  -4    2.72    4.42
  -8  15  -4  -10.05    4.97
  -8  15  -5  121.98   16.59
  -8  15  -5  124.70    9.10
  -8  15  -6   11.37    5.04
  -8  15  -6    1.71    5.65
  -8  15  -7   33.57   11.46
  -8  15  -7   23.25    6.27
  -8  15  -8   62.03    8.25
  -8  15  -8   14.62   12.05
  -8  15  -9   11.59    6.26
  -8  15  -9   36.37   11.49
  -8  15 -10   23.94    7.94
  -8  15 -10   29.77    7.12
  -8  15 -11   49.91    9.45
  -8  15 -11   43.66    8.37
  -8  15 -12   21.71   14.23
  -8  15 -12   22.69    7.44
  -8  15 -13   10.47    8.16
  -8  15 -13   15.63   12.31
   8 -14 -12   15.18    9.32
   8 -14 -12    4.32    5.78
  -8  14  12   13.73    8.99
   8 -14 -11   15.46    6.09
   8 -14 -11   16.28    6.20
  -8  14  11   25.50    5.87
   8 -14 -10   10.69    5.67
   8 -14 -10   14.72    5.55
  -8  14  10   11.99    5.43
   8 -14  -9  104.39   13.82
   8 -14  -9   88.21   13.52
  -8  14   9   75.75   13.21
   8 -14  -8    4.82    4.78
   8 -14  -8    2.20    4.35
  -8  14   8   -0.33    4.62
   8 -14  -7   68.09    6.93
   8 -14  -7   55.89    6.26
  -8  14   7   31.50    6.67
   8 -14  -6   18.20    4.76
  -8  14   6   32.91    5.50
   8 -14  -5    1.79    3.60
  -8  14   5    0.24    7.17
   8 -14  -4   85.90    6.09
  -8  14   4   83.95    7.47
  -8  14   3    0.56    4.21
  -8  14   2   99.79    7.97
  -8  14   1   13.27    4.94
  -8  14   0   95.72    7.91
  -8  14  -1   33.76    6.05
  -8  14  -2    5.89    4.86
  -8  14  -3   21.39    5.92
  -8  14  -3   26.56    5.37
  -8  14  -4   79.46    7.49
  -8  14  -4   90.25   13.42
  -8  14  -5    4.00    4.98
  -8  14  -5   -3.49    4.30
  -8  14  -6  100.62   14.89
  -8  14  -6   81.41    8.02
  -8  14  -7   26.35    6.66
  -8  14  -7   16.59    5.90
  -8  14  -8   20.44    6.64
  -8  14  -8    9.09    5.84
  -8  14  -9   87.35    8.94
  -8  14  -9   70.75   10.40
  -8  14 -10   29.20    7.58
  -8  14 -10   10.60    6.63
  -8  14 -11   47.03    9.62
  -8  14 -11   54.05   13.94
  -8  14 -12   24.65    8.37
  -8  14 -12   15.98    7.41
  -8  14 -13   68.73   11.07
  -8  14 -13   61.17   10.14
  -8  14 -14   -8.60    8.29
  -8  14 -14   -8.79    7.50
   8 -13 -13   12.91   11.90
   8 -13 -13   29.81    7.22
  -8  13  13   48.40    6.97
   8 -13 -12   -0.77    5.16
   8 -13 -12    2.30    5.13
  -8  13  12    2.85    4.90
   8 -13 -11  125.94   10.66
   8 -13 -11  152.91   16.84
  -8  13  11  149.37   16.40
   8 -13 -10   -9.33    8.14
   8 -13 -10   -0.70    4.69
  -8  13  10   -0.92    4.77
   8 -13  -9   26.97    6.17
   8 -13  -9   28.24    5.65
  -8  13   9   28.62    6.05
   8 -13  -8   13.60    5.30
   8 -13  -8    2.63    4.68
  -8  13   8   15.13    5.03
   8 -13  -7    6.29    5.05
   8 -13  -7    7.25    4.14
  -8  13   7    6.67    7.90
   8 -13  -6   16.06    5.61
   8 -13  -6   33.01    4.50
  -8  13   6   16.97    5.40
   8 -13  -5   25.12    6.88
  -8  13   5   24.22    5.35
   8 -13  -4    5.85    3.28
  -8  13   4    2.68    7.49
   8 -13  -3  101.25    5.74
  -8  13   3  105.56    8.14
  -8  13   2   -5.01    4.43
  -8  13   1  224.46   11.80
  -8  13   0    2.49    4.48
  -8  13  -1   45.74    6.43
  -8  13  -2   87.17   13.28
  -8  13  -3    1.80    4.74
  -8  13  -4   78.94    8.33
  -8  13  -4   82.27    7.48
  -8  13  -5   35.12    7.15
  -8  13  -5   42.58   10.25
  -8  13  -6    3.42    5.33
  -8  13  -6    1.14    4.75
  -8  13  -7   41.60    8.07
  -8  13  -7   66.94   11.55
  -8  13  -8   50.48   13.06
  -8  13  -8   29.42    6.99
  -8  13  -9   20.38    7.15
  -8  13  -9   16.73    6.36
  -8  13 -10   82.98   10.46
  -8  13 -10   72.57    9.27
  -8  13 -11   25.04   14.58
  -8  13 -11   37.92    7.77
  -8  13 -12   91.09   11.57
  -8  13 -12   79.93   10.43
  -8  13 -13    9.30    7.29
  -8  13 -13   -3.54    6.54
  -8  13 -14   91.14   12.64
  -8  13 -14   62.39   18.41
  -8  13 -15   11.67   14.58
  -8  13 -15   11.24    8.02
   8 -12 -15   11.52    6.81
   8 -12 -15   15.80    6.97
  -8  12  15   34.72    6.71
   8 -12 -14    1.25    5.70
   8 -12 -14   18.32    9.60
  -8  12  14    2.83    5.41
   8 -12 -13    4.18    9.30
   8 -12 -13    8.10    5.83
  -8  12  13   12.35    9.16
   8 -12 -12   89.47    8.97
   8 -12 -12   76.95   13.67
  -8  12  12   83.08    8.56
   8 -12 -11    2.56    8.86
   8 -12 -11    4.49    4.94
  -8  12  11    7.76    5.06
   8 -12 -10  167.24   11.27
   8 -12 -10  156.35    9.92
  -8  12  10  168.13   17.01
   8 -12  -9    2.77    4.97
   8 -12  -9    1.30    4.19
  -8  12   9    7.65    4.76
   8 -12  -8   31.58    5.95
   8 -12  -8   16.72    7.92
  -8  12   8   20.15    5.70
   8 -12  -7   18.79    5.52
   8 -12  -7   20.05    4.32
  -8  12   7   20.33    5.30
   8 -12  -6    4.79    4.97
   8 -12  -6    3.38    5.91
  -8  12   6   12.77    7.72
   8 -12  -5   72.64    7.44
   8 -12  -5   75.64    5.23
  -8  12   5   57.68    7.05
   8 -12  -4   -1.08    4.42
   8 -12  -4    5.82    4.57
  -8  12   4   -1.20    4.22
   8 -12  -3   97.16    8.19
  -8  12   3  105.52   12.66
   8 -12  -2   54.16    3.75
  -8  12   2   48.32    6.44
  -8  12   1   20.04    5.32
  -8  12   0  183.31   10.75
  -8  12  -1   22.95    5.63
  -8  12  -2   22.58    5.84
  -8  12  -3  150.02   16.75
  -8  12  -4    0.18    5.34
  -8  12  -4   11.31    4.84
  -8  12  -5   28.30    5.80
  -8  12  -5   17.61   10.76
  -8  12  -6   69.31    8.95
  -8  12  -6   93.53    8.07
  -8  12  -7   27.65    7.20
  -8  12  -7   30.31    6.24
  -8  12  -8   57.91    8.87
  -8  12  -8   61.66    8.02
  -8  12  -9   50.31    8.40
  -8  12  -9   29.41    7.27
  -8  12 -10   27.15   16.40
  -8  12 -10   92.06   14.49
  -8  12 -11    7.08    6.82
  -8  12 -11   25.89    7.64
  -8  12 -12   85.08   11.67
  -8  12 -12   77.55   16.53
  -8  12 -13   21.89    9.45
  -8  12 -13   37.97    8.28
  -8  12 -14   24.21   15.49
  -8  12 -14   23.57    8.46
  -8  12 -15   38.87   11.13
  -8  12 -15   46.26   10.03
   8 -11 -16   -1.97    9.94
   8 -11 -16    5.22   10.18
  -8  11  16    5.41    5.80
   8 -11 -15   16.13   11.44
   8 -11 -15   34.54    7.21
  -8  11  15   15.19   11.44
   8 -11 -14   32.35   11.02
   8 -11 -14   26.18    7.08
  -8  11  14   24.97    6.72
   8 -11 -13   -6.51    4.99
   8 -11 -13   -0.55    5.44
  -8  11  13   -2.69    5.07
   8 -11 -12   63.12    7.33
   8 -11 -12   72.31    8.07
  -8  11  12   40.22   12.57
   8 -11 -11   40.65    5.86
   8 -11 -11   34.14    6.82
  -8  11  11   26.84    6.38
   8 -11 -10   12.83    4.88
   8 -11 -10   12.82    9.49
  -8  11  10   19.12    5.38
   8 -11  -9   19.17    5.77
   8 -11  -9   21.09    7.89
  -8  11   9   28.66    9.19
   8 -11  -8   13.65    5.69
   8 -11  -8   27.64    4.55
  -8  11   8   20.93    5.53
   8 -11  -7    0.89    5.09
   8 -11  -7   13.22    3.75
  -8  11   7    9.72    4.88
   8 -11  -6   43.70    6.61
   8 -11  -6   45.85    4.70
  -8  11   6   64.55    6.43
   8 -11  -5    7.84    4.95
   8 -11  -5    5.66    3.15
  -8  11   5    4.12    7.69
   8 -11  -4  156.10   10.88
   8 -11  -4  169.44    6.96
  -8  11   4  184.01   10.15
   8 -11  -3    1.24    2.45
  -8  11   3    5.69    4.27
   8 -11  -2  164.01    5.75
  -8  11   2  165.05   15.96
  -8  11   1   91.60    7.89
  -8  11   0   31.60    5.88
  -8  11  -1  189.72   17.89
  -8  11  -2    6.24    5.06
  -8  11  -3   86.08    8.41
  -8  11  -4    5.37    5.20
  -8  11  -5  136.87   11.06
  -8  11  -5  147.29   10.06
  -8  11  -6   13.46    5.96
  -8  11  -6    0.03    8.81
  -8  11  -7  165.63   19.08
  -8  11  -7  136.36   10.36
  -8  11  -8   21.87    6.52
  -8  11  -8   36.21    7.59
  -8  11  -9  103.49   10.86
  -8  11  -9   83.39    9.49
  -8  11 -10  -10.79    6.70
  -8  11 -10   -1.95    5.88
  -8  11 -11  212.23   16.39
  -8  11 -11  195.03   14.46
  -8  11 -12    1.29    6.99
  -8  11 -12   -5.10    6.01
  -8  11 -13   52.25   21.89
  -8  11 -13  127.34   12.25
  -8  11 -14   14.94    7.89
  -8  11 -14   -3.47    6.93
  -8  11 -15   47.99   11.31
  -8  11 -15   46.18   10.37
  -8  11 -16   37.85   10.20
  -8  11 -16   13.69    9.30
   8 -10 -17   -6.39    6.15
   8 -10 -17  -12.23    6.68
  -8  10  17    0.60    6.12
   8 -10 -16   28.74    6.77
   8 -10 -16   21.18    7.37
  -8  10  16   16.41    7.08
   8 -10 -15   17.09    6.13
   8 -10 -15   16.90    6.68
  -8  10  15   17.23    6.24
   8 -10 -14   12.75    5.12
   8 -10 -14    0.56    9.68
  -8  10  14    2.41    9.27
   8 -10 -13   61.70    7.26
   8 -10 -13   64.78    7.88
  -8  10  13   59.01    7.90
   8 -10 -12   -4.05    4.42
   8 -10 -12    1.89    5.13
  -8  10  12   -5.72    4.93
   8 -10 -11  161.92    9.23
   8 -10 -11  136.43   17.61
  -8  10  11  147.86   16.79
   8 -10 -10   18.64    7.52
   8 -10 -10   19.71    5.57
  -8  10  10    7.24    5.29
   8 -10  -9   82.26    6.50
   8 -10  -9   98.16    8.27
  -8  10   9   63.41    7.74
   8 -10  -8   14.53    3.78
   8 -10  -8   -1.84    5.06
  -8  10   8    1.81    8.09
   8 -10  -7   19.42    5.47
   8 -10  -7   20.53    6.47
  -8  10   7   19.42    5.44
   8 -10  -6   72.69    7.75
   8 -10  -6   77.33    5.24
  -8  10   6   89.69    7.43
   8 -10  -5   22.98    5.64
   8 -10  -5   24.77    5.60
  -8  10   5   23.21    5.39
   8 -10  -4   51.87    7.39
   8 -10  -4   68.60    4.08
  -8  10   4   68.89   11.36
   8 -10  -3   49.46    7.16
   8 -10  -3   62.60    3.59
  -8  10   3   62.27    6.52
   8 -10  -2   13.26    2.29
  -8  10   2   17.42    4.97
  -8  10   1  105.16   13.22
  -8  10   0  194.00   11.22
  -8  10  -1   16.87    5.39
  -8  10  -2  171.08   11.13
  -8  10  -3   -7.47    5.20
  -8  10  -4  246.07   14.38
  -8  10  -5    2.67    4.96
  -8  10  -5   -1.70    4.50
  -8  10  -6  383.62   18.21
  -8  10  -6  392.72   20.18
  -8  10  -7   13.94    6.13
  -8  10  -7    1.90    5.32
  -8  10  -8   94.68   10.19
  -8  10  -8   76.68    8.58
  -8  10  -9   45.10   14.37
  -8  10  -9   50.05    7.83
  -8  10 -10   90.74   10.17
  -8  10 -10   60.54    8.83
  -8  10 -11   12.76    6.65
  -8  10 -11   22.33    7.80
  -8  10 -12  116.50   13.43
  -8  10 -12  126.47   11.60
  -8  10 -13    4.39   12.02
  -8  10 -13   -5.88    6.42
  -8  10 -14   58.20   11.10
  -8  10 -14   50.41    9.82
  -8  10 -15   49.56   11.07
  -8  10 -15   45.52   17.06
  -8  10 -16   24.76   10.86
  -8  10 -16   44.96   10.12
   8  -9 -18   16.36    9.16
   8  -9 -18   66.57    8.52
  -8   9  18   40.96   14.29
   8  -9 -17    8.33    6.38
   8  -9 -17   -6.68    5.78
  -8   9  17   10.88    6.01
   8  -9 -16   18.37   10.93
   8  -9 -16    3.45    5.89
  -8   9  16   19.11   10.26
   8  -9 -15   13.53    6.84
   8  -9 -15   21.87    5.97
  -8   9  15   14.92    6.43
   8  -9 -14    9.02    6.40
   8  -9 -14   20.53    5.51
  -8   9  14   13.89    5.93
   8  -9 -13    6.04    9.69
   8  -9 -13   10.75    4.93
  -8   9  13    3.94    9.03
   8  -9 -12   12.83    5.83
   8  -9 -12   20.84    5.06
  -8   9  12   14.19    5.92
   8  -9 -11  154.50   13.71
   8  -9 -11  152.08   10.43
  -8   9  11  109.08   10.09
   8  -9 -10   26.09    4.72
   8  -9 -10   24.29   10.19
  -8   9  10   25.00    9.89
   8  -9  -9   24.89    4.23
   8  -9  -9   13.47    5.69
  -8   9   9   11.02    5.53
   8  -9  -8   80.17    5.67
   8  -9  -8   65.69   12.77
  -8   9   8   75.50    7.62
   8  -9  -7   49.54    4.72
   8  -9  -7   71.63    7.06
  -8   9   7   52.01   10.83
   8  -9  -6   -3.37    2.80
   8  -9  -6    4.55    4.44
  -8   9   6   -0.64    4.32
   8  -9  -5  189.93   11.88
   8  -9  -5  217.62    7.44
  -8   9   5  215.15   11.61
   8  -9  -4   -3.92    7.70
   8  -9  -4    5.24    3.96
  -8   9   4    3.23    4.42
   8  -9  -3  100.00    8.29
   8  -9  -3  101.53    4.11
  -8   9   3  100.72    8.01
   8  -9  -2   12.93    4.58
   8  -9  -2    0.35    2.94
  -8   9   2   -1.06    4.38
   8  -9  -1  139.57    3.81
  -8   9   1  145.78    9.51
  -8   9   0   53.73    6.68
  -8   9  -1   85.68    8.09
  -8   9  -2  175.55   17.68
  -8   9  -3    9.54    5.31
  -8   9  -4   78.72   13.89
  -8   9  -5  281.10   15.83
  -8   9  -6   -9.56    9.10
  -8   9  -6    5.68    4.93
  -8   9  -7  176.20   13.26
  -8   9  -7  169.38   18.35
  -8   9  -8   39.29    8.77
  -8   9  -8   66.96    7.53
  -8   9  -9    3.32   11.34
  -8   9  -9   21.03   10.22
  -8   9 -10  153.76   12.89
  -8   9 -10  134.40   11.61
  -8   9 -11   23.57    7.78
  -8   9 -11    9.76   11.72
  -8   9 -12   15.09   14.67
  -8   9 -12   39.00    7.62
  -8   9 -13   27.53    8.94
  -8   9 -13   21.37   13.16
  -8   9 -14   99.00   12.28
  -8   9 -14   67.26   10.96
  -8   9 -15   42.63   10.78
  -8   9 -15   43.65   15.52
  -8   9 -16   43.47   10.98
  -8   9 -16   29.25   10.02
  -8   9 -17   57.68   12.78
  -8   9 -17   60.84   11.45
   8  -8 -19   13.12   11.30
   8  -8 -19    3.29   12.19
  -8   8  19    8.09    7.12
   8  -8 -18    6.49   11.31
   8  -8 -18   26.05    7.48
  -8   8  18    4.61    6.84
   8  -8 -17   11.30    5.81
   8  -8 -17   -5.12    6.45
  -8   8  17    4.35    6.03
   8  -8 -16   50.36    7.70
   8  -8 -16   45.09    8.53
  -8   8  16   35.73    8.11
   8  -8 -15    2.01    5.20
   8  -8 -15   11.57   10.21
  -8   8  15   15.78    9.57
   8  -8 -14   16.02    9.30
   8  -8 -14   13.24    6.38
  -8   8  14   18.44    6.06
   8  -8 -13    8.27    7.74
   8  -8 -13  -10.76    5.62
  -8   8  13   -6.67    5.25
   8  -8 -12  203.99   13.50
   8  -8 -12  207.98   17.30
  -8   8  12  204.69   12.73
   8  -8 -11   23.84    6.50
   8  -8 -11   29.07    5.02
  -8   8  11   32.76    6.16
   8  -8 -10  367.11   18.59
   8  -8 -10  395.95   15.08
  -8   8  10  390.39   18.05
   8  -8  -9    6.90    8.26
   8  -8  -9    4.64    3.54
  -8   8   9   -0.59    4.64
   8  -8  -8   68.09    7.54
   8  -8  -8   75.50    8.52
  -8   8   8   59.98    7.25
   8  -8  -7  117.70    6.21
   8  -8  -7  151.03   14.86
  -8   8   7  136.51    8.91
   8  -8  -6   27.41    3.43
   8  -8  -6   25.18    5.74
  -8   8   6   19.86    9.22
   8  -8  -5   20.79    9.53
   8  -8  -5   24.98    3.12
  -8   8   5   36.22    5.59
   8  -8  -4   38.43    6.14
   8  -8  -4   33.86    5.01
  -8   8   4   43.76    5.86
   8  -8  -3   34.40    6.32
   8  -8  -3   42.44    4.34
  -8   8   3   43.93    9.76
   8  -8  -2   12.66    5.41
   8  -8  -2   19.01    3.15
  -8   8   2   20.76    5.23
   8  -8  -1    3.09    1.27
  -8   8   1    1.07    4.63
  -8   8   0  110.22    8.71
  -8   8  -1   95.13    8.46
  -8   8  -2   -8.35    8.61
  -8   8  -3  611.85   26.77
  -8   8  -4    1.36    8.46
  -8   8  -5  195.94   12.78
  -8   8  -6  121.43   16.92
  -8   8  -6  110.58    9.11
  -8   8  -7   -3.78    5.39
  -8   8  -7    3.96    4.76
  -8   8  -8  138.39   12.29
  -8   8  -8  141.43   10.43
  -8   8  -9   37.30    7.97
  -8   8  -9   25.86   11.52
  -8   8 -10   23.50    7.29
  -8   8 -10   12.13    6.36
  -8   8 -11   78.44   10.02
  -8   8 -11   39.05   14.36
  -8   8 -12   -0.22   11.92
  -8   8 -12    5.66    6.20
  -8   8 -13   59.19   10.94
  -8   8 -13   79.58   16.02
  -8   8 -14   37.91    9.80
  -8   8 -14   32.59    8.63
  -8   8 -15   51.27   10.74
  -8   8 -15   42.10    9.77
  -8   8 -16  111.90   13.72
  -8   8 -16   65.07   12.21
  -8   8 -17    7.74    9.44
  -8   8 -17   16.66    8.52
   8  -7 -20   -3.88    6.68
   8  -7 -20   -8.67    7.27
  -8   7  20    3.92    6.87
   8  -7 -19   43.69    8.17
   8  -7 -19   38.37    8.81
  -8   7  19   16.06    8.57
   8  -7 -18   45.36    7.66
   8  -7 -18   20.33    8.40
  -8   7  18   28.41    8.14
   8  -7 -17  140.29   11.62
   8  -7 -17  164.26   20.63
  -8   7  17  122.78   20.35
   8  -7 -16   41.76    7.23
   8  -7 -16   41.67    8.33
  -8   7  16   40.64    7.92
   8  -7 -15   52.20    7.45
   8  -7 -15   64.88    8.84
  -8   7  15   66.63   13.54
   8  -7 -14   13.11    4.86
   8  -7 -14   -4.43    5.78
  -8   7  14    3.25    5.54
   8  -7 -13    9.71    5.01
   8  -7 -13   12.88    6.04
  -8   7  13   14.42    5.73
   8  -7 -12   21.23    4.92
   8  -7 -12   19.53    6.23
  -8   7  12    6.64    9.99
   8  -7 -11  197.32   10.38
   8  -7 -11  222.96   12.94
  -8   7  11  205.67   12.56
   8  -7 -10   36.55    4.82
   8  -7 -10   21.31    6.42
  -8   7  10   30.76    6.24
   8  -7  -9  286.25   11.31
   8  -7  -9  297.42   15.26
  -8   7   9  314.61   23.17
   8  -7  -8   13.18    5.21
   8  -7  -8   13.82    5.68
  -8   7   8    4.49    5.05
   8  -7  -7   26.28    5.93
   8  -7  -7   27.89    3.69
  -8   7   7   22.55    5.64
   8  -7  -6  106.25    8.45
   8  -7  -6  104.30    4.97
  -8   7   6  108.53   13.61
   8  -7  -5   11.17    2.62
   8  -7  -5   15.00    5.11
  -8   7   5   14.10    5.05
   8  -7  -4  195.60    8.59
   8  -7  -4  191.55   11.04
  -8   7   4  183.48   10.72
   8  -7  -3   15.13    5.50
   8  -7  -3   17.80    3.46
  -8   7   3   13.23    8.77
   8  -7  -2  124.81    9.62
   8  -7  -2  137.67    5.30
  -8   7   2  167.43    9.60
   8  -7  -1    2.01    4.68
   8  -7  -1    3.93    1.74
  -8   7   1    8.10    4.77
  -8   7   0    2.43    7.88
  -8   7  -1  233.27   12.87
  -8   7  -2   99.97    8.74
  -8   7  -3    3.69    5.10
  -8   7  -4  452.69   21.08
  -8   7  -5   -6.60    5.54
  -8   7  -6   45.91   14.04
  -8   7  -6   69.40    7.59
  -8   7  -7  207.18   13.74
  -8   7  -7  178.79   11.92
  -8   7  -8    2.91    5.94
  -8   7  -8    3.96    5.16
  -8   7  -9  127.34   12.10
  -8   7  -9  136.52   10.54
  -8   7 -10    5.20    6.43
  -8   7 -10    2.07    5.60
  -8   7 -11  110.42   12.39
  -8   7 -11  124.82   10.69
  -8   7 -12   -2.44   11.58
  -8   7 -12   -3.14    6.03
  -8   7 -13  101.29   12.67
  -8   7 -13  102.93   18.01
  -8   7 -14   69.39   10.79
  -8   7 -14   42.45    9.09
  -8   7 -15   33.21   10.41
  -8   7 -15   43.40    9.23
  -8   7 -16   18.23    9.82
  -8   7 -16   28.53    9.00
  -8   7 -17  140.23   15.93
  -8   7 -17  105.06   14.47
   8  -6 -20    1.25    6.56
   8  -6 -20   -9.04    6.78
  -8   6  20   10.41    6.69
   8  -6 -19   12.94    7.34
   8  -6 -19   16.46    7.57
  -8   6  19   12.38   12.47
   8  -6 -18   12.80    6.82
   8  -6 -18   10.06    7.31
  -8   6  18   23.00    7.26
   8  -6 -17   54.24    7.56
   8  -6 -17   23.37    8.34
  -8   6  17   31.69   13.45
   8  -6 -16  173.70   11.56
   8  -6 -16  129.65   20.29
  -8   6  16  134.82   12.30
   8  -6 -15   40.67    6.51
   8  -6 -15   24.04    7.43
  -8   6  15   25.44    7.15
   8  -6 -14   12.88    5.20
   8  -6 -14    8.14    6.13
  -8   6  14   10.96    5.96
   8  -6 -13  128.55    8.69
   8  -6 -13  126.67   10.82
  -8   6  13  124.71   10.18
   8  -6 -12   -4.54    4.03
   8  -6 -12    6.14    5.02
  -8   6  12    4.95    4.91
   8  -6 -11   61.60    5.90
   8  -6 -11   53.55    7.78
  -8   6  11   58.53    7.40
   8  -6 -10   86.65    6.08
   8  -6 -10   62.23   13.58
  -8   6  10   75.92    7.92
   8  -6  -9   12.18    3.67
   8  -6  -9    7.84    5.23
  -8   6   9   10.13    8.64
   8  -6  -8  126.76   10.44
   8  -6  -8  132.07    9.47
  -8   6   8  140.18    9.44
   8  -6  -7   19.11    5.62
   8  -6  -7   20.87    3.23
  -8   6   7   12.74    5.32
   8  -6  -6  110.90   14.88
   8  -6  -6  124.58    5.43
  -8   6   6  108.91    9.05
   8  -6  -5    0.90    4.67
   8  -6  -5    0.78    3.89
  -8   6   5    6.68    4.67
   8  -6  -4   18.07    9.21
   8  -6  -4   17.77    2.45
  -8   6   4   25.66    5.39
   8  -6  -3  239.78    5.84
   8  -6  -3  250.16   13.01
  -8   6   3  238.86   12.68
   8  -6  -2    8.84    4.70
   8  -6  -2    3.76    2.26
  -8   6   2    1.33    4.63
   8  -6  -1    9.14    5.06
   8  -6  -1    8.87    1.59
  -8   6   1    9.62    4.93
  -8   6   0  177.14   17.59
  -8   6  -1   43.31    6.55
  -8   6  -2  570.31   24.73
  -8   6  -3   -1.38    5.00
  -8   6  -4  134.16   10.20
  -8   6  -5   54.30    7.69
  -8   6  -6  107.58    9.99
  -8   6  -7    9.74    5.42
  -8   6  -7   -5.46    4.79
  -8   6  -8  131.46   10.87
  -8   6  -8  184.27   12.58
  -8   6  -9   -7.02    5.98
  -8   6  -9   -2.61    5.10
  -8   6 -10  227.03   15.22
  -8   6 -10  181.86   13.60
  -8   6 -11   62.16    9.34
  -8   6 -11   55.12    8.28
  -8   6 -12  287.73   30.76
  -8   6 -12  273.70   17.35
  -8   6 -13    9.43    7.41
  -8   6 -13    6.53    6.49
  -8   6 -14  104.36   12.37
  -8   6 -14   79.90   10.99
  -8   6 -15   47.19   10.29
  -8   6 -15   39.12    9.24
  -8   6 -16   37.98   10.71
  -8   6 -16   46.52    9.94
  -8   6 -17   30.08    9.63
  -8   6 -17   14.58    8.89
   8  -5 -21   -3.00    7.21
   8  -5 -21   13.55    7.40
  -8   5  21  -15.08   11.91
   8  -5 -20   25.48   16.14
   8  -5 -20   54.79    9.94
  -8   5  20   54.44   10.04
   8  -5 -19   52.03   14.29
   8  -5 -19   19.85   14.91
  -8   5  19   33.84    8.61
   8  -5 -18   69.06    9.49
   8  -5 -18   54.17   10.41
  -8   5  18   83.85   10.00
   8  -5 -17    5.98    5.51
   8  -5 -17   -3.30    6.11
  -8   5  17    2.23    5.88
   8  -5 -16   21.89    6.29
   8  -5 -16   17.53    7.07
  -8   5  16   21.45    7.00
   8  -5 -15   45.19    7.44
   8  -5 -15   70.12   14.02
  -8   5  15   69.96    8.23
   8  -5 -14    2.15    4.70
   8  -5 -14  -11.09    5.64
  -8   5  14   -8.13    9.12
   8  -5 -13    3.00    4.68
   8  -5 -13    9.90    5.64
  -8   5  13    9.16    5.52
   8  -5 -12   63.12    6.02
   8  -5 -12   37.39    7.59
  -8   5  12   45.17    7.27
   8  -5 -11    4.70    3.89
   8  -5 -11    8.17    5.25
  -8   5  11    2.94    5.07
   8  -5 -10   42.40    4.82
   8  -5 -10   37.91    6.81
  -8   5  10   31.71    6.47
   8  -5  -9   44.69    4.75
   8  -5  -9   49.77    6.79
  -8   5   9   43.64    6.54
   8  -5  -8   -0.08    2.90
   8  -5  -8    2.61    4.50
  -8   5   8    3.77    4.52
   8  -5  -7  281.68   14.02
   8  -5  -7  270.08   14.46
  -8   5   7  280.93   13.95
   8  -5  -6  238.41    7.70
   8  -5  -6  196.93   12.93
  -8   5   6  221.82   12.76
   8  -5  -5  649.18   17.58
   8  -5  -5  645.20   26.97
  -8   5   5  646.66   26.44
   8  -5  -4  144.07   10.58
   8  -5  -4  163.11    5.03
  -8   5   4  157.49   10.26
   8  -5  -3   89.65    7.85
   8  -5  -3   83.68    4.79
  -8   5   3   82.24    7.72
   8  -5  -2   56.75    2.06
   8  -5  -2   70.85   11.72
  -8   5   2   78.30    7.06
   8  -5  -1   22.41    5.44
   8  -5  -1   18.76    0.97
  -8   5   1   24.28    5.32
  -8   5   0   -4.43    7.89
  -8   5  -1  421.51   19.09
  -8   5  -2  149.46   10.48
  -8   5  -3  385.34   18.76
  -8   5  -4    2.78    4.98
  -8   5  -5  150.99   10.87
  -8   5  -6   -2.40    5.32
  -8   5  -7  177.15   12.19
  -8   5  -7  158.09   10.70
  -8   5  -8   24.96    7.09
  -8   5  -8   27.03    6.20
  -8   5  -9   50.77    8.30
  -8   5  -9   45.10    7.05
  -8   5 -10   32.80    8.21
  -8   5 -10   44.34    7.23
  -8   5 -11  122.97   12.29
  -8   5 -11  113.77   10.55
  -8   5 -12   10.86   12.85
  -8   5 -12   22.07    6.91
  -8   5 -13  178.07   15.32
  -8   5 -13  157.36   21.69
  -8   5 -14   10.98    7.00
  -8   5 -14   -4.81    6.21
  -8   5 -15   27.56    9.55
  -8   5 -15   32.42   13.73
  -8   5 -16   30.17    9.72
  -8   5 -16   20.88    8.40
  -8   5 -17   40.62   10.84
  -8   5 -17   38.89    9.90
   8  -4 -22  -10.16    8.28
   8  -4 -22   20.59    8.36
  -8   4  22    8.06    7.86
   8  -4 -21    7.07    7.52
   8  -4 -21   -8.65    7.95
  -8   4  21   14.55    7.43
   8  -4 -20    3.49    7.17
   8  -4 -20    7.06    7.44
  -8   4  20    2.98    7.14
   8  -4 -19   47.99    9.73
   8  -4 -19   72.44    9.92
  -8   4  19   44.19    9.58
   8  -4 -18   32.68   14.24
   8  -4 -18   49.44   14.78
  -8   4  18   47.39    8.76
   8  -4 -17   37.87   12.64
   8  -4 -17   20.61    7.78
  -8   4  17   33.94    7.58
   8  -4 -16   12.69    6.04
   8  -4 -16   14.73    6.38
  -8   4  16   -3.62    6.20
   8  -4 -15   17.30    6.07
   8  -4 -15   15.59    6.69
  -8   4  15   15.40    6.41
   8  -4 -14   75.75    8.07
   8  -4 -14   71.90   14.52
  -8   4  14   65.82   14.28
   8  -4 -13    8.39    5.43
   8  -4 -13   18.06    6.23
  -8   4  13   21.96    6.05
   8  -4 -12  244.84   12.03
   8  -4 -12  227.24   14.45
  -8   4  12  234.57   13.89
   8  -4 -11   64.57    6.38
   8  -4 -11   58.76   13.15
  -8   4  11   63.59   12.75
   8  -4 -10  122.41    7.55
   8  -4 -10  115.95    9.83
  -8   4  10  121.75    9.53
   8  -4  -9   -1.84    3.50
   8  -4  -9    2.40    8.30
  -8   4   9   -7.96    4.83
   8  -4  -8   65.60    4.77
   8  -4  -8   43.08    7.12
  -8   4   8   41.77    6.88
   8  -4  -7    0.02    2.80
   8  -4  -7    2.08    7.75
  -8   4   7    4.17    4.55
   8  -4  -6  330.77   14.76
   8  -4  -6  345.03   16.27
  -8   4   6  321.35   16.01
   8  -4  -5  304.52   24.45
   8  -4  -5  315.44    8.79
  -8   4   5  325.55   15.48
   8  -4  -4  771.02   31.65
   8  -4  -4  782.49   19.99
  -8   4   4  808.32   31.69
   8  -4  -3  149.88    4.14
   8  -4  -3  132.38    9.86
  -8   4   3  130.89    9.85
   8  -4  -2   55.85    7.16
   8  -4  -2   63.03    2.17
  -8   4   2   60.83    7.26
   8  -4  -1  235.63    4.76
   8  -4  -1  240.35   12.99
  -8   4   1  266.43   13.00
  -8   4   0   -5.01    7.88
  -8   4  -1   46.64    6.74
  -8   4  -2   43.79    6.69
  -8   4  -3  119.85    9.59
  -8   4  -4   12.37    5.43
  -8   4  -5   21.51    5.99
  -8   4  -6  209.45   20.91
  -8   4  -7   -5.29    5.19
  -8   4  -7    2.55    4.62
  -8   4  -8   62.45    7.43
  -8   4  -8   63.18    8.63
  -8   4  -9  190.57   13.55
  -8   4  -9  188.64   12.08
  -8   4 -10   -4.18    5.77
  -8   4 -10    5.39    5.13
  -8   4 -11   96.50   10.26
  -8   4 -11   79.59    9.32
  -8   4 -12   51.73   14.17
  -8   4 -12   34.12    7.71
  -8   4 -13   -8.90    7.12
  -8   4 -13   -1.17   10.36
  -8   4 -14   43.21   10.02
  -8   4 -14   56.04    8.89
  -8   4 -15    5.73    8.06
  -8   4 -15   23.30   11.96
  -8   4 -16   17.69    9.58
  -8   4 -16   32.77    8.62
  -8   4 -17   18.66    8.68
  -8   4 -17   -3.17   13.33
   8  -3 -22   -9.26   14.21
   8  -3 -22   -4.66   14.12
  -8   3  22   -7.17    8.19
   8  -3 -21   27.35   10.24
   8  -3 -21   27.79    9.80
  -8   3  21   35.60    9.35
   8  -3 -20    6.93    7.34
  -8   3  20   -0.58    7.13
   8  -3 -19   -8.24    7.04
   8  -3 -19    6.28    6.57
  -8   3  19   -4.71    6.50
   8  -3 -18   -0.87    7.15
   8  -3 -18   12.38    6.91
  -8   3  18    7.69    6.71
   8  -3 -17    8.19    6.77
   8  -3 -17    6.93    6.43
  -8   3  17   -0.29    6.26
   8  -3 -16   10.92    6.80
   8  -3 -16    9.33    6.37
  -8   3  16    4.27   10.63
   8  -3 -15   48.44    7.83
  -8   3  15   30.72    7.73
   8  -3 -14    0.53    5.69
  -8   3  14   13.56    9.37
   8  -3 -13   76.48   16.51
  -8   3  13  119.49    9.68
   8  -3 -12   33.83    6.96
  -8   3  12   34.97    6.72
   8  -3 -11  243.21   14.31
  -8   3  11  262.15   21.75
   8  -3 -10  233.42   13.57
  -8   3  10  232.31   13.31
   8  -3  -9  125.76    9.22
  -8   3   9   92.03    8.93
   8  -3  -8    5.35    4.87
  -8   3   8    2.61    4.89
   8  -3  -7    5.85    4.90
  -8   3   7    5.45    4.75
   8  -3  -6   53.61    7.05
  -8   3   6   55.02    6.87
   8  -3  -5  100.10    8.50
  -8   3   5  108.56    8.54
   8  -3  -4   40.59    6.50
  -8   3   4   47.88    6.34
   8  -3  -3  167.20   10.76
   8  -3  -3  182.01    4.96
  -8   3   3  172.96   10.73
   8  -3  -2   91.37    8.16
   8  -3  -2   94.43    4.23
  -8   3   2  100.22    8.06
   8  -3  -1   15.03    1.09
   8  -3  -1   15.99    5.26
  -8   3   1   14.25    5.21
  -8   3   0   25.42    9.42
  -8   3  -1   24.88    5.84
  -8   3  -2   51.37    6.91
  -8   3  -3   12.87    5.37
  -8   3  -4  259.52   13.76
  -8   3  -5    4.40    4.93
  -8   3  -6   62.65   12.63
  -8   3  -7  106.53    9.98
  -8   3  -7  115.23    8.96
  -8   3  -8   30.26    6.02
  -8   3  -8   21.39    6.84
  -8   3  -9   68.81   14.50
  -8   3  -9   66.35    7.54
  -8   3 -10   86.50    9.92
  -8   3 -10   92.40    8.99
  -8   3 -11   -3.82    6.05
  -8   3 -11   -2.91    9.14
  -8   3 -12   19.33    7.16
  -8   3 -12   12.27    6.40
  -8   3 -13   23.91   13.66
  -8   3 -13   32.85   12.61
  -8   3 -14    3.47    7.07
  -8   3 -14    6.56    6.30
  -8   3 -15   15.22    8.08
  -8   3 -15   12.21   12.31
  -8   3 -16   -1.12    7.89
  -8   3 -16   13.31    7.19
  -8   3 -17   99.49   13.01
  -8   3 -17   62.95   20.65
   8  -2 -22   22.82   10.45
   8  -2 -22   18.21    9.47
  -8   2  22   16.81    9.15
   8  -2 -21    8.72    9.38
   8  -2 -21    6.99   13.58
  -8   2  21   11.61    7.95
   8  -2 -20   -1.31    7.45
  -8   2  20   -7.96    7.28
   8  -2 -19    1.38    7.38
  -8   2  19   17.32    7.17
   8  -2 -18   10.91    7.21
  -8   2  18   16.91    7.09
   8  -2 -17   38.64    8.48
  -8   2  17   55.80    8.49
   8  -2 -16   35.10   12.40
  -8   2  16   21.96   12.57
   8  -2 -15   21.42    6.66
  -8   2  15   11.36    6.41
   8  -2 -14   10.35    5.89
  -8   2  14    4.95    5.68
   8  -2 -13   80.19    9.00
  -8   2  13   89.21    8.88
   8  -2 -12    7.45    5.55
  -8   2  12    9.66    5.51
   8  -2 -11    8.30    5.69
  -8   2  11   15.03    9.15
   8  -2 -10   97.53   13.80
  -8   2  10   78.41    8.45
   8  -2  -9  108.25    8.73
  -8   2   9   73.95    8.27
   8  -2  -8    3.03    7.77
  -8   2   8    1.99    4.88
   8  -2  -7  122.39    9.25
  -8   2   7  121.00    9.08
   8  -2  -6    6.91    5.07
  -8   2   6    9.23    5.05
   8  -2  -5   30.23    6.12
  -8   2   5   44.27    6.16
   8  -2  -4   60.00    6.65
  -8   2   4   46.56    6.49
   8  -2  -3  179.36   17.31
  -8   2   3  204.01   17.88
   8  -2  -2    2.62    4.45
  -8   2   2    0.60    4.45
   8  -2  -1   48.90    6.49
  -8   2   1   42.42    6.43
   8  -2   0  104.67    1.86
   8  -2   0   87.13    1.99
  -8   2   0  100.37   13.24
  -8   2  -1  177.59   10.93
  -8   2  -2   74.21   12.45
  -8   2  -3   13.81    5.39
  -8   2  -5  175.23   11.34
  -8   2  -6    5.82    5.22
  -8   2  -7   18.47    6.03
  -8   2  -7   16.37    5.40
  -8   2  -8  222.49   13.51
  -8   2  -8  199.83   11.86
  -8   2  -9    6.56    9.19
  -8   2  -9   -5.76    4.80
  -8   2 -10   82.69    9.20
  -8   2 -10   71.70    8.41
  -8   2 -11    8.29    6.25
  -8   2 -11    3.20    9.48
  -8   2 -12   89.68   10.50
  -8   2 -12   79.55    9.39
  -8   2 -13    0.98    6.87
  -8   2 -13   13.06    6.02
  -8   2 -14   10.76    6.53
  -8   2 -14    6.35   12.15
  -8   2 -15   19.37    8.53
  -8   2 -15   24.56    7.86
  -8   2 -16    9.70    7.55
  -8   2 -16    0.59    6.71
   8  -1 -23   11.97    9.12
  -8   1  23    6.55    8.59
   8  -1 -22   12.10    9.46
  -8   1  22   24.42    8.99
   8  -1 -21   11.22    7.22
  -8   1  21  -10.19    6.97
   8  -1 -20   16.39   13.05
  -8   1  20    8.52    7.64
   8  -1 -19   17.31   14.40
  -8   1  19   32.83    8.45
   8  -1 -18    7.64    6.60
  -8   1  18    0.51    6.61
   8  -1 -17   -4.95    6.11
  -8   1  17    1.61    5.95
   8  -1 -16   21.75    7.08
  -8   1  16    6.49   11.56
   8  -1 -15   14.29   12.04
  -8   1  15   36.01    7.18
   8  -1 -14   15.89    6.18
  -8   1  14   13.15   10.37
   8  -1 -13   41.30    7.67
  -8   1  13   51.50    7.78
   8  -1 -12  140.55   16.04
  -8   1  12  109.88    9.98
   8  -1 -11   30.39    6.57
  -8   1  11   28.02    6.22
   8  -1 -10    3.14    7.90
  -8   1  10   -1.27    4.72
   8  -1  -9   10.66    5.53
  -8   1   9   18.49    5.36
   8  -1  -8    5.80    8.17
  -8   1   8    4.02    4.86
   8  -1  -7   50.72    6.81
  -8   1   7   56.16    6.58
   8  -1  -6   80.96   12.74
  -8   1   6   70.67   12.59
   8  -1  -5  469.93   20.66
  -8   1   5  471.12   20.75
   8  -1  -4   28.74    5.95
  -8   1   4   34.08    5.87
   8  -1  -3   50.35   10.90
  -8   1   3   52.47   10.73
   8  -1  -2   45.25    6.17
  -8   1   2   42.92    6.24
   8  -1  -1   28.32    5.50
  -8   1   1   19.49    5.53
   8  -1   0  141.57    3.57
  -8   1   0  160.21    9.81
   8  -1   1  480.16    7.47
  -8   1  -1  501.25   21.04
  -8   1  -2  522.50   22.06
  -8   1  -3  184.97   11.07
  -8   1  -4   -8.15    5.13
  -8   1  -5   15.67    5.37
  -8   1  -6   31.46    5.93
  -8   1  -6   22.07    5.58
  -8   1  -7  123.47   15.65
  -8   1  -7  114.17    8.61
  -8   1  -8    6.30    5.60
  -8   1  -8    7.32    4.80
  -8   1  -9   86.09    8.45
  -8   1  -9   30.40   12.76
  -8   1 -10   -7.56    9.00
  -8   1 -10    1.04    4.71
  -8   1 -11   99.13   10.32
  -8   1 -11  105.12    9.70
  -8   1 -12   38.53    7.61
  -8   1 -12   16.87    6.70
  -8   1 -13   86.33   10.52
  -8   1 -13   66.31    9.31
  -8   1 -14   -1.65    6.76
  -8   1 -14   -7.76    6.08
  -8   1 -15  -10.98   12.78
  -8   1 -15  -11.47    6.82
  -8   1 -16   48.36   10.23
  -8   1 -16   48.69   15.45
   8   0 -23   10.67    8.55
  -8   0  23   -0.02    8.03
   8   0 -22    2.05    8.54
  -8   0  22   19.88    8.59
   8   0 -21   34.61    9.85
  -8   0  21   29.28    9.52
   8   0 -20    2.81    7.17
  -8   0  20    2.01    7.07
   8   0 -19   16.52   11.68
  -8   0  19    0.76    6.81
   8   0 -18  132.97   12.61
  -8   0  18  114.09   12.45
   8   0 -17   25.25    7.78
  -8   0  17   26.96    7.66
   8   0 -16   12.13    6.52
  -8   0  16    9.43   10.74
   8   0 -15   75.71   14.51
  -8   0  15   57.09    8.74
   8   0 -14   41.82    7.74
  -8   0  14   35.74   12.31
   8   0 -13    4.94    5.52
  -8   0  13    5.75    5.59
   8   0 -12   -0.89    9.11
  -8   0  12   -6.96    5.42
   8   0 -11   24.65    6.52
  -8   0  11   37.90    6.45
   8   0 -10   23.00    6.31
  -8   0  10   34.65    6.31
   8   0  -9   36.16    6.55
  -8   0   9   49.29   10.88
   8   0  -8   19.03    5.49
  -8   0   8   11.93    5.32
   8   0  -7   65.79    7.28
  -8   0   7   65.14    7.45
   8   0  -6  719.40   41.82
  -8   0   6  705.71   28.33
   8   0  -5  638.84   26.46
  -8   0   5  626.79   26.40
   8   0  -4 1030.56   41.28
  -8   0   4 1048.14   41.37
   8   0  -3  339.34   23.40
  -8   0   3  322.49   15.77
   8   0  -2  135.70    9.22
  -8   0   2  128.09    9.03
   8   0  -1    3.40    4.26
  -8   0   1   -7.31    7.13
   8   0   0    0.38    1.86
  -8   0   0   -3.63    4.27
   8   0   1  134.91    2.72
  -8   0  -1  144.29    9.36
   8   0   2  480.19   10.09
  -8   0  -2  497.98   20.66
   8   0   3  437.11    8.60
  -8   0  -3  428.74   18.99
  -8   0  -4  212.37   12.17
  -8   0  -5    2.32    7.58
  -8   0  -6   93.91    8.23
  -8   0  -6   86.98    7.69
  -8   0  -7   -2.36    4.89
  -8   0  -7   -4.38    4.44
  -8   0  -8   37.09    6.69
  -8   0  -8   34.34    6.07
  -8   0  -9   30.29    7.13
  -8   0  -9   39.74    6.20
  -8   0 -10   13.18    5.68
  -8   0 -10    0.24    5.10
  -8   0 -11   28.25   10.97
  -8   0 -11   11.57    5.78
  -8   0 -12   86.73    9.88
  -8   0 -12   64.79   14.14
  -8   0 -13   22.84    7.45
  -8   0 -13   19.68    6.70
  -8   0 -14   68.06    9.92
  -8   0 -14   58.33   15.42
  -8   0 -15   11.32    7.48
  -8   0 -15    8.91    6.73
  -8   0 -16    0.97    6.46
   8   1 -23    7.25    9.17
  -8  -1  23   17.90    8.99
   8   1 -22   44.81   11.34
  -8  -1  22   50.38   11.25
   8   1 -21   18.69    8.19
  -8  -1  21    3.06    8.07
   8   1 -20   44.12   10.30
  -8  -1  20   57.74   10.34
   8   1 -19    3.41    6.82
  -8  -1  19   -1.09    6.71
   8   1 -18    5.22   10.61
  -8  -1  18    1.34    6.39
   8   1 -17    2.44    6.66
  -8  -1  17   12.64    6.63
   8   1 -16   24.85    7.45
  -8  -1  16   33.23    7.47
   8   1 -15   38.28    7.85
  -8  -1  15   41.95    7.76
   8   1 -14   85.63    9.38
  -8  -1  14   78.50   15.16
   8   1 -13   76.51    8.70
  -8  -1  13   73.52    8.64
   8   1 -12  159.62   11.24
  -8  -1  12  151.60   18.38
   8   1 -11  221.92   13.34
  -8  -1  11  233.18   13.51
   8   1 -10  278.00   14.88
  -8  -1  10  275.70   14.59
   8   1  -9   43.08    6.67
  -8  -1   9   45.85    6.65
   8   1  -8    7.48    4.61
  -8  -1   8   -4.22    4.47
   8   1  -7   11.40    5.08
  -8  -1   7    7.92    8.43
   8   1  -6   47.76   11.63
  -8  -1   6   59.35    6.66
   8   1  -5  647.94   26.45
  -8  -1   5  638.13   26.50
   8   1  -4  806.30   33.22
  -8  -1   4  846.43   46.47
   8   1  -3  664.72   38.64
  -8  -1   3  710.87   27.60
   8   1  -2   19.25    5.29
  -8  -1   2   22.14    5.14
   8   1  -1   21.22    1.94
   8   1  -1   22.74    5.20
  -8  -1   1   26.03    5.17
   8   1   0    3.48    1.43
  -8  -1   0    4.63    4.38
   8   1   1   21.49    2.70
  -8  -1  -1   16.09    8.58
   8   1   2   27.01    2.67
  -8  -1  -2   30.84    5.47
   8   1   3   67.24    3.42
  -8  -1  -3   74.32   11.32
   8   1   4    7.05    2.18
  -8  -1  -4   14.02    4.72
   8   1   5   61.63    2.26
  -8  -1  -5   62.39    7.00
  -8  -1  -6   -0.41    4.61
  -8  -1  -6    5.54    4.21
  -8  -1  -7   83.10    7.88
  -8  -1  -7   70.22   11.74
  -8  -1  -8   -0.45    8.08
  -8  -1  -8    4.13    4.39
  -8  -1  -9   -7.24    5.08
  -8  -1  -9    1.55    4.54
  -8  -1 -10   58.20   11.68
  -8  -1 -10   59.48    8.15
  -8  -1 -11    0.79    5.44
  -8  -1 -11   -2.92    4.77
  -8  -1 -12   -5.14    9.68
  -8  -1 -12    5.73    5.35
  -8  -1 -13  102.24   10.74
  -8  -1 -13   86.63    9.19
  -8  -1 -14   13.21    6.97
  -8  -1 -14    7.72    6.34
  -8  -1 -15   21.85    7.54
  -8  -1 -15   31.98    8.32
   8   2 -23    9.53    9.75
  -8  -2  23   20.56    9.32
   8   2 -22    8.91    8.09
  -8  -2  22   -2.77    8.00
   8   2 -21  115.02   14.42
  -8  -2  21  122.84   14.45
   8   2 -20   49.83   10.88
  -8  -2  20   66.98   10.49
   8   2 -19   92.36   12.05
  -8  -2  19   97.56   11.91
   8   2 -18   22.70   12.20
  -8  -2  18   15.19    7.57
   8   2 -17   50.53    8.89
  -8  -2  17   45.34    8.78
   8   2 -16   32.49    7.29
  -8  -2  16   17.11    7.30
   8   2 -15   58.08    7.66
  -8  -2  15   28.56    7.77
   8   2 -14   -6.19    9.20
  -8  -2  14   -3.33    5.63
   8   2 -13    9.65    5.53
  -8  -2  13    1.59    5.53
   8   2 -12   24.31    6.58
  -8  -2  12   36.17    6.69
   8   2 -11  195.65   12.10
  -8  -2  11  179.91   11.98
   8   2 -10   98.64    8.85
  -8  -2  10  107.91   14.66
   8   2  -9   44.96    6.71
  -8  -2   9   53.59    6.90
   8   2  -8    7.31    4.67
  -8  -2   8   -0.53    4.71
   8   2  -7  134.84    9.28
  -8  -2   7  135.77    9.37
   8   2  -6   91.93   12.98
  -8  -2   6   99.07    8.06
   8   2  -5    1.41    4.27
  -8  -2   5   -1.92    4.29
   8   2  -4   74.38    6.95
  -8  -2   4   64.11    7.07
   8   2  -3   68.25   10.99
  -8  -2   3   63.66    6.64
   8   2  -2   59.33    6.34
  -8  -2   2   50.04   10.03
   8   2  -1   13.04    3.45
   8   2  -1   12.70    4.72
  -8  -2   1   13.62    4.56
   8   2   0    2.14    1.67
  -8  -2   0    4.97    4.10
   8   2   1    0.15    2.54
  -8  -2  -1    1.09    3.85
   8   2   2   30.82    2.06
  -8  -2  -2   23.39    5.44
   8   2   3    7.57    1.65
  -8  -2  -3    8.47    4.51
   8   2   4    7.54    2.80
  -8  -2  -4    8.57    4.68
   8   2   5    4.22    1.68
  -8  -2  -5   -1.24    4.46
   8   2   6   58.67    2.93
  -8  -2  -6   55.82   11.37
  -8  -2  -6   57.49    6.21
  -8  -2  -7   33.23    6.27
  -8  -2  -7   40.48    5.63
  -8  -2  -8   85.72   11.92
  -8  -2  -8   85.64    8.28
  -8  -2  -9    4.21    8.13
  -8  -2  -9   -2.27    4.27
  -8  -2 -10   11.09    5.96
  -8  -2 -10   13.26    5.21
  -8  -2 -11   18.84    6.66
  -8  -2 -11   25.41    5.84
  -8  -2 -12   26.88    6.92
  -8  -2 -12   19.58    6.18
  -8  -2 -13   19.39   11.07
  -8  -2 -13    4.84   10.06
  -8  -2 -14   42.28    8.33
  -8  -2 -14   32.33    7.68
   8   3 -23    2.02   13.78
  -8  -3  23   -3.94    8.18
   8   3 -22   47.50   11.06
  -8  -3  22   50.05   11.03
   8   3 -21    3.25    9.45
  -8  -3  21   51.22    9.47
   8   3 -20   35.98    9.84
  -8  -3  20   50.31    9.99
   8   3 -19    0.78    6.57
  -8  -3  19    0.44    6.55
   8   3 -18   23.84    7.85
  -8  -3  18   18.41    7.96
   8   3 -17   11.76    6.84
  -8  -3  17   10.07   11.55
   8   3 -16   70.25    9.14
  -8  -3  16   66.37    9.33
   8   3 -15   -4.36    5.58
  -8  -3  15    7.62    5.59
   8   3 -14   -5.13    8.51
  -8  -3  14    3.19    5.22
   8   3 -13  152.17   11.11
  -8  -3  13  148.29   11.35
   8   3 -12   39.48    6.91
  -8  -3  12   47.12    7.09
   8   3 -11   36.07    6.54
  -8  -3  11   42.03    6.60
   8   3 -10   23.59    5.99
  -8  -3  10   26.70    5.92
   8   3  -9   14.39    5.30
  -8  -3   9   21.38    5.36
   8   3  -8    4.69    4.53
  -8  -3   8   -0.68    7.68
   8   3  -7  138.19    9.23
  -8  -3   7  157.70    9.86
   8   3  -6  124.26    8.49
  -8  -3   6  118.72    8.69
   8   3  -5   64.90    6.74
  -8  -3   5   71.07    6.77
   8   3  -4   -2.05    4.00
  -8  -3   4    1.38    4.05
   8   3  -3   36.92    5.62
  -8  -3   3   37.06    9.18
   8   3  -2   19.37    8.02
  -8  -3   2   19.72    4.74
   8   3  -1   -5.18    3.95
   8   3  -1    3.69    1.99
  -8  -3   1    5.22    3.98
   8   3   0   34.93    2.71
  -8  -3   0   35.10    5.33
   8   3   1  105.76    5.86
  -8  -3  -1   96.61    7.56
   8   3   2   61.45    3.01
  -8  -3  -2   76.11    6.34
   8   3   3   41.82    4.21
  -8  -3  -3   38.15    5.75
   8   3   4    4.69    3.07
  -8  -3  -4   -6.35    4.05
   8   3   5    9.57    2.21
  -8  -3  -5   30.16    4.89
  -8  -3  -5   10.42    4.42
   8   3   6   -0.16    2.01
  -8  -3  -6   -7.20    4.36
  -8  -3  -6   -4.61    3.89
   8   3   7   79.18    3.96
  -8  -3  -7   66.61    6.65
  -8  -3  -7   75.91   12.13
  -8  -3  -8   77.53    7.57
  -8  -3  -8   71.52    7.04
  -8  -3  -9   31.26    6.35
  -8  -3  -9   32.97    5.66
  -8  -3 -10   -2.76    7.84
  -8  -3 -10    0.02    4.37
  -8  -3 -11    0.31    5.16
  -8  -3 -11   -3.36    4.77
  -8  -3 -12    4.18    5.34
  -8  -3 -12   -3.45    4.86
  -8  -3 -13   17.79    6.78
  -8  -3 -13   18.30    6.34
  -8  -3 -14   -6.58    6.29
  -8  -3 -14   -0.79    9.66
   8   4 -23   12.50   14.82
  -8  -4  23    4.88    8.71
   8   4 -22   16.15    7.62
  -8  -4  22  -17.75    7.65
   8   4 -21    5.03    7.94
  -8  -4  21   10.86   13.27
   8   4 -20    6.20    7.52
  -8  -4  20    6.04    7.64
   8   4 -19   -0.89    6.60
  -8  -4  19   11.20   11.34
   8   4 -18   23.38    7.85
  -8  -4  18   27.37    7.92
   8   4 -17   -0.72    6.06
  -8  -4  17   10.37   10.33
   8   4 -16    1.36    5.68
  -8  -4  16    0.59    5.83
   8   4 -15   79.93    8.85
  -8  -4  15   43.89   14.99
   8   4 -14    9.55   10.71
  -8  -4  14   24.89    6.45
   8   4 -13    2.05    5.17
  -8  -4  13    9.88    9.02
   8   4 -12  126.94   10.25
  -8  -4  12  142.63   10.46
   8   4 -11    5.01    4.96
  -8  -4  11    1.47    8.42
   8   4 -10   -1.71    4.57
  -8  -4  10   -1.64    4.61
   8   4  -9   28.11    5.62
  -8  -4   9   15.90    5.58
   8   4  -8    4.18    7.07
  -8  -4   8   -0.34    4.38
   8   4  -7    5.45    4.40
  -8  -4   7    7.92    4.73
   8   4  -6   -2.94    4.37
  -8  -4   6  -11.21    7.46
   8   4  -5  104.97    7.81
  -8  -4   5  100.86    7.93
   8   4  -4  136.14    8.25
  -8  -4   4  117.42    8.48
   8   4  -3   89.18    6.99
  -8  -4   3   87.07    7.12
   8   4  -2    0.38    2.31
   8   4  -2    8.00    6.27
  -8  -4   2   -2.88    3.68
   8   4  -1   25.17    4.87
   8   4  -1   22.09    2.79
  -8  -4   1   22.01    4.76
   8   4   0   14.97    4.33
  -8  -4   0   17.26    4.62
   8   4   1  154.26    5.43
  -8  -4  -1  144.42   14.34
   8   4   2  254.42    7.61
  -8  -4  -2  285.08   12.65
   8   4   3  185.13    5.94
  -8  -4  -3  174.36   15.65
   8   4   4   37.89    3.10
  -8  -4  -4   46.96    5.77
   8   4   5    2.12    3.71
  -8  -4  -5    5.26    4.13
  -8  -4  -5   -1.43    3.77
   8   4   6    1.53    3.92
  -8  -4  -6    0.73    4.27
  -8  -4  -6    6.72    3.85
   8   4   7   10.88    4.71
  -8  -4  -7   12.56    4.47
  -8  -4  -7   20.21    4.99
   8   4   8   25.67    3.50
  -8  -4  -8   22.61    5.10
  -8  -4  -9   -0.55    4.51
  -8  -4  -9    2.69    4.22
  -8  -4 -10    1.73    4.83
  -8  -4 -10    2.21    4.47
  -8  -4 -11    0.75    5.36
  -8  -4 -11   11.73    4.95
  -8  -4 -12   -1.84    9.22
  -8  -4 -12   10.37    8.67
  -8  -4 -13   10.33    5.83
  -8  -4 -13   -2.95    5.41
   8   5 -23   -8.90   15.23
  -8  -5  23   28.61   14.96
   8   5 -22   10.60    9.62
  -8  -5  22   37.31    9.63
   8   5 -21   11.36    8.73
  -8  -5  21   38.46   14.75
   8   5 -20   49.59   10.25
  -8  -5  20   48.72   10.04
   8   5 -19    3.94    6.92
  -8  -5  19    5.25    7.01
   8   5 -18    4.55    6.75
  -8  -5  18    8.81    6.90
   8   5 -17    6.97    6.18
  -8  -5  17   -0.94    6.34
   8   5 -16   37.22    7.90
  -8  -5  16   38.99    7.99
   8   5 -15   20.29    6.33
  -8  -5  15   14.72    6.66
   8   5 -14  163.99   11.98
  -8  -5  14  160.17   12.12
   8   5 -13   11.19    5.84
  -8  -5  13   17.05    6.02
   8   5 -12  124.86   15.99
  -8  -5  12  142.47   10.28
   8   5 -11    5.21    4.86
  -8  -5  11    3.01    4.86
   8   5 -10  124.70   14.47
  -8  -5  10  112.66    9.22
   8   5  -9   38.22    5.90
  -8  -5   9   36.88    6.23
   8   5  -8  114.79   12.92
  -8  -5   8  100.59    8.32
   8   5  -7   12.56    4.63
  -8  -5   7    9.99    8.06
   8   5  -6  115.23    7.88
  -8  -5   6  105.77    7.90
   8   5  -5  117.89   12.92
  -8  -5   5  114.00    8.20
   8   5  -4  289.98   13.27
  -8  -5   4  319.45   13.32
   8   5  -3  155.59    9.31
  -8  -5   3  175.39    9.41
   8   5  -2  125.25    8.25
   8   5  -2  135.32    9.22
  -8  -5   2  155.98    8.62
   8   5  -1    2.96    3.90
   8   5  -1    8.89    4.41
  -8  -5   1    0.17    3.90
   8   5   0    1.95    2.47
  -8  -5   0   -5.72    6.18
   8   5   1   14.03    2.85
  -8  -5  -1   15.19    4.37
   8   5   2  139.81    5.62
  -8  -5  -2  147.90   13.41
   8   5   3  121.89    5.25
  -8  -5  -3  128.06    7.98
   8   5   4   54.48    3.85
  -8  -5  -4   51.92    9.72
   8   5   5    9.15    2.80
  -8  -5  -5   11.81    4.41
  -8  -5  -5    6.53    4.01
   8   5   6   13.50    3.09
  -8  -5  -6   16.36    4.80
  -8  -5  -6   20.73    4.24
   8   5   7    7.92    2.98
  -8  -5  -7    3.46    4.59
  -8  -5  -7    7.99    4.17
   8   5   8    7.78    3.37
  -8  -5  -8   12.86    4.98
  -8  -5  -8   10.12    7.24
  -8  -5  -9   -2.79    4.42
  -8  -5  -9    1.82    4.03
  -8  -5 -10    1.42    4.80
  -8  -5 -10    5.14    4.55
  -8  -5 -11   -0.20    4.97
  -8  -5 -11    8.21    7.75
  -8  -5 -12   -1.80    5.14
  -8  -5 -12   -2.10    5.00
   8   6 -23   12.97   16.42
  -8  -6  23   25.45   16.53
   8   6 -22    4.39    7.74
  -8  -6  22    5.60    8.19
   8   6 -21   94.98   12.75
  -8  -6  21   95.24   13.41
   8   6 -20   32.86    9.91
  -8  -6  20   49.67    9.64
   8   6 -19  144.19   14.48
  -8  -6  19  177.95   15.04
   8   6 -18   27.11   12.76
  -8  -6  18   21.14   13.40
   8   6 -17  114.06   11.32
  -8  -6  17  112.48   11.64
   8   6 -16   -1.04    5.69
  -8  -6  16   -3.50    9.90
   8   6 -15  201.23   13.58
  -8  -6  15  209.23   14.22
   8   6 -14   48.56    7.63
  -8  -6  14   59.44   13.25
   8   6 -13  208.11   13.39
  -8  -6  13  228.18   13.68
   8   6 -12    8.92    9.40
  -8  -6  12   21.69    9.62
   8   6 -11  288.12   15.23
  -8  -6  11  313.40   15.73
   8   6 -10  122.71   14.79
  -8  -6  10  117.58   15.10
   8   6  -9  272.38   13.41
  -8  -6   9  264.94   13.84
   8   6  -8    7.63    4.45
  -8  -6   8   16.94    7.95
   8   6  -7    1.56    3.93
  -8  -6   7   -3.42    4.09
   8   6  -6   50.44    5.97
  -8  -6   6   59.53    6.26
   8   6  -5   30.97    4.94
  -8  -6   5   23.13    5.15
   8   6  -4   95.60   11.93
  -8  -6   4  104.22    7.42
   8   6  -3  241.97    9.87
   8   6  -3  238.97   11.55
  -8  -6   3  272.80   11.84
   8   6  -2   30.78    5.12
   8   6  -2   26.46    3.78
  -8  -6   2   37.80    4.97
   8   6  -1   25.07    3.53
  -8  -6   1   22.91    7.94
   8   6   0   22.59    3.33
  -8  -6   0   22.45    4.66
   8   6   1   -0.10    2.61
  -8  -6  -1    4.45    6.03
   8   6   2    2.98    2.70
  -8  -6  -2   -0.20    3.77
   8   6   3   45.48    3.91
  -8  -6  -3   45.03    8.90
   8   6   4   18.90    3.20
  -8  -6  -4   12.78    4.43
  -8  -6  -4   11.27    4.03
   8   6   5   16.61    3.29
  -8  -6  -5   11.85    4.05
  -8  -6  -5   12.61    7.45
   8   6   6   23.09    3.68
  -8  -6  -6   23.06    5.03
  -8  -6  -6   16.45    7.32
   8   6   7   46.00    7.63
  -8  -6  -7   53.10    6.46
  -8  -6  -7   58.45    5.87
   8   6   8   41.00    7.00
  -8  -6  -8   33.96    9.51
  -8  -6  -8   26.89    5.43
   8   6   9   17.77    4.29
  -8  -6  -9   13.57    5.46
  -8  -6  -9   27.85    8.37
  -8  -6 -10   -3.84    4.92
  -8  -6 -10   10.78    4.51
  -8  -6 -11   10.23    8.18
  -8  -6 -11    1.09    4.84
   8   7 -23    2.62   13.46
   8   7 -22   23.37    9.26
  -8  -7  22   14.93    9.28
   8   7 -21   12.06    8.47
  -8  -7  21   26.01    9.04
   8   7 -20  173.39   15.71
  -8  -7  20  179.20   26.50
   8   7 -19   53.45    9.60
  -8  -7  19   46.61   10.09
   8   7 -18  127.55   20.05
  -8  -7  18  128.56   13.23
   8   7 -17   10.96    6.61
  -8  -7  17    7.86    6.66
   8   7 -16  150.16   12.77
  -8  -7  16  174.87   13.48
   8   7 -15   12.54   10.37
  -8  -7  15   15.80    6.63
   8   7 -14   53.34    7.61
  -8  -7  14   51.41    8.11
   8   7 -13   23.15    6.06
  -8  -7  13   21.89   10.38
   8   7 -12   66.58    7.45
  -8  -7  12   58.92    7.70
   8   7 -11   -0.25    4.47
  -8  -7  11   -1.90    7.77
   8   7 -10  145.68   10.04
  -8  -7  10  167.35   10.44
   8   7  -9   27.10    5.61
  -8  -7   9   48.01    9.67
   8   7  -8   21.43    5.11
  -8  -7   8   26.66    5.36
   8   7  -7   64.12    6.25
  -8  -7   7   58.08    6.43
   8   7  -6   56.90    5.94
  -8  -7   6   54.43    6.07
   8   7  -5   74.55    6.78
  -8  -7   5   94.35    6.87
   8   7  -4   10.88    3.56
   8   7  -4    3.93    4.13
  -8  -7   4    6.48    4.16
   8   7  -3    7.07    7.07
   8   7  -3   10.74    6.19
  -8  -7   3   14.40    4.19
   8   7  -2   85.82    6.72
   8   7  -2   90.34    8.63
  -8  -7   2  104.03   10.68
   8   7  -1    6.38    3.10
  -8  -7   1   -2.83    3.71
   8   7   0   14.83    3.51
  -8  -7   0    9.45    6.83
  -8  -7   0    9.67    6.95
   8   7   1    1.23    2.89
  -8  -7  -1   -0.64    3.48
   8   7   2   28.08    3.85
  -8  -7  -2   29.04    7.82
   8   7   3   12.00    3.28
  -8  -7  -3    7.64    4.07
   8   7   4    9.94    3.28
  -8  -7  -4    3.97    6.82
  -8  -7  -4    8.90    3.65
   8   7   5    1.55    3.12
  -8  -7  -5    0.80    3.41
  -8  -7  -5    1.38    3.72
   8   7   6   21.40    6.43
  -8  -7  -6   17.02    4.22
  -8  -7  -6   10.66    4.54
   8   7   7   53.35    8.44
  -8  -7  -7   66.19    6.41
  -8  -7  -7   42.80    9.55
   8   7   8  111.08    7.14
  -8  -7  -8  111.07    8.38
  -8  -7  -8  120.30    7.86
   8   7   9   24.24    4.98
  -8  -7  -9   26.96    5.77
  -8  -7  -9   32.45    5.42
  -8  -7 -10    9.87    7.89
  -8  -7 -10    1.71    4.62
   8   8 -22    4.94    8.52
  -8  -8  22   32.22   14.95
   8   8 -21   10.48    8.78
  -8  -8  21   36.28    9.12
   8   8 -20   13.39    6.92
  -8  -8  20   -7.47    7.47
   8   8 -19   23.11    8.17
  -8  -8  19   32.26    8.72
   8   8 -18    5.91   11.33
  -8  -8  18   14.44    7.22
   8   8 -17   45.73    8.24
  -8  -8  17   48.21   14.49
   8   8 -16   -9.57    6.18
  -8  -8  16  -10.99    6.62
   8   8 -15   69.76   14.03
  -8  -8  15   83.68    9.65
   8   8 -14    8.35    5.17
  -8  -8  14   -0.68    5.58
   8   8 -13    7.80    8.32
  -8  -8  13    3.58    5.41
   8   8 -12  141.28   10.11
  -8  -8  12  151.37   10.69
   8   8 -11   -2.70    7.84
  -8  -8  11  -10.48    5.05
   8   8 -10   13.52    4.89
  -8  -8  10    8.94    5.10
   8   8  -9   68.05   10.94
  -8  -8   9   69.82    7.03
   8   8  -8   14.96    4.77
  -8  -8   8   19.31    5.00
   8   8  -7    8.07    4.40
  -8  -8   7   10.14    4.41
   8   8  -6   33.24    5.22
  -8  -8   6   38.53    5.41
   8   8  -5    4.29    6.47
  -8  -8   5    3.73    3.99
   8   8  -4   11.33    4.03
   8   8  -4   14.82    4.14
  -8  -8   4    3.35    4.18
   8   8  -3   29.35    4.77
   8   8  -3   28.28    4.53
  -8  -8   3   27.32    4.76
   8   8  -2    2.59    3.38
  -8  -8   2    0.55    3.59
   8   8  -1   30.64    4.43
  -8  -8   1   30.77    4.70
   8   8   0    0.24    5.27
  -8  -8   0    0.58    3.34
   8   8   1   66.83    5.27
  -8  -8  -1   60.22    9.27
   8   8   2   28.30    4.15
  -8  -8  -2   20.84    4.44
   8   8   3   47.85    4.82
  -8  -8  -3   28.75    8.32
  -8  -8  -3   48.44    4.71
   8   8   4   -0.02    3.39
  -8  -8  -4    7.64    3.22
  -8  -8  -4   -2.70    3.61
   8   8   5   -4.38    5.68
  -8  -8  -5    5.32    3.70
  -8  -8  -5   -4.38    3.36
   8   8   6    1.31    5.82
  -8  -8  -6   -4.50    3.73
  -8  -8  -6    5.01    5.88
   8   8   7   21.19    4.70
  -8  -8  -7   24.35    5.10
  -8  -8  -7   32.45    4.92
   8   8   8   22.55    4.70
  -8  -8  -8   13.61    7.99
  -8  -8  -8   18.95    4.90
   8   8   9   54.57    6.39
  -8  -8  -9   67.42    6.56
  -8  -8  -9   44.36   10.71
   8   9 -21   18.14    8.78
  -8  -9  21   28.03   14.99
   8   9 -20   23.52    7.80
  -8  -9  20    1.60    8.17
   8   9 -19   28.90   14.74
  -8  -9  19   52.51    9.64
   8   9 -18   -3.08    6.22
  -8  -9  18   -4.60    6.71
   8   9 -17   24.44    6.80
  -8  -9  17    8.92    7.29
   8   9 -16   50.50    7.73
  -8  -9  16   30.14   13.80
   8   9 -15   12.60    5.70
  -8  -9  15    4.78    6.22
   8   9 -14   85.72    8.60
  -8  -9  14   81.36    9.42
   8   9 -13   -2.96    8.29
  -8  -9  13   -5.49    5.23
   8   9 -12    7.42    5.56
  -8  -9  12   35.14    5.96
   8   9 -11   45.79    6.55
  -8  -9  11   50.72    6.75
   8   9 -10   22.90    5.76
  -8  -9  10   46.72    6.05
   8   9  -9   10.59    4.58
  -8  -9   9   10.23    4.66
   8   9  -8   91.21   12.65
  -8  -9   8  125.11    8.28
   8   9  -7    3.36    4.14
  -8  -9   7    5.11    6.86
   8   9  -6   30.87    4.89
  -8  -9   6   23.86    5.03
   8   9  -5    4.87    3.92
   8   9  -5   -2.37    3.81
  -8  -9   5    4.03    3.82
   8   9  -4   41.78    9.27
   8   9  -4   63.28    5.98
  -8  -9   4   61.33    5.76
   8   9  -3   -1.75    3.76
   8   9  -3    5.78    6.18
  -8  -9   3   -4.19    3.57
   8   9  -2   38.24    5.22
  -8  -9   2   47.57    5.15
   8   9  -1    7.79    4.07
  -8  -9   1   10.52    3.78
   8   9   0    9.16    3.84
  -8  -9   0    1.86    3.71
   8   9   1   -4.71    5.89
  -8  -9  -1    1.02    3.37
   8   9   2   41.09    5.46
  -8  -9  -2   54.59    4.80
  -8  -9  -2   61.88    5.24
   8   9   3    8.28    4.08
  -8  -9  -3   10.66    5.87
  -8  -9  -3   12.85    3.88
   8   9   4   23.10    4.51
  -8  -9  -4   17.82    6.57
  -8  -9  -4   23.20    4.38
   8   9   5    8.31    7.02
  -8  -9  -5    9.61    6.54
  -8  -9  -5    8.85    3.70
   8   9   6    5.59    3.92
  -8  -9  -6    2.45    3.62
  -8  -9  -6   -0.01    3.65
   8   9   7    7.43    4.08
  -8  -9  -7    2.26    3.88
  -8  -9  -7   -0.26    3.84
   8   9   8   10.10    4.82
  -8  -9  -8   14.10    7.53
  -8  -9  -8   12.69    4.45
   8  10 -21   76.31   11.14
  -8 -10  21   57.21   11.94
   8  10 -20    2.53    6.94
  -8 -10  20    5.41    7.34
   8  10 -19   30.90    8.59
  -8 -10  19   54.11    9.46
   8  10 -18   -0.18    6.49
  -8 -10  18   22.30    7.17
   8  10 -17   18.44    6.40
  -8 -10  17    4.77    6.97
   8  10 -16    6.97    8.92
  -8 -10  16   -5.78    5.93
   8  10 -15   78.21    8.92
  -8 -10  15   81.12   15.57
   8  10 -14   27.14   10.49
  -8 -10  14   29.94    7.05
   8  10 -13  186.34   11.33
  -8 -10  13  172.83   12.61
   8  10 -12   12.61    5.07
  -8 -10  12    6.16    5.44
   8  10 -11  105.26    8.86
  -8 -10  11  143.83    9.61
   8  10 -10    8.05    7.34
  -8 -10  10    4.56    4.71
   8  10  -9  127.06    8.37
  -8 -10   9  116.79    8.69
   8  10  -8    8.30    4.39
  -8 -10   8   11.72    7.52
   8  10  -7   37.40    8.94
  -8 -10   7   41.18    5.59
   8  10  -6   -2.18    4.27
   8  10  -6   -3.25    6.09
  -8 -10   6    2.88    6.30
   8  10  -5   35.89    9.69
   8  10  -5   31.04    5.11
  -8 -10   5   34.35    4.89
   8  10  -4    3.39    3.83
   8  10  -4   -1.31    4.29
  -8 -10   4   14.75    6.20
   8  10  -3   99.77    7.72
  -8 -10   3   97.05    6.66
   8  10  -2    0.53    6.82
  -8 -10   2   -4.58    5.86
   8  10  -1    7.45    3.97
  -8 -10   1   -0.40    3.43
   8  10   0   52.92    5.73
  -8 -10   0   32.02    8.00
   8  10   1   -0.36    3.90
  -8 -10  -1   -1.95    3.32
   8  10   2   -1.52    6.42
  -8 -10  -2    1.58    5.45
  -8 -10  -2    1.38    5.02
   8  10   3   27.09    4.97
  -8 -10  -3   19.77    3.94
  -8 -10  -3   26.09    4.28
   8  10   4    3.30    3.93
  -8 -10  -4   -3.98    3.17
  -8 -10  -4    0.21    3.35
   8  10   5   -0.47    4.13
  -8 -10  -5    2.81    3.33
  -8 -10  -5    0.10    3.35
   8  10   6    6.47    4.83
  -8 -10  -6   12.65    4.08
  -8 -10  -6   17.44    3.99
   8  11 -20   89.34   20.32
  -8 -11  20  119.17   13.84
   8  11 -19   10.09    7.34
  -8 -11  19   21.31    7.89
   8  11 -18  100.00   10.90
  -8 -11  18  102.74   11.84
   8  11 -17   13.28   11.32
  -8 -11  17   23.31    7.53
   8  11 -16   46.25    7.59
  -8 -11  16   39.24    8.50
   8  11 -15   -0.10    5.15
  -8 -11  15   -4.18    5.69
   8  11 -14  116.14    9.87
  -8 -11  14  126.36   17.43
   8  11 -13   12.53    5.52
  -8 -11  13   17.67    6.11
   8  11 -12  104.85    8.28
  -8 -11  12   88.35    9.08
   8  11 -11    0.87    4.31
  -8 -11  11    4.78    4.78
   8  11 -10  147.79    9.59
  -8 -11  10  165.61   10.22
   8  11  -9    6.44    7.33
  -8 -11   9    8.42    7.82
   8  11  -8  115.45    8.00
  -8 -11   8  118.37    8.26
   8  11  -7   11.79    4.93
   8  11  -7    0.79    3.94
  -8 -11   7    0.41    4.08
   8  11  -6   12.51    4.79
   8  11  -6    0.12    3.95
  -8 -11   6    3.88    3.94
   8  11  -5   30.65    4.91
   8  11  -5   41.01    5.89
  -8 -11   5   23.49    4.83
   8  11  -4   -2.59    3.83
   8  11  -4   14.56    8.16
  -8 -11   4   19.41    3.93
   8  11  -3    1.25    4.51
  -8 -11   3   -3.92    3.43
   8  11  -2   60.98    6.80
  -8 -11   2   48.85    8.55
   8  11  -1    5.38    7.62
  -8 -11   1    4.73    3.47
   8  11   0    0.91    4.20
  -8 -11   0   -2.46    5.29
   8  11   1    9.84    4.73
  -8 -11  -1    8.79    3.62
  -8 -11  -1   11.45    3.27
   8  11   2    9.95    4.71
  -8 -11  -2   10.72    5.85
  -8 -11  -2    9.13    3.24
   8  11   3    0.19    4.35
  -8 -11  -3    2.66    3.25
  -8 -11  -3    3.33    3.10
   8  11   4    9.75    4.95
  -8 -11  -4    7.88    5.83
  -8 -11  -4   13.26    3.43
   8  11   5   -0.79    4.50
   8  12 -18   -3.08    6.06
  -8 -12  18   -5.74   11.26
   8  12 -17   47.19    8.66
  -8 -12  17   72.29    9.69
   8  12 -16   -1.36    5.20
  -8 -12  16    2.56    5.76
   8  12 -15   32.30   11.79
  -8 -12  15   47.06   13.37
   8  12 -14   10.77    5.20
  -8 -12  14    1.99    5.82
   8  12 -13    9.05    9.09
  -8 -12  13   23.01    6.25
   8  12 -12   10.73    5.09
  -8 -12  12    9.84    5.35
   8  12 -11   19.46    4.97
  -8 -12  11    9.78    5.54
   8  12 -10    3.21    4.23
  -8 -12  10    2.97    7.62
   8  12  -9  136.82    9.10
  -8 -12   9  151.88    9.61
   8  12  -8    4.97    5.77
   8  12  -8    9.54    4.34
  -8 -12   8   10.89    4.61
   8  12  -7   57.38    7.90
   8  12  -7   65.27    9.68
  -8 -12   7   44.60    9.86
   8  12  -6    8.76    7.04
   8  12  -6   20.77    5.66
  -8 -12   6   11.53    4.33
   8  12  -5    5.83    3.79
   8  12  -5    6.55    8.27
  -8 -12   5    2.45    6.28
   8  12  -4   13.15    5.78
  -8 -12   4   20.07    4.18
   8  12  -3   40.02    6.50
  -8 -12   3   28.11    4.58
   8  12  -2   -2.96    4.70
  -8 -12   2    0.65    3.31
   8  12  -1   24.92    5.79
  -8 -12   1   20.68    3.99
   8  12   0   -9.61    7.63
  -8 -12   0    4.04    4.99
  -8 -12   0   -0.33    2.69
   8  12   1   23.26    5.88
   8  12   2   11.55    5.27
   8  13 -17    7.26    6.03
  -8 -13  17    5.02   11.49
   8  13 -16   28.04   10.36
  -8 -13  16   11.15    7.07
   8  13 -15   12.72    5.67
  -8 -13  15    7.46    6.52
   8  13 -14   47.14    7.15
  -8 -13  14   49.84    8.05
   8  13 -13   22.66    5.45
  -8 -13  13   13.39    6.25
   8  13 -12   -1.76    7.15
  -8 -13  12    1.74    4.99
   8  13 -11   27.52    5.46
  -8 -13  11   25.98   10.11
   8  13 -10   20.15    5.02
  -8 -13  10   15.21    5.54
   8  13  -9   -0.04    5.63
   8  13  -9   -2.09    6.52
  -8 -13   9   -1.00    4.25
   8  13  -8  103.30   10.79
   8  13  -8  104.37   12.02
  -8 -13   8  111.40   12.88
   8  13  -7    2.92    4.13
   8  13  -7   22.38    6.05
  -8 -13   7    7.34    4.33
   8  13  -6   65.21    5.97
   8  13  -6   62.59    8.28
  -8 -13   6   64.25    6.14
   8  13  -5    3.67    5.21
  -8 -13   5   -6.49    5.83
   8  13  -4   35.60   10.69
  -8 -13   4   18.81    4.17
   8  13  -3   -1.97    5.09
  -8 -13   3    0.02    3.11
   8  13  -2   29.95    6.88
   8  13  -1    1.84    5.19
   8  13   0   30.84    6.72
   8  14 -14   22.43    5.65
  -8 -14  14   10.09    6.51
   8  14 -13   77.02   12.63
  -8 -14  13   72.60    8.95
   8  14 -12    1.27    4.24
  -8 -14  12   -2.71    5.02
   8  14 -11   11.21    4.80
  -8 -14  11    8.75    9.07
   8  14 -10   14.92    6.45
   8  14 -10   10.46    7.04
  -8 -14  10   -4.06    4.88
   8  14  -9   29.08    7.93
   8  14  -9   28.90    5.00
  -8 -14   9   22.17    5.57
   8  14  -8   -0.27    3.88
   8  14  -8   -5.82    6.06
  -8 -14   8   -5.64    7.01
   8  14  -7   74.15    6.40
   8  14  -7   86.65    9.83
  -8 -14   7   87.61    6.83
   8  14  -6    0.74    5.95
  -8 -14   6    5.75    3.76
   8  14  -5   66.44    9.03
   8  14  -4   12.37    6.49
   8  14  -3   44.10    7.88
  -9  16   4   16.53    9.53
  -9  16   3   -5.28    5.20
  -9  16   2    3.27    5.10
  -9  16   1    0.70    8.09
  -9  16   0    3.31    5.10
  -9  16  -1   -1.98    4.99
  -9  16  -1    1.62    4.31
  -9  16  -2   -0.12    5.10
  -9  16  -2    0.16    4.46
  -9  16  -3    9.61    5.98
  -9  16  -3   12.59    5.44
  -9  16  -4   10.64    5.79
  -9  16  -4    1.05    5.19
  -9  16  -5   30.95   10.88
  -9  16  -5   29.38    7.61
  -9  16  -6    9.44    6.49
  -9  16  -6    9.61    5.90
  -9  16  -7    3.51    6.47
  -9  16  -7    4.89    5.79
   9 -15  -7   17.22    4.79
  -9  15   7    3.41    5.65
   9 -15  -6    0.16    4.21
  -9  15   6   34.33    8.93
   9 -15  -5   -1.02    3.66
  -9  15   5    0.79    4.87
  -9  15   4   27.76    6.14
  -9  15   3   -2.05    8.26
  -9  15   2   37.24    6.76
  -9  15   1    3.12    5.03
  -9  15   0   13.03    9.52
  -9  15  -1    0.55    4.98
  -9  15  -2   -4.71    8.85
  -9  15  -2   -2.63    4.89
  -9  15  -3   -8.11    5.54
  -9  15  -3   -0.38    5.08
  -9  15  -4   62.68    8.88
  -9  15  -4   67.75    7.92
  -9  15  -5   35.06    6.98
  -9  15  -5   36.86    7.86
  -9  15  -6   83.46   16.59
  -9  15  -6   71.94   14.05
  -9  15  -7   19.14    6.91
  -9  15  -7   25.05    7.68
  -9  15  -8   16.45    7.51
  -9  15  -8   12.66    6.72
  -9  15  -9    4.29    6.67
  -9  15  -9    1.23    6.11
   9 -14  -9   24.16    7.09
   9 -14  -9   36.05    5.93
  -9  14   9   17.04    6.46
   9 -14  -8   14.92    5.99
   9 -14  -8    8.36    4.75
  -9  14   8    6.10    5.56
   9 -14  -7   -1.38    5.60
   9 -14  -7    4.92    6.79
  -9  14   7   13.73    5.42
   9 -14  -6    2.45    3.82
  -9  14   6    4.91    5.11
   9 -14  -5   18.84    7.29
  -9  14   5   27.87    6.15
   9 -14  -4    0.34    3.20
  -9  14   4    4.98    4.92
  -9  14   3   92.95    8.90
  -9  14   2   33.50   10.93
  -9  14   1  211.54   13.03
  -9  14   0   35.45    6.90
  -9  14  -1   38.20    7.16
  -9  14  -2    7.76    5.69
  -9  14  -3    7.07    5.36
  -9  14  -3   12.09    9.83
  -9  14  -4   -4.80    5.69
  -9  14  -4    5.75    5.00
  -9  14  -5   81.29    8.79
  -9  14  -5   89.36   10.32
  -9  14  -6   32.50    8.41
  -9  14  -6   41.44    7.16
  -9  14  -7   70.11    9.86
  -9  14  -7   55.11   14.71
  -9  14  -8    7.87    7.15
  -9  14  -8   14.19    6.32
  -9  14  -9   -1.29    7.49
  -9  14  -9   34.12   11.03
  -9  14 -10   -4.47    6.61
  -9  14 -10   -4.56    7.31
  -9  14 -11   10.07    7.16
   9 -13 -11    1.53    5.78
   9 -13 -11    3.69    8.30
  -9  13  11    3.00    5.44
   9 -13 -10   69.45    8.85
   9 -13 -10   51.70    7.35
  -9  13  10   67.63    8.33
   9 -13  -9   15.19    6.45
   9 -13  -9   13.40    5.18
  -9  13   9   15.05    5.96
   9 -13  -8  126.57   11.59
   9 -13  -8  150.20   13.98
  -9  13   8  136.79   11.06
   9 -13  -7    1.04    6.23
   9 -13  -7   15.46    4.31
  -9  13   7   16.96    5.69
   9 -13  -6   40.02    7.22
   9 -13  -6   43.42    8.06
  -9  13   6   35.85    6.84
   9 -13  -5    1.78    3.16
  -9  13   5    2.66    4.87
   9 -13  -4   16.41    3.60
  -9  13   4   21.69    5.87
  -9  13   3    1.40    4.86
  -9  13   2  122.36   10.08
  -9  13   1   25.63   10.69
  -9  13   0  241.34   14.48
  -9  13  -1    9.71    5.70
  -9  13  -2   51.80    7.80
  -9  13  -3   -1.69    5.42
  -9  13  -4   12.11    5.94
  -9  13  -4   -0.95    5.23
  -9  13  -5    1.63    5.88
  -9  13  -5    3.64    8.72
  -9  13  -6   21.03    7.71
  -9  13  -6   30.63    6.60
  -9  13  -7  -11.12   10.01
  -9  13  -7    2.79    5.14
  -9  13  -8   35.95    8.64
  -9  13  -8   35.47    7.66
  -9  13  -9   13.16    7.02
  -9  13  -9   -0.89    6.13
  -9  13 -10   63.51   17.08
  -9  13 -10   48.27    9.36
  -9  13 -11    5.98    7.31
  -9  13 -11   -3.00    6.36
  -9  13 -12    3.62    7.75
  -9  13 -12   -1.44   11.29
   9 -12 -13   17.46   12.73
   9 -12 -13   11.30   10.92
  -9  12  13   36.65    7.31
   9 -12 -12   -1.31    5.83
   9 -12 -12    3.04    4.91
  -9  12  12    4.53    5.55
   9 -12 -11   29.65    7.10
   9 -12 -11   20.71    5.98
  -9  12  11   25.41   11.21
   9 -12 -10    4.92    9.77
   9 -12 -10    8.82    4.66
  -9  12  10    3.60    5.59
   9 -12  -9   60.63    8.92
   9 -12  -9   58.52   10.96
  -9  12   9   80.53    8.37
   9 -12  -8   23.75    5.92
   9 -12  -8    0.78    4.28
  -9  12   8   16.08    5.72
   9 -12  -7  138.47   11.18
   9 -12  -7  132.62    7.69
  -9  12   7  115.25   10.46
   9 -12  -6   28.77    5.98
   9 -12  -6    6.84    3.73
  -9  12   6    6.76    5.51
   9 -12  -5   15.24    6.23
   9 -12  -5   11.73    5.90
  -9  12   5   24.52    5.69
   9 -12  -4   87.06    4.93
  -9  12   4   80.96    8.57
   9 -12  -3    0.11    2.39
  -9  12   3    0.73    7.81
  -9  12   2   27.83    6.33
  -9  12   1   70.42    7.87
  -9  12   0   13.78    5.86
  -9  12  -1  124.23   10.34
  -9  12  -2   -5.32    9.36
  -9  12  -3   35.04    7.40
  -9  12  -4    4.23    5.67
  -9  12  -4    2.51    5.27
  -9  12  -5   18.93    6.67
  -9  12  -5    7.41    5.92
  -9  12  -6  -10.62    6.49
  -9  12  -6   -1.65    9.50
  -9  12  -7   11.26    7.01
  -9  12  -7   17.24    6.38
  -9  12  -8    4.14    6.40
  -9  12  -8   -4.26    9.19
  -9  12  -9   64.93    9.78
  -9  12  -9   43.72    8.96
  -9  12 -10   19.38    8.20
  -9  12 -10   10.68    7.05
  -9  12 -11   90.83   12.57
  -9  12 -11   79.90   11.06
  -9  12 -12    0.83    8.57
  -9  12 -12   21.35    7.57
  -9  12 -13   18.37    8.51
   9 -11 -14   38.30    7.10
   9 -11 -14   36.19    8.35
  -9  11  14   33.05    7.74
   9 -11 -13   20.02    5.80
   9 -11 -13    9.10    7.08
  -9  11  13   19.00   10.96
   9 -11 -12    7.44    4.97
   9 -11 -12    7.28    6.38
  -9  11  12    7.03    5.89
   9 -11 -11   15.39    5.21
   9 -11 -11   15.59    6.69
  -9  11  11   21.34    6.32
   9 -11 -10   -4.25    6.81
   9 -11 -10   -2.59    5.33
  -9  11  10    6.17    5.13
   9 -11  -9   73.55   14.96
   9 -11  -9   74.33    6.66
  -9  11   9   89.36    8.64
   9 -11  -8    2.38    5.49
   9 -11  -8    3.83    3.71
  -9  11   8    4.08    8.69
   9 -11  -7    8.03    5.36
   9 -11  -7    6.31    5.83
  -9  11   7    3.23    5.31
   9 -11  -6   89.94    8.95
   9 -11  -6   74.30    5.36
  -9  11   6   78.23    8.32
   9 -11  -5   15.26    5.63
   9 -11  -5    7.48    3.04
  -9  11   5   -4.15    8.99
   9 -11  -4   13.14    5.37
   9 -11  -4    4.32    4.19
  -9  11   4    1.98    5.21
   9 -11  -3  110.58    7.13
  -9  11   3  100.62    9.21
  -9  11   2   11.59    5.50
  -9  11   1   31.29    6.50
  -9  11   0   38.66   11.42
  -9  11  -1   10.73    5.79
  -9  11  -2   88.21    9.10
  -9  11  -3    3.56    5.56
  -9  11  -4  146.19   19.28
  -9  11  -5   58.99    8.66
  -9  11  -5   46.88    7.71
  -9  11  -6  120.88   18.11
  -9  11  -6   96.52    9.88
  -9  11  -7   -5.42    6.12
  -9  11  -7   -0.81    5.47
  -9  11  -8    8.16    7.75
  -9  11  -8   28.46    6.72
  -9  11  -9    6.18   10.80
  -9  11  -9   -1.27    5.87
  -9  11 -10   62.38   10.37
  -9  11 -10   49.02    9.06
  -9  11 -11   26.69    9.46
  -9  11 -11   33.30    8.35
  -9  11 -12   84.35   11.73
  -9  11 -12  112.86   13.62
  -9  11 -13   15.28   15.00
  -9  11 -13   14.28   13.75
   9 -10 -15   10.90    5.96
   9 -10 -15   17.43    7.01
  -9  10  15    3.06   11.05
   9 -10 -14   33.02    6.83
   9 -10 -14   47.87    8.35
  -9  10  14   34.26    7.87
   9 -10 -13   21.80    5.54
   9 -10 -13   24.49   11.85
  -9  10  13   10.36    6.49
   9 -10 -12   22.56    5.35
   9 -10 -12   28.88    7.12
  -9  10  12   13.07    6.62
   9 -10 -11   26.50    8.16
   9 -10 -11   20.41    6.69
  -9  10  11   10.02    6.24
   9 -10 -10   63.77    6.78
   9 -10 -10  106.70    9.23
  -9  10  10   69.02   14.12
   9 -10  -9    6.10    3.62
   9 -10  -9   -6.94    5.20
  -9  10   9   -7.26    5.12
   9 -10  -8   73.26    9.49
   9 -10  -8  106.96   14.30
  -9  10   8   69.04    8.42
   9 -10  -7   40.72    7.00
   9 -10  -7   30.43    4.20
  -9  10   7   36.46   11.17
   9 -10  -6    8.89    5.66
   9 -10  -6    4.79    5.14
  -9  10   6    9.79    5.40
   9 -10  -5  111.07    9.51
   9 -10  -5   91.87    4.93
  -9  10   5  100.50    8.87
   9 -10  -4   11.88    5.46
   9 -10  -4    3.98    2.48
  -9  10   4   13.30    5.30
   9 -10  -3   51.05    3.03
  -9  10   3   65.16    7.34
   9 -10  -2    7.32    1.80
  -9  10   2    3.54    8.89
  -9  10   1   82.60    8.59
  -9  10   0   -3.46    5.32
  -9  10  -1   76.30    8.88
  -9  10  -2   17.37    6.32
  -9  10  -3   70.44    8.96
  -9  10  -4    4.59    5.99
  -9  10  -5  194.76   13.36
  -9  10  -5  204.76   14.51
  -9  10  -6   93.02   16.49
  -9  10  -6   73.69    8.80
  -9  10  -7  166.82   14.09
  -9  10  -7  158.74   12.15
  -9  10  -8   -4.37    6.36
  -9  10  -8    0.37    5.55
  -9  10  -9   10.19    7.82
  -9  10  -9   20.24    7.07
  -9  10 -10   -3.40    7.15
  -9  10 -10   -4.88    6.40
  -9  10 -11   61.20   11.23
  -9  10 -11   50.06   16.17
  -9  10 -12   -0.88   14.92
  -9  10 -12   23.18    7.98
  -9  10 -13   25.83   10.01
  -9  10 -13   31.87   14.68
  -9  10 -14    0.41    8.60
  -9  10 -14    7.51    7.79
   9  -9 -16   46.01   15.35
   9  -9 -16   49.18    7.70
  -9   9  16   34.57    8.69
   9  -9 -15   27.82    8.46
   9  -9 -15   49.26    7.07
  -9   9  15   26.66    7.88
   9  -9 -14   25.44    7.69
   9  -9 -14   24.03    6.08
  -9   9  14   30.80    7.26
   9  -9 -13   12.34    6.76
   9  -9 -13    9.64    8.77
  -9   9  13   15.28    6.39
   9  -9 -12   61.58   10.82
   9  -9 -12   21.97   14.54
  -9   9  12   77.93   13.62
   9  -9 -11    1.00    3.99
   9  -9 -11   -4.07    5.68
  -9   9  11   -3.44    5.27
   9  -9 -10  103.20    7.56
   9  -9 -10  118.67   10.71
  -9   9  10  130.18   10.28
   9  -9  -9    4.49    3.52
   9  -9  -9   -2.44    5.60
  -9   9   9   13.87    8.84
   9  -9  -8  127.66   10.72
   9  -9  -8  128.56   10.46
  -9   9   8  107.14    9.96
   9  -9  -7    4.33    2.99
   9  -9  -7  -12.06    8.71
  -9   9   7   -0.96    4.91
   9  -9  -6  134.50   11.17
   9  -9  -6  147.16    9.77
  -9   9   6  145.73   10.52
   9  -9  -5    9.67    5.40
   9  -9  -5    2.61    2.49
  -9   9   5    9.66    5.16
   9  -9  -4   69.58    8.29
   9  -9  -4   64.53    3.48
  -9   9   4   56.13   12.59
   9  -9  -3    1.64    5.50
   9  -9  -3    6.56    1.92
  -9   9   3    5.37    5.23
   9  -9  -2  131.81    5.44
  -9   9   2  142.56   10.50
  -9   9   1   30.08    6.63
  -9   9   0  312.72   16.77
  -9   9  -1    6.83    5.72
  -9   9  -2   51.58    8.00
  -9   9  -3   93.78    9.96
  -9   9  -4   27.79    7.23
  -9   9  -5  -16.75    6.88
  -9   9  -6  174.99   13.86
  -9   9  -6  172.22   12.59
  -9   9  -7   14.05    6.98
  -9   9  -7   11.53   10.32
  -9   9  -8   80.81   10.03
  -9   9  -8   62.87    8.86
  -9   9  -9   19.33    8.00
  -9   9  -9   19.41   11.29
  -9   9 -10   18.84    8.64
  -9   9 -10   28.06    7.51
  -9   9 -11   21.02    8.46
  -9   9 -11   12.54   12.50
  -9   9 -12   13.86    7.58
  -9   9 -12   19.22   14.51
  -9   9 -13   51.66   10.62
  -9   9 -13   33.66    9.36
  -9   9 -14    8.43    8.28
  -9   9 -14   -0.72    7.49
   9  -8 -17  132.22   19.62
   9  -8 -17  155.07   14.61
  -9   8  17  136.81   13.41
   9  -8 -16  -10.08    9.15
   9  -8 -16    8.39    6.57
  -9   8  16    0.98    6.22
   9  -8 -15  112.92   17.16
   9  -8 -15  149.78   13.15
  -9   8  15  130.29   12.32
   9  -8 -14   -1.86    9.90
   9  -8 -14   -2.06    7.67
  -9   8  14    6.23    9.30
   9  -8 -13  115.67   11.36
   9  -8 -13  104.30   14.23
  -9   8  13  121.96   10.94
   9  -8 -12    1.92    6.40
   9  -8 -12   10.35    4.61
  -9   8  12   16.78    5.88
   9  -8 -11  265.68   24.35
   9  -8 -11  230.13   11.55
  -9   8  11  240.04   14.98
   9  -8 -10   -0.52    5.45
   9  -8 -10    0.76    3.56
  -9   8  10    1.06    5.09
   9  -8  -9  277.37   16.23
   9  -8  -9  263.28   10.99
  -9   8   9  278.52   24.27
   9  -8  -8    1.48    3.12
   9  -8  -8   -3.76    5.39
  -9   8   8    7.98    5.13
   9  -8  -7  331.31   10.95
   9  -8  -7  286.43   17.47
  -9   8   7  308.07   16.65
   9  -8  -6   10.30    5.99
   9  -8  -6    7.82    4.72
  -9   8   6   16.52    9.39
   9  -8  -5   89.22    9.60
   9  -8  -5  106.91    4.61
  -9   8   5  106.44    9.39
   9  -8  -4   53.23   13.34
   9  -8  -4   62.50    3.29
  -9   8   4   66.11    7.67
   9  -8  -3   -8.09    5.16
   9  -8  -3    0.51    1.61
  -9   8   3   -9.65    4.85
   9  -8  -2   26.33    1.68
  -9   8   2   28.15    6.45
  -9   8   1  141.80   17.57
  -9   8   0   62.18    8.16
  -9   8  -1  348.31   28.32
  -9   8  -2   91.47    9.63
  -9   8  -3   12.54   10.43
  -9   8  -4  153.90   12.30
  -9   8  -5   12.82    6.70
  -9   8  -6   32.93    7.23
  -9   8  -6   12.60    6.54
  -9   8  -7   55.04    9.36
  -9   8  -7   68.20    8.31
  -9   8  -8   -2.24   10.13
  -9   8  -8    1.35    5.40
  -9   8  -9  125.85   10.87
  -9   8  -9  107.67   12.49
  -9   8 -10    2.42    6.75
  -9   8 -10   -2.30    5.95
  -9   8 -11  130.29   14.03
  -9   8 -11  130.84   12.37
  -9   8 -12    0.72   12.78
  -9   8 -12    4.33    6.92
  -9   8 -13   34.81   10.12
  -9   8 -13   32.73    8.91
  -9   8 -14   42.86   10.63
  -9   8 -14   27.12    9.62
   9  -7 -18  106.61   11.50
   9  -7 -18  122.50   13.58
  -9   7  18  112.68   20.70
   9  -7 -17    3.08    5.67
   9  -7 -17   18.45   11.23
  -9   7  17   -5.72    6.42
   9  -7 -16  191.23   13.40
   9  -7 -16  205.94   16.27
  -9   7  16  189.41   23.77
   9  -7 -15    2.80    5.28
   9  -7 -15   11.12    6.74
  -9   7  15    4.06    6.26
   9  -7 -14  206.22   11.81
   9  -7 -14  194.42   14.95
  -9   7  14  160.90   13.90
   9  -7 -13    6.14    4.35
   9  -7 -13    4.34    9.65
  -9   7  13   -8.47    5.40
   9  -7 -12  136.83    8.74
   9  -7 -12  129.17   11.78
  -9   7  12  121.15   11.03
   9  -7 -11    4.73    4.10
   9  -7 -11   14.53    5.91
  -9   7  11  -11.18    9.43
   9  -7 -10  148.13   20.33
   9  -7 -10  158.02    8.53
  -9   7  10  180.29   11.79
   9  -7  -9   55.92    8.12
   9  -7  -9   49.07    8.29
  -9   7   9   51.48    7.66
   9  -7  -8  168.45   19.83
   9  -7  -8  170.99    7.61
  -9   7   8  184.62   12.01
   9  -7  -7    6.39    5.41
   9  -7  -7    4.68    2.88
  -9   7   7   -1.10    5.12
   9  -7  -6  270.39   12.57
   9  -7  -6  270.88   15.59
  -9   7   6  274.04   23.60
   9  -7  -5   -0.39    2.09
   9  -7  -5    2.34    4.94
  -9   7   5   -1.49    4.91
   9  -7  -4   27.23    6.23
   9  -7  -4   19.41    2.30
  -9   7   4   13.71    5.99
   9  -7  -3  217.97   13.74
   9  -7  -3  225.26    5.26
  -9   7   3  205.03   13.30
   9  -7  -2    7.81    6.10
   9  -7  -2   14.91    1.32
  -9   7   2   18.45    5.78
  -9   7   1   54.84   12.74
  -9   7   0  175.15   12.10
  -9   7  -1    5.18    9.46
  -9   7  -2  417.14   21.39
  -9   7  -3   22.88   11.26
  -9   7  -4   78.58    9.30
  -9   7  -5   30.27   12.51
  -9   7  -6   65.42    9.06
  -9   7  -6   58.92    8.15
  -9   7  -7    9.88    6.88
  -9   7  -7   18.40    6.12
  -9   7  -8   59.76   17.48
  -9   7  -8   85.09    9.10
  -9   7  -9   -2.05    5.89
  -9   7  -9   14.12    6.89
  -9   7 -10  228.19   17.00
  -9   7 -10  176.23   15.04
  -9   7 -11   60.52   10.64
  -9   7 -11   59.00    9.27
  -9   7 -12  265.03   19.06
  -9   7 -12  301.28   33.61
  -9   7 -13  -13.16    7.38
  -9   7 -13    9.90    6.46
  -9   7 -14   49.18   11.46
  -9   7 -14   57.70   10.45
  -9   7 -15   -0.94    7.32
   9  -6 -19   50.01    8.83
   9  -6 -19   27.20    9.54
  -9   6  19   19.79    9.17
   9  -6 -18   38.30    8.71
   9  -6 -18   49.92    9.75
  -9   6  18   26.04   15.17
   9  -6 -17   63.18    9.01
   9  -6 -17   48.75   10.62
  -9   6  17   82.34    9.96
   9  -6 -16    7.14    5.89
   9  -6 -16    8.16    7.00
  -9   6  16   10.90    6.66
   9  -6 -15   79.69    8.77
   9  -6 -15   92.20   11.11
  -9   6  15  103.30   10.23
   9  -6 -14   11.95    5.29
   9  -6 -14   24.26    6.90
  -9   6  14    6.85    6.66
   9  -6 -13  100.64    8.16
   9  -6 -13  112.85   11.21
  -9   6  13  118.98   17.14
   9  -6 -12   16.06    4.84
   9  -6 -12   10.66   11.07
  -9   6  12   19.81    6.28
   9  -6 -11   88.10    6.73
   9  -6 -11   83.64    9.63
  -9   6  11  102.76   15.25
   9  -6 -10  172.82    8.79
   9  -6 -10  168.13   13.00
  -9   6  10  199.83   12.57
   9  -6  -9   27.19    7.06
   9  -6  -9   37.63    6.91
  -9   6   9   17.85    6.52
   9  -6  -8  161.08   11.66
   9  -6  -8  144.12    6.93
  -9   6   8  174.70   17.72
   9  -6  -7  133.15   10.61
   9  -6  -7  137.85    6.23
  -9   6   7  121.60   10.41
   9  -6  -6   20.11    6.14
   9  -6  -6    9.49    4.88
  -9   6   6   22.29    5.91
   9  -6  -5  300.19   16.93
   9  -6  -5  325.52    9.01
  -9   6   5  316.11   16.74
   9  -6  -4    4.93    1.86
   9  -6  -4    0.48    5.44
  -9   6   4    2.98    5.20
   9  -6  -3   10.94    5.77
   9  -6  -3    8.09    1.57
  -9   6   3   15.16    9.13
   9  -6  -2  138.72   10.90
   9  -6  -2  142.98    4.00
  -9   6   2  142.65   10.74
  -9   6   1   15.86    9.85
  -9   6   0   30.13    6.77
  -9   6  -1  351.60   18.17
  -9   6  -2   17.43    6.34
  -9   6  -3  333.39   28.43
  -9   6  -4    0.34    5.57
  -9   6  -5  308.72   28.42
  -9   6  -6    3.83    5.08
  -9   6  -6   -5.21    5.65
  -9   6  -7  123.12   11.84
  -9   6  -7  116.90   10.33
  -9   6  -8   16.48   11.60
  -9   6  -8    6.86    6.06
  -9   6  -9   45.76    9.08
  -9   6  -9   36.43    7.66
  -9   6 -10    8.66    7.14
  -9   6 -10    2.76    6.36
  -9   6 -11  260.22   19.85
  -9   6 -11  261.57   17.24
  -9   6 -12   47.51   15.98
  -9   6 -12   29.00    8.50
  -9   6 -13  184.01   17.10
  -9   6 -13  163.46   15.24
  -9   6 -14   -5.66    8.06
  -9   6 -14   10.26    7.01
  -9   6 -15   45.55   10.14
   9  -5 -20    6.69   14.25
   9  -5 -20   21.53    8.89
  -9   5  20   22.59    8.65
   9  -5 -19  122.57   19.44
   9  -5 -19   90.83   20.86
  -9   5  19   80.03   12.24
   9  -5 -18    8.47    6.63
   9  -5 -18    7.30    7.35
  -9   5  18    1.43    6.93
   9  -5 -17   98.12   11.14
   9  -5 -17  120.99   12.66
  -9   5  17  116.58   12.46
   9  -5 -16    7.22    5.96
   9  -5 -16   25.41    7.31
  -9   5  16    4.79    6.92
   9  -5 -15   89.68    8.60
   9  -5 -15   73.52   10.66
  -9   5  15   81.75   10.18
   9  -5 -14   32.88    6.15
   9  -5 -14   31.16    7.98
  -9   5  14   33.84    7.53
   9  -5 -13   48.33    6.10
   9  -5 -13   41.48    8.44
  -9   5  13   26.44   12.93
   9  -5 -12  161.42    9.30
   9  -5 -12  168.13   12.91
  -9   5  12  148.10   12.24
   9  -5 -11    4.46    4.02
   9  -5 -11   11.38    5.95
  -9   5  11    4.14    5.74
   9  -5 -10  146.31    7.79
   9  -5 -10  154.15   11.81
  -9   5  10  123.68   11.11
   9  -5  -9  165.38   12.11
   9  -5  -9  140.08   18.81
  -9   5   9  169.74   11.75
   9  -5  -8   46.18    7.02
   9  -5  -8   37.86    7.56
  -9   5   8   59.40   12.10
   9  -5  -7   13.85    3.14
   9  -5  -7   13.49   10.18
  -9   5   7   14.75    5.85
   9  -5  -6  325.96    9.96
   9  -5  -6  346.57   17.23
  -9   5   6  330.85   17.35
   9  -5  -5   26.82   11.33
   9  -5  -5   28.91    2.79
  -9   5   5   29.40    6.60
   9  -5  -4  277.89   16.06
   9  -5  -4  300.51   10.09
  -9   5   4  275.39   14.96
   9  -5  -3  -16.45    9.06
   9  -5  -3    5.78    2.43
  -9   5   3    7.14    8.68
   9  -5  -2  143.05   11.18
   9  -5  -2  149.15    2.85
  -9   5   2  130.52   10.89
  -9   5   1   15.83    9.84
  -9   5   0  213.62   13.28
  -9   5  -1   61.98    8.19
  -9   5  -2  166.62   11.57
  -9   5  -3   44.10   12.86
  -9   5  -4  194.07   13.44
  -9   5  -5    6.44   10.28
  -9   5  -6  284.48   17.64
  -9   5  -7    2.89    5.94
  -9   5  -7    2.14    5.28
  -9   5  -8   18.73   12.38
  -9   5  -8   23.75    6.74
  -9   5  -9   87.97    9.40
  -9   5  -9   90.45   11.27
  -9   5 -10    3.56    7.53
  -9   5 -10   19.66    6.66
  -9   5 -11   23.62    8.61
  -9   5 -11   24.23    7.55
  -9   5 -12  129.42   21.39
  -9   5 -12   96.43   11.60
  -9   5 -13   13.01    8.10
  -9   5 -13    9.81    7.26
  -9   5 -14   40.63   10.31
  -9   5 -14   35.56    9.44
  -9   5 -15   31.22    9.18
   9  -4 -20   81.13   11.60
   9  -4 -20   49.23   12.05
  -9   4  20   73.31   11.41
   9  -4 -19   29.32    8.09
   9  -4 -19   14.74    8.48
  -9   4  19    4.99    8.21
   9  -4 -18   86.85   10.51
   9  -4 -18   63.67   11.16
  -9   4  18   70.25   10.77
   9  -4 -17   37.63   15.62
   9  -4 -17   57.66   10.40
  -9   4  17   72.11    9.99
   9  -4 -16   26.43   13.33
   9  -4 -16   45.48    8.63
  -9   4  16   31.07    8.30
   9  -4 -15   54.96    7.82
   9  -4 -15   58.57    9.27
  -9   4  15   30.74   14.46
   9  -4 -14   56.84    7.66
   9  -4 -14   67.90   15.25
  -9   4  14   64.27    8.86
   9  -4 -13  133.48    9.90
   9  -4 -13  172.63   12.65
  -9   4  13  132.81   19.43
   9  -4 -12    6.00    4.35
   9  -4 -12    4.01    5.95
  -9   4  12   -2.72    5.50
   9  -4 -11  365.53   15.33
   9  -4 -11  379.02   30.81
  -9   4  11  358.89   19.27
   9  -4 -10    2.77    3.66
   9  -4 -10  -10.11    5.56
  -9   4  10   -2.56    5.40
   9  -4  -9  251.37   10.58
   9  -4  -9  278.43   15.48
  -9   4   9  261.38   15.25
   9  -4  -8   68.11    8.04
   9  -4  -8   72.89    8.44
  -9   4   8   40.57   13.74
   9  -4  -7  168.68   10.33
   9  -4  -7  145.72   11.74
  -9   4   7  177.59   11.52
   9  -4  -6    1.71    5.51
   9  -4  -6    3.23    2.50
  -9   4   6   13.30    5.45
   9  -4  -5  405.72   20.38
   9  -4  -5  410.37   11.04
  -9   4   5  429.08   19.91
   9  -4  -4    1.03    1.79
   9  -4  -4    6.53    5.24
  -9   4   4    2.95    5.00
   9  -4  -3  215.67   12.92
   9  -4  -3  202.54    6.77
  -9   4   3  197.78   19.71
   9  -4  -2   97.54    8.73
   9  -4  -2   78.43    1.99
  -9   4   2   64.45    8.37
   9  -4  -1  213.95   13.37
  -9   4   1  265.58   21.29
  -9   4   0   16.30    5.99
  -9   4  -1  163.98   19.08
  -9   4  -2  123.62   10.23
  -9   4  -3   -1.36    8.97
  -9   4  -4  262.34   15.88
  -9   4  -5   51.22    8.30
  -9   4  -6   29.48    7.24
  -9   4  -7  118.02   10.19
  -9   4  -7   78.94    9.26
  -9   4  -8   97.40   15.46
  -9   4  -8   61.12    8.35
  -9   4  -9    5.39    6.51
  -9   4  -9    2.43    5.42
  -9   4 -10  138.26   12.45
  -9   4 -10  100.27   11.12
  -9   4 -11   43.30    8.69
  -9   4 -11   54.91    9.62
  -9   4 -12   49.33   15.98
  -9   4 -12   35.20    8.63
  -9   4 -13   30.51    8.81
  -9   4 -13   15.70    7.96
  -9   4 -14   30.72    9.92
  -9   4 -14   39.23    9.23
   9  -3 -21   34.84   10.55
  -9   3  21   33.78   10.16
   9  -3 -20   43.91   10.44
  -9   3  20   37.89    9.79
   9  -3 -19   42.15    9.69
   9  -3 -19   18.27    9.35
  -9   3  19   27.65    8.76
   9  -3 -18  156.40   15.53
   9  -3 -18  148.66   14.65
  -9   3  18  158.87   14.31
   9  -3 -17   -3.23    6.96
   9  -3 -17    0.81    6.70
  -9   3  17   -2.85    6.36
   9  -3 -16  279.60   18.00
   9  -3 -16  230.28   17.37
  -9   3  16  229.87   16.76
   9  -3 -15  -16.74    6.54
   9  -3 -15    2.54    6.53
  -9   3  15   -7.51   10.82
   9  -3 -14  150.53   13.48
  -9   3  14  181.01   13.24
   9  -3 -13   19.70   12.38
  -9   3  13   29.83   11.78
   9  -3 -12  289.59   18.27
  -9   3  12  325.32   17.63
   9  -3 -11    3.26    6.02
  -9   3  11    7.79    5.84
   9  -3 -10  276.76   16.39
  -9   3  10  269.03   16.23
   9  -3  -9   32.59    6.91
  -9   3   9   24.17    6.74
   9  -3  -8  190.15   12.90
  -9   3   8  212.12   20.33
   9  -3  -7   21.81    6.27
  -9   3   7   15.31    5.98
   9  -3  -6  317.55   17.11
  -9   3   6  326.02   16.88
   9  -3  -5    0.42    5.19
   9  -3  -5    1.47    2.33
  -9   3   5   -0.90    4.92
   9  -3  -4  222.03   13.56
   9  -3  -4  220.05    6.19
  -9   3   4  208.73   12.99
   9  -3  -3  206.16   12.96
   9  -3  -3  209.76    5.06
  -9   3   3  183.10   19.75
   9  -3  -2   57.22    2.98
   9  -3  -2   42.41    7.66
  -9   3   2   64.29    7.49
   9  -3  -1  107.04    2.09
   9  -3  -1  106.29    9.75
   9  -3  -1  125.02    1.86
  -9   3   1  152.66   15.91
  -9   3   0  225.47   13.39
  -9   3  -1   40.47   11.66
  -9   3  -2   56.07    7.95
  -9   3  -3  234.34   22.35
  -9   3  -4   -6.72    5.79
  -9   3  -5  228.51   14.99
  -9   3  -6   54.34    8.38
  -9   3  -7   66.64    8.76
  -9   3  -7   56.09    7.85
  -9   3  -8   84.53    9.35
  -9   3  -8   52.21    8.23
  -9   3  -9   84.07    8.65
  -9   3  -9   59.79    9.85
  -9   3 -10  116.99   11.68
  -9   3 -10   85.69   10.15
  -9   3 -11   19.08    8.26
  -9   3 -11   27.88    7.17
  -9   3 -12  151.13   14.05
  -9   3 -12  116.81   12.51
  -9   3 -13   15.24   13.20
  -9   3 -13    9.61   11.96
  -9   3 -14   19.59    9.23
  -9   3 -14   31.51    8.50
   9  -2 -21  176.94   27.95
  -9   2  21  148.94   16.61
   9  -2 -20    8.18    8.24
  -9   2  20    7.11    7.89
   9  -2 -19   44.84   10.23
  -9   2  19   43.61    9.89
   9  -2 -18   51.56   10.46
  -9   2  18   63.86    9.91
   9  -2 -17  146.60   14.08
  -9   2  17  146.20   13.75
   9  -2 -16    1.68   11.70
  -9   2  16   10.95    6.71
   9  -2 -15  204.03   15.45
  -9   2  15  221.41   24.22
   9  -2 -14   51.25    8.48
  -9   2  14   34.82    8.02
   9  -2 -13  144.29   12.08
  -9   2  13  118.98   19.19
   9  -2 -12   14.81    6.78
  -9   2  12   21.14    6.58
   9  -2 -11  161.36   12.58
  -9   2  11  155.83   11.96
   9  -2 -10   51.11   12.96
  -9   2  10   49.15    7.91
   9  -2  -9   72.68    8.80
  -9   2   9   69.14    8.29
   9  -2  -8  123.60   16.93
  -9   2   8  136.33   17.10
   9  -2  -7  151.37   11.84
  -9   2   7  170.47   11.22
   9  -2  -6   17.36    9.68
  -9   2   6    6.41    5.75
   9  -2  -5  428.24   20.57
  -9   2   5  452.35   20.83
   9  -2  -4   49.94    7.92
  -9   2   4   69.06    7.64
   9  -2  -3  185.42   11.93
  -9   2   3  174.65   11.62
   9  -2  -2  145.87   10.32
  -9   2   2  131.69   10.30
   9  -2  -1   67.50    7.31
   9  -2  -1   57.99    2.59
   9  -2  -1   48.71    1.98
  -9   2   1   69.43   12.17
  -9   2   0  122.84    9.58
  -9   2  -1  247.34   22.01
  -9   2  -2   -9.71    5.51
  -9   2  -3  117.59    9.92
  -9   2  -4   42.02    7.35
  -9   2  -5  162.67   12.33
  -9   2  -6   19.69   11.23
  -9   2  -6   24.44    6.08
  -9   2  -7  154.72   11.98
  -9   2  -7  150.04   11.13
  -9   2  -8   50.56    8.22
  -9   2  -8   46.42    7.29
  -9   2  -9   71.26   15.85
  -9   2  -9   74.96    8.48
  -9   2 -10    8.10    7.24
  -9   2 -10   24.27    6.66
  -9   2 -11  268.95   18.39
  -9   2 -11  263.89   26.02
  -9   2 -12  -16.91    6.95
  -9   2 -12    8.55    6.15
  -9   2 -13  145.42   15.27
  -9   2 -13  162.86   22.25
  -9   2 -14    3.11   13.94
  -9   2 -14   15.16    7.27
   9  -1 -21   -3.26    8.07
  -9   1  21   -3.02    7.97
   9  -1 -20  103.99   19.88
  -9   1  20   59.65   11.86
   9  -1 -19   84.04   11.53
  -9   1  19   65.21   11.73
   9  -1 -18   13.09    7.87
  -9   1  18    9.28    7.59
   9  -1 -17  111.12   13.18
  -9   1  17  144.70   12.74
   9  -1 -16   41.99    9.01
  -9   1  16   49.64    8.87
   9  -1 -15  126.45   12.54
  -9   1  15  161.39   20.46
   9  -1 -14   37.42    8.41
  -9   1  14   48.86    8.10
   9  -1 -13   61.87    9.21
  -9   1  13   65.00   14.53
   9  -1 -12  144.39   11.38
  -9   1  12  121.16   11.28
   9  -1 -11   41.32    7.57
  -9   1  11   32.25    7.21
   9  -1 -10  141.82   19.49
  -9   1  10  178.94   12.53
   9  -1  -9   89.09    9.61
  -9   1   9  107.03    9.26
   9  -1  -8   22.50    6.25
  -9   1   8   18.63    6.34
   9  -1  -7   90.76    9.51
  -9   1   7  120.25    9.32
   9  -1  -6  331.71   26.16
  -9   1   6  328.33   25.50
   9  -1  -5   -3.26    4.95
  -9   1   5    3.68    4.96
   9  -1  -4  886.19   51.57
  -9   1   4  840.09   35.28
   9  -1  -3    1.26    5.43
  -9   1   3   11.13    5.35
   9  -1  -2  136.19   10.49
  -9   1   2  130.83   10.17
   9  -1  -1   66.09    7.86
   9  -1  -1   60.56    1.80
  -9   1   1   77.36    7.69
   9  -1   0  337.53    5.25
  -9   1   0  376.04   17.72
  -9   1  -1   -1.69    4.98
  -9   1  -2  247.36   14.36
  -9   1  -3   11.99    5.87
  -9   1  -4  288.59   16.06
  -9   1  -5   -3.52    5.52
  -9   1  -6  370.60   19.75
  -9   1  -6  362.99   18.20
  -9   1  -7   -0.02    5.21
  -9   1  -7   -0.32    4.83
  -9   1  -8   79.71    9.22
  -9   1  -8   82.25    8.18
  -9   1  -9   88.37    9.30
  -9   1  -9   20.66   14.10
  -9   1 -10   59.72   15.13
  -9   1 -10   55.59    8.24
  -9   1 -11   20.94    7.30
  -9   1 -11    9.71    6.71
  -9   1 -12  205.43   15.73
  -9   1 -12  166.95   14.25
  -9   1 -13    4.38    6.91
  -9   1 -13   -6.84    6.16
  -9   1 -14   53.70    9.57
   9   0 -21   42.54   11.43
  -9   0  21   49.33   11.12
   9   0 -20   30.60    9.58
  -9   0  20   17.28    9.24
   9   0 -19   23.30   15.67
  -9   0  19   33.47    9.01
   9   0 -18   77.28   12.17
  -9   0  18  103.16   11.75
   9   0 -17   10.60    7.59
  -9   0  17   14.05    7.44
   9   0 -16  148.62   13.27
  -9   0  16  117.40   12.39
   9   0 -15    9.44   10.93
  -9   0  15    4.06    6.54
   9   0 -14  138.21   12.59
  -9   0  14  141.43   12.02
   9   0 -13   50.92    8.50
  -9   0  13   38.92   13.59
   9   0 -12   15.38   10.92
  -9   0  12   18.16    6.56
   9   0 -11  342.01   19.07
  -9   0  11  338.60   28.42
   9   0 -10    2.81    5.45
  -9   0  10   -4.59    5.30
   9   0  -9  167.23   12.53
  -9   0   9  196.69   12.45
   9   0  -8   32.03    6.68
  -9   0   8   26.20    6.62
   9   0  -7   93.38   10.16
  -9   0   7  135.10    9.61
   9   0  -6   39.24    6.92
  -9   0   6   32.44    6.60
   9   0  -5  528.05   23.64
  -9   0   5  523.99   24.13
   9   0  -4   58.38   12.77
  -9   0   4   56.34   12.42
  -9   0   4   53.26   12.72
   9   0  -3  523.60   23.14
  -9   0   3  510.52   22.41
   9   0  -2    4.98    5.32
  -9   0   2    8.96    8.66
   9   0  -1  342.14   16.12
   9   0  -1  307.30    6.28
  -9   0   1  352.73   16.44
   9   0   0    5.16    1.86
  -9   0   0    8.11    5.05
   9   0   1  306.42    5.19
  -9   0  -1  337.42   16.13
   9   0   2   -0.29    0.65
  -9   0  -2   -0.81    8.10
  -9   0  -3   69.22    8.01
  -9   0  -4   16.10    9.88
  -9   0  -5  193.60   13.10
  -9   0  -6   -6.87    5.58
  -9   0  -6   -2.22    4.91
  -9   0  -7  197.57   19.65
  -9   0  -7  146.93   17.68
  -9   0  -8   40.17    6.86
  -9   0  -8   44.11    7.69
  -9   0  -9    9.23    6.29
  -9   0  -9   11.63    5.78
  -9   0 -10  164.84   12.03
  -9   0 -10  165.31   13.23
  -9   0 -11    8.56   12.18
  -9   0 -11   18.51    6.59
  -9   0 -12   26.83    8.62
  -9   0 -12   38.01    7.68
  -9   0 -13   65.98   11.36
  -9   0 -13   86.67   10.16
   9   1 -22   -6.79    8.54
  -9  -1  22    9.58    8.19
   9   1 -21   30.48   10.69
  -9  -1  21   42.76   10.54
   9   1 -20   54.85   10.85
  -9  -1  20   37.84   10.40
   9   1 -19   39.60    9.76
  -9  -1  19   28.69    9.63
   9   1 -18  103.61   12.61
  -9  -1  18  105.99   12.15
   9   1 -17    0.28    7.07
  -9  -1  17  -11.52    6.83
   9   1 -16  114.28   11.46
  -9  -1  16   89.65   11.15
   9   1 -15   45.26   14.89
  -9  -1  15   54.47    8.89
   9   1 -14   48.49    8.38
  -9  -1  14   44.89    8.43
   9   1 -13   78.24   10.52
  -9  -1  13  128.70   10.54
   9   1 -12   69.26   14.22
  -9  -1  12   56.81    8.58
   9   1 -11    4.01    5.40
  -9  -1  11   -1.87    5.40
   9   1 -10  470.45   23.18
  -9  -1  10  479.69   23.02
   9   1  -9    4.57    5.58
  -9  -1   9    8.07    9.36
   9   1  -8  123.89   10.28
  -9  -1   8  122.26   10.05
   9   1  -7  122.97   10.31
  -9  -1   7  141.81   10.13
   9   1  -6   66.51    8.17
  -9  -1   6   76.09    8.12
   9   1  -5   -6.28    4.78
  -9  -1   5    6.71    4.73
   9   1  -4  263.65   21.86
  -9  -1   4  244.81   13.79
   9   1  -3    9.86    5.37
  -9  -1   3   10.73    5.34
   9   1  -2  147.52   10.58
  -9  -1   2  160.58   10.25
   9   1  -1   37.82    6.65
   9   1  -1   43.43    3.44
  -9  -1   1   35.19    6.78
   9   1   0  189.91    4.49
  -9  -1   0  223.26   11.99
   9   1   1   48.17    1.95
  -9  -1  -1   38.78    6.84
   9   1   2   49.62    1.84
  -9  -1  -2   51.79    6.95
   9   1   3  147.60    4.49
  -9  -1  -3  150.84   10.73
   9   1   4   -0.30    1.03
  -9  -1  -4   -2.95    4.85
  -9  -1  -5  127.96   16.50
  -9  -1  -6   53.63    7.47
  -9  -1  -6   37.98    6.74
  -9  -1  -7   16.75    5.55
  -9  -1  -7   16.99    6.42
  -9  -1  -8   53.26    6.98
  -9  -1  -8   49.66   12.99
  -9  -1  -9  129.77   11.36
  -9  -1  -9  137.63   10.61
  -9  -1 -10   -6.68    5.62
  -9  -1 -10   13.59    8.51
  -9  -1 -11  140.80   11.72
  -9  -1 -11  104.65   10.87
  -9  -1 -12   32.38   14.01
  -9  -1 -12   33.85   12.81
  -9  -1 -13   39.69    8.04
   9   2 -22   -5.54    8.35
  -9  -2  22    3.56    8.09
   9   2 -21   33.59   10.47
  -9  -2  21   31.37   10.33
   9   2 -20   25.27    9.47
  -9  -2  20   19.76    8.88
   9   2 -19  104.73   12.89
  -9  -2  19   90.22   12.71
   9   2 -18   -2.34   12.14
  -9  -2  18   10.62    7.08
   9   2 -17   96.31   12.35
  -9  -2  17  117.56   12.02
   9   2 -16    6.55    7.18
  -9  -2  16   21.13    7.04
   9   2 -15  210.87   15.71
  -9  -2  15  232.37   15.73
   9   2 -14   48.48    8.34
  -9  -2  14   41.86    8.18
   9   2 -13    3.13    6.02
  -9  -2  13    5.16    5.84
   9   2 -12  167.03   20.84
  -9  -2  12  182.90   12.86
   9   2 -11   75.42    8.87
  -9  -2  11   69.05    8.48
   9   2 -10   20.33    6.41
  -9  -2  10   24.30    6.29
   9   2  -9  122.22   10.48
  -9  -2   9  150.05   10.81
   9   2  -8   96.52    9.76
  -9  -2   8  145.66    9.90
   9   2  -7    6.14    5.12
  -9  -2   7    1.92    8.61
   9   2  -6   63.72   13.48
  -9  -2   6   88.14    8.16
   9   2  -5   82.71    8.22
  -9  -2   5   93.19   13.51
   9   2  -4   40.79    6.46
  -9  -2   4   37.82    6.52
   9   2  -3   38.49    6.33
  -9  -2   3   39.26    6.32
   9   2  -2  200.17    6.01
   9   2  -2  233.51   12.25
  -9  -2   2  243.75   12.25
   9   2  -1    1.82    5.21
   9   2  -1   19.16    3.49
  -9  -2   1   25.42    5.48
   9   2   0  120.49    3.80
  -9  -2   0  128.53    9.27
   9   2   1  132.65    3.83
  -9  -2  -1  118.09    9.58
   9   2   2   87.28    4.58
  -9  -2  -2   89.45    8.23
   9   2   3   27.57    2.03
  -9  -2  -3   33.99   10.28
   9   2   4  121.21    5.28
  -9  -2  -4  122.03    9.72
   9   2   5    1.90    1.58
  -9  -2  -5    1.20    4.91
  -9  -2  -6   46.92    7.01
  -9  -2  -6   80.35    8.00
  -9  -2  -7   82.20    8.69
  -9  -2  -7   67.52    7.55
  -9  -2  -8   25.62    9.53
  -9  -2  -8   27.37    6.75
  -9  -2  -9   37.45   11.87
  -9  -2  -9   38.07    6.80
  -9  -2 -10   83.92    9.88
  -9  -2 -10   81.06    8.89
  -9  -2 -11   37.76    8.19
  -9  -2 -11   45.41    7.47
  -9  -2 -12   34.10    8.11
  -9  -2 -12   29.84    7.36
   9   3 -22  110.36   15.51
  -9  -3  22  105.68   14.85
   9   3 -21   23.13    9.19
  -9  -3  21    4.00    9.01
   9   3 -20   54.49   11.89
  -9  -3  20   78.49   11.59
   9   3 -19   54.31   10.54
  -9  -3  19   55.88   10.67
   9   3 -18    8.43   11.88
  -9  -3  18    0.69   11.60
   9   3 -17   28.36    8.47
  -9  -3  17   33.94    8.44
   9   3 -16   82.61   10.51
  -9  -3  16   80.71   17.31
   9   3 -15   12.11    6.80
  -9  -3  15   12.13    6.73
   9   3 -14   63.94    8.59
  -9  -3  14    6.71   14.02
   9   3 -13   98.57   11.45
  -9  -3  13  156.18   11.58
   9   3 -12   -2.99    8.75
  -9  -3  12    3.50    8.94
   9   3 -11  145.46   12.11
  -9  -3  11  186.74   12.06
   9   3 -10   46.75    7.53
  -9  -3  10   38.16   12.26
   9   3  -9  149.70   10.96
  -9  -3   9  152.80   11.37
   9   3  -8    8.80    5.18
  -9  -3   8   -0.08    5.12
   9   3  -7  124.18    9.48
  -9  -3   7  108.60    9.52
   9   3  -6   19.51    9.64
  -9  -3   6   23.62    5.78
   9   3  -5   50.44    6.62
  -9  -3   5   36.44    6.55
   9   3  -4  107.56    9.22
  -9  -3   4  123.09    9.08
   9   3  -3   19.42    9.98
  -9  -3   3   33.63    6.13
   9   3  -2   70.22    7.77
   9   3  -2   75.44    5.94
  -9  -3   2   78.57    7.64
   9   3  -1  172.41    5.45
  -9  -3   1  170.74   10.81
   9   3   0  124.44    4.34
  -9  -3   0  122.77    9.19
   9   3   1   17.57    3.74
  -9  -3  -1   18.77    5.54
   9   3   2  296.98    7.78
  -9  -3  -2  303.68   15.22
   9   3   3    7.37    3.35
  -9  -3  -3   11.65    5.19
   9   3   4   59.91    3.07
  -9  -3  -4   62.21   11.93
   9   3   5   14.39    2.21
  -9  -3  -5    6.69    5.55
  -9  -3  -5   14.53    4.92
   9   3   6  113.98    4.47
  -9  -3  -6  113.34    9.84
  -9  -3  -6  128.95   14.03
  -9  -3  -7   -3.51    5.29
  -9  -3  -7   -3.56    4.51
  -9  -3  -8  112.59    9.23
  -9  -3  -8  113.70   10.20
  -9  -3  -9   29.13    7.03
  -9  -3  -9   27.78    6.31
  -9  -3 -10   30.55   11.71
  -9  -3 -10   27.53    6.58
  -9  -3 -11   38.42    8.01
  -9  -3 -11   44.36   12.23
   9   4 -22  -15.88    9.50
   9   4 -21  104.33   14.46
  -9  -4  21  103.38   14.52
   9   4 -20   11.76    8.29
  -9  -4  20    3.66   13.68
   9   4 -19   29.31    8.94
  -9  -4  19   23.25    8.95
   9   4 -18   80.55   19.56
  -9  -4  18   94.01   12.02
   9   4 -17    3.29    6.77
  -9  -4  17  -10.73    6.58
   9   4 -16   57.53    9.47
  -9  -4  16   59.77    9.61
   9   4 -15   42.65    8.11
  -9  -4  15   31.65    8.02
   9   4 -14   67.17    9.42
  -9  -4  14   87.04    9.67
   9   4 -13   22.27    6.88
  -9  -4  13   24.05    6.94
   9   4 -12   33.72   14.38
  -9  -4  12   87.49    9.03
   9   4 -11  161.85   12.49
  -9  -4  11  200.98   12.82
   9   4 -10    9.08    9.91
  -9  -4  10   16.34    5.98
   9   4  -9   77.98    8.71
  -9  -4   9  111.39    9.22
   9   4  -8   65.64   12.54
  -9  -4   8   66.31    7.88
   9   4  -7    7.32    4.91
  -9  -4   7   -0.40    4.95
   9   4  -6   73.56    7.51
  -9  -4   6   66.42   12.73
   9   4  -5  113.31    9.22
  -9  -4   5  119.17    9.08
   9   4  -4    9.46    5.06
  -9  -4   4    3.29    8.45
   9   4  -3  340.38   10.67
   9   4  -3  326.56   24.91
  -9  -4   3  368.86   16.43
   9   4  -2    7.63    4.90
   9   4  -2    6.42    2.53
  -9  -4   2   -2.46    7.93
   9   4  -1  260.13    8.11
  -9  -4   1  289.34   13.58
   9   4   0   11.23    4.22
  -9  -4   0   16.42    8.61
   9   4   1  272.30   11.64
  -9  -4  -1  297.32   14.29
   9   4   2    2.55    2.15
  -9  -4  -2   -0.12    7.59
   9   4   3  191.11    6.25
  -9  -4  -3  212.30   11.74
   9   4   4    5.13    2.32
  -9  -4  -4   10.92    4.95
   9   4   5   95.07    4.47
  -9  -4  -5  111.42    8.74
  -9  -4  -5  112.35    7.95
   9   4   6    2.00    3.91
  -9  -4  -6    5.43    4.39
  -9  -4  -6    3.58    4.93
   9   4   7  135.20    5.99
  -9  -4  -7  172.40   10.87
  -9  -4  -7  151.94   15.18
  -9  -4  -8   -4.09    8.38
  -9  -4  -8    1.97    4.54
  -9  -4  -9   51.45    8.14
  -9  -4  -9   56.95    7.33
  -9  -4 -10   73.17    9.07
  -9  -4 -10   73.51    8.22
   9   5 -21    4.68    7.79
  -9  -5  21   -1.48    7.85
   9   5 -20   61.31   11.30
  -9  -5  20   64.17   11.52
   9   5 -19    1.02    7.13
  -9  -5  19   -6.20    7.09
   9   5 -18   31.16   15.24
  -9  -5  18   39.14    9.23
   9   5 -17   13.57    7.26
  -9  -5  17   12.58    7.42
   9   5 -16   54.66    9.54
  -9  -5  16   74.27    9.76
   9   5 -15   35.45   13.05
  -9  -5  15   32.70   12.93
   9   5 -14    9.33    6.59
  -9  -5  14   16.75    6.58
   9   5 -13   74.83    9.52
  -9  -5  13  116.18   15.74
   9   5 -12  128.00   18.33
  -9  -5  12  153.29   11.59
   9   5 -11   -4.36    5.24
  -9  -5  11    2.78    8.90
   9   5 -10  353.12   27.47
  -9  -5  10  364.19   18.79
   9   5  -9   13.71    5.71
  -9  -5   9   14.32    9.88
   9   5  -8  109.70    9.88
  -9  -5   8  137.04    9.91
   9   5  -7   83.24    8.14
  -9  -5   7   74.59   12.99
   9   5  -6   14.62    5.26
  -9  -5   6    8.69    5.20
   9   5  -5    1.18    8.12
  -9  -5   5    8.98    4.94
   9   5  -4  254.32   13.40
  -9  -5   4  257.34   13.28
   9   5  -3    5.41    5.03
   9   5  -3    3.91    4.74
  -9  -5   3    5.92    4.72
   9   5  -2  252.29   13.25
   9   5  -2  246.41   12.54
  -9  -5   2  279.96   13.30
   9   5  -1   15.67    5.22
  -9  -5   1   25.83    5.19
   9   5   0  190.71   10.72
  -9  -5   0  216.69   11.34
   9   5   1    3.02    4.34
  -9  -5  -1   12.00    7.68
   9   5   2  154.42    5.97
  -9  -5  -2  162.66    9.99
   9   5   3   33.49    3.22
  -9  -5  -3   25.01    9.70
   9   5   4   33.44    3.31
  -9  -5  -4   32.39    5.41
  -9  -5  -4   21.36    6.02
   9   5   5   41.31    3.66
  -9  -5  -5   37.95    6.46
  -9  -5  -5   32.09    9.48
   9   5   6   44.91    4.01
  -9  -5  -6   58.28    6.17
  -9  -5  -6   49.08   11.50
   9   5   7    3.92    2.80
  -9  -5  -7   -0.19    4.71
  -9  -5  -7   -5.33    4.48
  -9  -5  -8  108.43    9.67
  -9  -5  -8  124.73   14.47
  -9  -5  -9   16.32    9.94
  -9  -5  -9   13.76    5.54
   9   6 -21   22.87    9.29
  -9  -6  21   23.21    9.39
   9   6 -20   -5.93    7.82
  -9  -6  20   -5.13    8.02
   9   6 -19   58.39   10.73
  -9  -6  19   61.10   18.14
   9   6 -18   -1.16   12.62
  -9  -6  18   17.71    7.59
   9   6 -17  164.76   14.77
  -9  -6  17  196.85   24.33
   9   6 -16   26.13    7.90
  -9  -6  16   26.21    7.97
   9   6 -15  131.07   20.44
  -9  -6  15  165.28   13.41
   9   6 -14   11.41    6.83
  -9  -6  14   27.57    6.97
   9   6 -13   22.51    6.84
  -9  -6  13   27.29    6.92
   9   6 -12  120.50   10.57
  -9  -6  12  132.25   10.51
   9   6 -11   40.20    6.97
  -9  -6  11   29.38    7.05
   9   6 -10   -9.43    4.99
  -9  -6  10    4.40    5.09
   9   6  -9  218.39   13.25
  -9  -6   9  249.76   13.80
   9   6  -8    3.44    4.78
  -9  -6   8    0.53    4.77
   9   6  -7   34.93    6.24
  -9  -6   7   38.76    6.35
   9   6  -6   73.31    7.67
  -9  -6   6   83.19    7.67
   9   6  -5   11.82    4.95
  -9  -6   5    7.18    4.95
   9   6  -4   46.95    4.85
   9   6  -4   64.94    6.57
  -9  -6   4   46.51    6.44
   9   6  -3   28.58    5.69
   9   6  -3   28.93    3.98
  -9  -6   3   32.87    5.70
   9   6  -2  121.09    6.19
  -9  -6   2  131.97    8.87
   9   6  -1   17.73    3.47
  -9  -6   1   19.43    5.11
   9   6   0   42.06    4.09
  -9  -6   0   46.85    6.05
   9   6   1   73.03    4.93
  -9  -6  -1   95.68    7.30
   9   6   2    6.29    2.90
  -9  -6  -2    7.62    7.67
   9   6   3   19.86    5.63
  -9  -6  -3   22.76    5.34
   9   6   4  113.00    9.73
  -9  -6  -4  133.85    9.25
  -9  -6  -4  133.01    8.39
   9   6   5   -0.41    4.96
  -9  -6  -5   -0.21    4.71
  -9  -6  -5   11.76    4.14
   9   6   6   30.10    6.50
  -9  -6  -6   30.55    8.91
  -9  -6  -6   32.80    6.26
   9   6   7   57.89    8.24
  -9  -6  -7   68.70   12.46
  -9  -6  -7   76.11    7.18
  -9  -6  -8   -1.79    4.88
  -9  -6  -8    5.30    4.60
   9   7 -20    9.84    7.81
  -9  -7  20    2.53    7.94
   9   7 -19   28.00    8.83
  -9  -7  19   28.74    9.18
   9   7 -18    9.80    7.67
  -9  -7  18   23.90    7.98
   9   7 -17    9.25    6.34
  -9  -7  17   -4.55    6.63
   9   7 -16  158.32   13.39
  -9  -7  16  150.26   13.58
   9   7 -15   13.06   11.30
  -9  -7  15   18.69    7.14
   9   7 -14   96.94    9.37
  -9  -7  14   26.35   15.86
   9   7 -13  106.51   15.89
  -9  -7  13   98.79   10.08
   9   7 -12   27.87    6.51
  -9  -7  12   12.17   10.70
   9   7 -11  158.17   11.81
  -9  -7  11  175.55   11.93
   9   7 -10   -3.94    4.74
  -9  -7  10   -1.78    5.07
   9   7  -9   33.01   10.19
  -9  -7   9   30.83    6.18
   9   7  -8   28.33    6.11
  -9  -7   8   34.05    6.11
   9   7  -7   76.08   12.49
  -9  -7   7   74.50    7.72
   9   7  -6    2.23    4.59
  -9  -7   6    6.08    4.59
   9   7  -5   90.01    6.57
   9   7  -5  100.71    8.07
  -9  -7   5  105.63    8.16
   9   7  -4    2.15    5.89
   9   7  -4   -0.30    7.30
  -9  -7   4    1.25    4.30
   9   7  -3  132.01    9.11
   9   7  -3  118.97    6.79
  -9  -7   3  134.26    8.88
   9   7  -2    4.51    3.34
  -9  -7   2    4.28    4.41
   9   7  -1  160.90    7.79
  -9  -7   1  185.54   10.11
   9   7   0   -0.13    3.01
  -9  -7   0    1.60    4.07
   9   7   1   19.59    3.73
  -9  -7  -1   16.85    8.32
   9   7   2   49.37    4.64
  -9  -7  -2   61.29    6.32
   9   7   3   16.66    5.98
  -9  -7  -3    7.48    8.01
  -9  -7  -3   16.59    4.54
   9   7   4    9.30    5.84
  -9  -7  -4    9.85    4.89
  -9  -7  -4   20.38    7.36
   9   7   5   96.95    8.83
  -9  -7  -5   66.13    7.55
  -9  -7  -5   77.85    6.76
   9   7   6   12.70    3.92
  -9  -7  -6   15.52    8.69
  -9  -7  -6   19.60    4.92
   9   7   7   -1.27    3.56
  -9  -7  -7   14.74    4.92
  -9  -7  -7   25.34    7.82
   9   8 -20    8.15    7.87
  -9  -8  20   11.37    8.26
   9   8 -19    8.09   11.71
  -9  -8  19    1.57    7.43
   9   8 -18   92.20   11.09
  -9  -8  18   43.03   18.96
   9   8 -17    2.37    6.16
  -9  -8  17   -0.09    6.45
   9   8 -16   24.56    6.88
  -9  -8  16    4.21    7.03
   9   8 -15   45.99    8.84
  -9  -8  15   71.87    8.94
   9   8 -14   -4.27    5.53
  -9  -8  14    0.84    5.77
   9   8 -13    9.63   10.05
  -9  -8  13   16.66   10.16
   9   8 -12   59.49    7.70
  -9  -8  12   45.00    7.76
   9   8 -11   -0.71    7.83
  -9  -8  11    0.35    8.41
   9   8 -10   58.31    7.83
  -9  -8  10   89.10    8.11
   9   8  -9   -1.84    4.56
  -9  -8   9    7.33    7.79
   9   8  -8  110.44    9.27
  -9  -8   8  137.03    9.38
   9   8  -7    0.58    4.63
  -9  -8   7    9.21    4.76
   9   8  -6   80.07   12.41
  -9  -8   6   83.68    7.59
   9   8  -5   20.31    4.72
   9   8  -5   15.51    5.42
  -9  -8   5   23.89    5.32
   9   8  -4   13.98    4.80
   9   8  -4    8.69    4.01
  -9  -8   4    6.46    4.66
   9   8  -3   17.74    4.41
  -9  -8   3   22.49    5.13
   9   8  -2   43.00    8.66
  -9  -8   2   56.91    6.23
   9   8  -1    3.70    3.32
  -9  -8   1   -2.35    4.03
   9   8   0   63.40    5.26
  -9  -8   0   47.08   10.36
   9   8   1   29.93    4.27
  -9  -8  -1   23.84    5.25
   9   8   2   -0.58    3.37
  -9  -8  -2    8.38    6.85
   9   8   3   60.74    8.63
  -9  -8  -3   45.77    6.29
  -9  -8  -3   62.48    5.86
   9   8   4   23.38    7.11
  -9  -8  -4   21.89    4.77
  -9  -8  -4   23.48    5.28
   9   8   5   20.76    4.47
  -9  -8  -5   23.01    8.85
  -9  -8  -5   31.03    5.09
   9   8   6    8.58    4.21
  -9  -8  -6   14.61    4.83
  -9  -8  -6   13.85    7.75
   9   9 -19    9.71    7.39
  -9  -9  19    6.81    7.75
   9   9 -18    3.17    6.41
  -9  -9  18    0.07    6.76
   9   9 -17   79.02   10.28
  -9  -9  17   74.91   17.73
   9   9 -16   -3.91    9.74
  -9  -9  16   -0.62    6.16
   9   9 -15   19.81    6.38
  -9  -9  15    2.53    6.79
   9   9 -14   29.59    6.86
  -9  -9  14   20.54    7.24
   9   9 -13    2.05    5.02
  -9  -9  13   -2.20    5.25
   9   9 -12   39.60    6.85
  -9  -9  12   31.90    6.96
   9   9 -11   -3.76    4.99
  -9  -9  11   -3.33    5.15
   9   9 -10   46.44    6.62
  -9  -9  10   40.23   11.61
   9   9  -9   -0.17    4.95
  -9  -9   9   10.89    5.04
   9   9  -8    3.62    8.32
  -9  -9   8   10.77    5.11
   9   9  -7   34.74    6.28
  -9  -9   7   46.78    6.21
   9   9  -6    8.83    4.50
   9   9  -6    8.86    4.76
  -9  -9   6    3.46    4.67
   9   9  -5   11.03    7.93
   9   9  -5    1.78    4.52
  -9  -9   5   14.74    4.65
   9   9  -4   80.70    7.21
   9   9  -4   90.06    6.63
  -9  -9   4   67.52    7.21
   9   9  -3    3.57    3.98
  -9  -9   3    3.20    4.15
   9   9  -2   31.03    5.01
  -9  -9   2   29.65    5.24
   9   9  -1   30.93    8.03
  -9  -9   1   27.77    8.53
   9   9   0   18.04    4.04
  -9  -9   0    3.19    4.45
   9   9   1    0.04    3.76
  -9  -9  -1   13.42    6.74
   9   9   2   38.89    5.14
  -9  -9  -2   33.90    5.04
  -9  -9  -2   32.03    5.48
   9   9   3    5.86    3.87
  -9  -9  -3    3.97    3.83
  -9  -9  -3    1.69    4.25
   9   9   4   15.31    7.42
  -9  -9  -4   13.99    7.47
  -9  -9  -4   17.13    7.88
   9  10 -18    7.00    6.81
  -9 -10  18    5.84    7.35
   9  10 -17    5.63   11.31
  -9 -10  17   15.50    7.51
   9  10 -16    5.24    6.08
  -9 -10  16    0.60   10.74
   9  10 -15   34.14    7.20
  -9 -10  15   20.31    7.63
   9  10 -14    7.84    8.99
  -9 -10  14   -0.07    5.62
   9  10 -13   11.76    6.18
  -9 -10  13   22.55    6.43
   9  10 -12    3.98    8.74
  -9 -10  12    5.99    5.62
   9  10 -11   38.15    6.58
  -9 -10  11   33.28   11.16
   9  10 -10   28.19    5.99
  -9 -10  10   17.27    6.16
   9  10  -9  154.07   10.51
  -9 -10   9  150.78   17.07
   9  10  -8    5.66    4.97
  -9 -10   8   13.59    5.18
   9  10  -7   14.40    5.24
   9  10  -7   13.63    8.52
  -9 -10   7   12.69    5.17
   9  10  -6   37.83   10.19
   9  10  -6   38.69    5.92
  -9 -10   6   32.17    5.94
   9  10  -5    9.21    4.80
   9  10  -5   10.17    4.76
  -9 -10   5    6.73    4.56
   9  10  -4    2.29    4.40
  -9 -10   4    5.17    6.98
   9  10  -3   34.13    9.28
  -9 -10   3   34.57    5.35
   9  10  -2    4.33    4.35
  -9 -10   2    9.87    6.90
   9  10  -1   14.02    4.57
  -9 -10   1    9.46    4.42
   9  10   0   19.57    7.31
  -9 -10   0    3.69    4.30
   9  10   1    5.38    4.52
  -9 -10  -1   12.03    4.31
  -9 -10  -1   16.48    4.07
   9  10   2   11.78    4.42
  -9 -10  -2    6.05    4.20
  -9 -10  -2    7.06    6.59
   9  10   3    9.67    4.60
  -9 -10  -3    6.60    7.23
  -9 -10  -3   12.48    6.63
   9  11 -16   42.28    8.41
  -9 -11  16   42.71    9.01
   9  11 -15   10.03    9.39
  -9 -11  15   -7.02   10.09
   9  11 -14   21.59    6.55
  -9 -11  14   28.71    7.25
   9  11 -13   18.41    6.17
  -9 -11  13   14.23    6.57
   9  11 -12    2.81    5.07
  -9 -11  12    5.45    5.44
   9  11 -11    7.03    8.59
  -9 -11  11    9.45    5.55
   9  11 -10   34.89    6.20
  -9 -11  10   20.64   10.67
   9  11  -9   10.34    5.27
  -9 -11   9   18.24    5.44
   9  11  -8   61.16    7.53
   9  11  -8   45.78    6.84
  -9 -11   8   56.63    6.78
   9  11  -7   10.81    5.27
   9  11  -7    4.23    4.69
  -9 -11   7    5.86    7.78
   9  11  -6    3.63    4.22
   9  11  -6  -11.73    4.67
  -9 -11   6    3.98    4.22
   9  11  -5   14.57    4.93
   9  11  -5    6.54    9.30
  -9 -11   5   25.65    8.07
   9  11  -4    1.36    4.46
  -9 -11   4   -0.60    3.91
   9  11  -3   15.42    5.49
  -9 -11   3   19.59    4.79
   9  11  -2   -2.33    7.52
  -9 -11   2   -3.36    4.00
   9  11  -1   48.51    6.28
  -9 -11   1   34.59    5.41
   9  11   0   -6.54    4.57
  -9 -11   0    2.56    6.41
   9  12 -14    5.77    5.63
  -9 -12  14    0.35   10.03
   9  12 -13  -12.37    5.13
  -9 -12  13    6.69    5.61
   9  12 -12   35.72    6.47
  -9 -12  12   20.16    7.03
   9  12 -11   -3.41    4.91
  -9 -12  11   18.58    8.73
   9  12 -10   24.73   10.22
  -9 -12  10   35.65    6.53
   9  12  -9   -1.39    5.89
   9  12  -9   12.76    5.05
  -9 -12   9   14.56    5.21
   9  12  -8   -2.30    5.27
   9  12  -8    0.01    4.43
  -9 -12   8    0.92    7.28
   9  12  -7    7.21    7.51
   9  12  -7    7.10    5.40
  -9 -12   7    1.65    4.49
   9  12  -6    6.77    4.77
   9  12  -6   10.89    5.53
  -9 -12   6   12.56    4.67
   9  12  -5   12.57    5.52
  -9 -12   5    6.95    4.44
   9  12  -4   -5.41    9.33
  -9 -12   4   12.90    4.36
   9  12  -3    9.99    5.44
  -9 -12   3    1.84    6.91
  10 -14  -5    4.60    3.27
 -10  14   5    0.83    5.72
 -10  14   4   18.34    6.58
 -10  14   3   24.03    7.02
 -10  14   2   -1.65    9.28
 -10  14   1  133.54   11.70
 -10  14   0    1.02    9.36
 -10  14  -1   89.52   10.19
 -10  14  -2   -5.42   10.45
 -10  14  -3   42.96    8.02
 -10  14  -3   45.51    8.65
 -10  14  -4   19.41   12.22
 -10  14  -4   14.36    6.64
 -10  14  -5    6.08    6.73
 -10  14  -5    1.20    5.92
 -10  14  -6   -2.66    6.01
  10 -13  -8   51.20    9.73
  10 -13  -8   72.17    6.21
 -10  13   8   45.28    8.90
  10 -13  -7    2.93    5.90
  10 -13  -7    0.77    5.78
 -10  13   7   -3.00    5.35
  10 -13  -6   66.79    5.42
 -10  13   6   70.61   14.36
  10 -13  -5    1.32    3.17
 -10  13   5   15.45    5.76
 -10  13   4   12.41   10.46
 -10  13   3   29.82    7.37
 -10  13   2   18.39    6.66
 -10  13   1    4.68    5.92
 -10  13   0   58.86    8.93
 -10  13  -1    2.29    5.87
 -10  13  -2   37.46    8.31
 -10  13  -3   38.59    8.59
 -10  13  -4   28.33    8.35
 -10  13  -4   31.87    7.62
 -10  13  -5   13.50    7.52
 -10  13  -5   11.79   11.09
 -10  13  -6    5.78   11.94
 -10  13  -6    4.59    6.36
 -10  13  -7   93.26   10.81
 -10  13  -7   40.49    9.53
 -10  13  -8   10.31    7.28
  10 -12 -10   23.02    7.99
  10 -12 -10   31.39    9.28
 -10  12  10   23.96    7.45
  10 -12  -9   -7.83    6.05
  10 -12  -9    0.68    3.99
 -10  12   9    1.79    5.70
  10 -12  -8   19.52    7.31
  10 -12  -8   14.00    4.37
 -10  12   8   12.27   10.83
  10 -12  -7   23.10    7.62
  10 -12  -7   19.32    4.35
 -10  12   7   25.92    6.93
  10 -12  -6   16.05    6.94
  10 -12  -6    8.76    5.95
 -10  12   6   21.18    6.50
  10 -12  -5    3.32    2.82
 -10  12   5    3.26    5.70
  10 -12  -4   50.58    3.82
 -10  12   4   72.74    8.41
 -10  12   3   -2.09    5.66
 -10  12   2   89.83    9.84
 -10  12   1   -7.27   10.12
 -10  12   0   51.70    8.57
 -10  12  -1    2.15    9.86
 -10  12  -2   61.25    9.22
 -10  12  -3   15.10   12.01
 -10  12  -4   10.59    7.61
 -10  12  -4   25.82    6.91
 -10  12  -5   19.51    7.75
 -10  12  -5   14.88    6.85
 -10  12  -6   37.70    9.13
 -10  12  -6   28.75   13.29
 -10  12  -7   -0.92    6.97
 -10  12  -7   -2.01    6.04
 -10  12  -8   63.95   10.94
 -10  12  -8   51.69   15.79
 -10  12  -9    4.89    7.80
 -10  12  -9    5.01    7.03
  10 -11 -12   11.43    4.81
  10 -11 -12  -13.66    6.82
 -10  11  12    7.73   10.47
  10 -11 -11   40.19    8.45
  10 -11 -11   22.64    9.78
 -10  11  11   30.48    7.77
  10 -11 -10    9.47   11.21
  10 -11 -10    6.43    4.39
 -10  11  10   -0.09   10.27
  10 -11  -9  109.54   11.23
  10 -11  -9   99.41    7.38
 -10  11   9  102.25   10.73
  10 -11  -8   -8.45    6.20
  10 -11  -8   -1.41    6.02
 -10  11   8    0.39    5.72
  10 -11  -7   40.54    8.01
  10 -11  -7   26.18    4.33
 -10  11   7   46.46    7.47
  10 -11  -6   10.68    5.99
  10 -11  -6    0.56    2.87
 -10  11   6   -3.77    5.50
  10 -11  -5   67.78    8.89
  10 -11  -5   59.35    6.45
 -10  11   5    5.39   13.71
  10 -11  -4    3.65    3.77
 -10  11   4    7.70    5.76
 -10  11   3  126.71   11.12
 -10  11   2   -1.82    5.57
 -10  11   1   50.99    8.28
 -10  11   0    3.34    5.76
 -10  11  -1   54.30    8.74
 -10  11  -2    5.81    6.39
 -10  11  -3   49.15   14.76
 -10  11  -4   35.70    8.68
 -10  11  -5   -9.71   11.73
 -10  11  -5   -7.08    6.37
 -10  11  -6   46.02    8.99
 -10  11  -6   26.40    8.00
 -10  11  -7   14.79    7.66
 -10  11  -7    3.97    6.60
 -10  11  -8  -12.12   12.71
 -10  11  -8   10.09    6.58
 -10  11  -9   34.33    9.55
 -10  11  -9   25.19    8.73
 -10  11 -10   37.82   10.08
 -10  11 -10   29.25    9.05
  10 -10 -13    0.26    4.78
  10 -10 -13    6.49    6.80
 -10  10  13    1.18    6.10
  10 -10 -12   26.93    9.50
  10 -10 -12   25.64   13.35
 -10  10  12   24.75    7.58
  10 -10 -11    0.43    4.23
  10 -10 -11    1.95    6.27
 -10  10  11   -5.94    5.70
  10 -10 -10   54.62    6.32
  10 -10 -10   67.66    9.56
 -10  10  10   60.03    8.96
  10 -10  -9   -8.93   10.61
  10 -10  -9    7.82    6.34
 -10  10   9    3.76    6.04
  10 -10  -8   70.94    9.37
  10 -10  -8   55.87    5.38
 -10  10   8   64.71    8.76
  10 -10  -7   10.61    6.23
  10 -10  -7    3.68    3.20
 -10  10   7    5.86    9.76
  10 -10  -6    4.99    6.55
  10 -10  -6    5.59    2.90
 -10  10   6   17.10    5.89
  10 -10  -5    8.34    6.51
  10 -10  -5    7.98    2.61
 -10  10   5    9.48    6.10
  10 -10  -4   48.68    3.12
 -10  10   4   86.37    8.40
  10 -10  -3    0.57    1.57
 -10  10   3   -2.86    5.20
 -10  10   2   24.87    6.79
 -10  10   1   54.72    8.56
 -10  10   0   -7.53    6.28
 -10  10  -1   45.67    8.34
 -10  10  -2   60.69    9.22
 -10  10  -3   51.41    9.11
 -10  10  -4   23.09    7.66
 -10  10  -5   73.49   17.30
 -10  10  -5   71.19    9.20
 -10  10  -6   -2.70    7.17
 -10  10  -6    9.02    5.94
 -10  10  -7   27.73    8.19
 -10  10  -7   50.56    9.45
 -10  10  -8   17.34   12.38
 -10  10  -8    0.88    6.54
 -10  10  -9   42.97   10.30
 -10  10  -9   36.29   15.31
 -10  10 -10    7.64    8.49
 -10  10 -10   17.14    7.84
  10  -9 -14   -7.97    6.89
  10  -9 -14   -1.12    8.23
 -10   9  14    4.36    6.29
  10  -9 -13   -3.19    7.83
  10  -9 -13    2.52    6.98
 -10   9  13    9.09    6.28
  10  -9 -12   12.03    5.13
  10  -9 -12   29.85    7.54
 -10   9  12   10.28    6.94
  10  -9 -11    0.69    4.16
  10  -9 -11    8.04   10.70
 -10   9  11   15.31   10.12
  10  -9 -10    3.38    3.88
  10  -9 -10   -2.60    6.24
 -10   9  10    4.55    5.95
  10  -9  -9   24.00    7.10
  10  -9  -9   16.45    7.60
 -10   9   9   34.41   11.83
  10  -9  -8   18.00    7.51
  10  -9  -8   25.17    4.13
 -10   9   8   33.49    7.09
  10  -9  -7    4.95    5.90
  10  -9  -7   -1.12    4.75
 -10   9   7    2.29    5.63
  10  -9  -6   92.32   16.61
  10  -9  -6   85.30    4.55
 -10   9   6   70.49    9.27
  10  -9  -5    7.00    5.70
  10  -9  -5   -1.64    2.17
 -10   9   5    6.95    5.46
  10  -9  -4   13.44    6.75
  10  -9  -4   14.29    2.19
 -10   9   4   14.07    6.54
  10  -9  -3   31.81    3.15
 -10   9   3   29.33    7.18
 -10   9   2   18.24   10.89
 -10   9   1   15.96    6.61
 -10   9   0   70.20   15.10
 -10   9  -1   13.69    6.71
 -10   9  -2   55.72    9.08
 -10   9  -3   30.48    7.94
 -10   9  -4   18.84    7.39
 -10   9  -5   -3.04    6.62
 -10   9  -6   38.05    8.70
 -10   9  -6   24.98    7.72
 -10   9  -7   60.61   10.12
 -10   9  -7   34.99   14.60
 -10   9  -8   23.01    7.74
 -10   9  -8   -1.28    6.67
 -10   9  -9   15.40    8.46
 -10   9  -9   10.63   12.23
 -10   9 -10   32.02   10.09
 -10   9 -10   37.45    8.82
 -10   9 -11   11.93   14.38
 -10   9 -11   11.87   13.21
  10  -8 -15   37.28    9.23
  10  -8 -15   34.79    6.81
 -10   8  15   37.08    8.59
  10  -8 -14    0.82    7.57
  10  -8 -14   22.78    5.49
 -10   8  14    7.52    7.19
  10  -8 -13   68.20   11.09
  10  -8 -13   81.39    7.57
 -10   8  13   79.93   16.42
  10  -8 -12   27.22    7.83
  10  -8 -12   22.00    5.28
 -10   8  12   11.91    7.30
  10  -8 -11   33.88    8.21
  10  -8 -11   23.50    5.20
 -10   8  11   41.52   12.58
  10  -8 -10    0.29    6.31
  10  -8 -10   11.61    6.52
 -10   8  10   -0.10    5.93
  10  -8  -9    2.17    3.27
  10  -8  -9   -3.76    5.98
 -10   8   9   -7.36    5.57
  10  -8  -8   10.75    3.43
  10  -8  -8   13.24    6.69
 -10   8   8    9.29    6.53
  10  -8  -7   71.15    9.14
  10  -8  -7   51.49    7.14
 -10   8   7   61.42    8.68
  10  -8  -6   45.32    7.47
  10  -8  -6   19.25    3.13
 -10   8   6   30.80    7.08
  10  -8  -5   53.39    8.43
  10  -8  -5   42.39    3.09
 -10   8   5   47.32    8.06
  10  -8  -4   29.83    6.78
  10  -8  -4   12.14    2.00
 -10   8   4   28.27   10.58
 -10   8   4    1.72   10.67
  10  -8  -3    0.89    5.69
  10  -8  -3   -1.12    1.98
 -10   8   3   -2.00    5.57
 -10   8   2   93.81   16.35
 -10   8   1    6.64    6.06
 -10   8   0   24.01   11.90
 -10   8  -1   22.26    7.29
 -10   8  -2   48.59   14.52
 -10   8  -3   -8.43    6.72
 -10   8  -4   16.29    7.47
 -10   8  -5    5.51    6.69
 -10   8  -6   53.81    9.99
 -10   8  -6   56.35    8.56
 -10   8  -7   -2.32    6.73
 -10   8  -7    9.31    9.96
 -10   8  -8   35.68    9.34
 -10   8  -8   31.86    7.88
 -10   8  -9   11.51    7.98
 -10   8  -9   12.59    6.94
 -10   8 -10   19.12    8.43
 -10   8 -10    4.78    7.65
 -10   8 -11   16.64   18.17
 -10   8 -11   57.15    9.87
  10  -7 -16   -8.29    5.62
  10  -7 -16   11.99   12.23
 -10   7  16   -3.22    6.78
  10  -7 -15    5.25    5.42
  10  -7 -15    9.93    7.57
 -10   7  15   21.07   11.85
  10  -7 -14    5.99    5.02
  10  -7 -14   14.29    7.14
 -10   7  14    3.88    6.80
  10  -7 -13    3.99    4.60
  10  -7 -13    1.89    6.71
 -10   7  13   12.13   10.40
  10  -7 -12   61.45    9.74
  10  -7 -12   44.64    6.41
 -10   7  12   60.64    8.94
  10  -7 -11    7.99    6.96
  10  -7 -11    9.15    4.28
 -10   7  11    6.24    6.47
  10  -7 -10   -0.79    5.93
  10  -7 -10    2.73    5.88
 -10   7  10   -2.13    5.70
  10  -7  -9   72.58    9.70
  10  -7  -9   55.96    5.50
 -10   7   9   82.75    8.97
  10  -7  -8   31.08    7.69
  10  -7  -8   25.61    4.01
 -10   7   8   29.48    7.31
  10  -7  -7   29.57    5.86
  10  -7  -7   13.40   13.13
 -10   7   7   41.91    7.35
  10  -7  -6   -0.55    2.28
  10  -7  -6    3.92    5.66
 -10   7   6    1.98    9.08
  10  -7  -5   19.37   10.92
  10  -7  -5   10.21    2.24
 -10   7   5    7.50    6.23
  10  -7  -4   -8.56    5.84
  10  -7  -4    1.24    1.53
 -10   7   4   -2.55    9.10
  10  -7  -3  135.52   11.72
  10  -7  -3  110.99    4.15
 -10   7   3  151.75   10.97
 -10   7   2   22.98    6.89
 -10   7   1   93.58   10.18
 -10   7   0   11.56    6.41
 -10   7  -1   99.70   10.60
 -10   7  -2   -4.36   10.28
 -10   7  -3   40.98    8.53
 -10   7  -4    8.56    6.82
 -10   7  -5   14.26    7.44
 -10   7  -6   20.57    7.42
 -10   7  -6    5.13    6.54
 -10   7  -7   30.72   14.84
 -10   7  -7   35.39    7.96
 -10   7  -8   12.31    7.36
 -10   7  -8    2.56    6.45
 -10   7  -9   26.49    8.74
 -10   7  -9   21.76    7.77
 -10   7 -10   20.73    9.53
 -10   7 -10   35.35    8.62
 -10   7 -11   -7.92   12.25
 -10   7 -11    1.32    6.62
 -10   7 -12   62.56   11.18
  10  -6 -17  -19.17    6.42
  10  -6 -17   11.55    7.98
 -10   6  17   -5.63   12.19
  10  -6 -16   29.39    7.46
  10  -6 -16   37.59    9.68
 -10   6  16   43.95    8.92
  10  -6 -15   41.64    7.36
  10  -6 -15   35.65   16.42
 -10   6  15   63.62   15.07
  10  -6 -14   67.07    7.50
  10  -6 -14   49.58   10.47
 -10   6  14   64.21    9.71
  10  -6 -13   -7.92    4.33
  10  -6 -13    4.32    6.38
 -10   6  13    9.41    5.89
  10  -6 -12    1.04    4.03
  10  -6 -12   -3.08    6.17
 -10   6  12   -1.90    5.88
  10  -6 -11    1.73    6.39
  10  -6 -11   -0.72    6.40
 -10   6  11    3.97    5.85
  10  -6 -10   24.13    7.37
  10  -6 -10   21.77    6.98
 -10   6  10    8.78    6.97
  10  -6  -9   49.57   15.39
  10  -6  -9   63.32    5.26
 -10   6   9   52.43    8.82
  10  -6  -8  141.02   11.92
  10  -6  -8  122.83    6.45
 -10   6   8   93.99   18.49
  10  -6  -7   57.54    8.69
  10  -6  -7   44.88    6.68
 -10   6   7   59.14    8.43
  10  -6  -6   25.80    7.81
  10  -6  -6   31.62    3.14
 -10   6   6   35.07   12.42
  10  -6  -5    3.34    2.00
  10  -6  -5    9.39    5.88
 -10   6   5    3.26    5.89
  10  -6  -4   55.31    8.33
  10  -6  -4   44.75    2.37
 -10   6   4   60.84    8.06
  10  -6  -3   25.07    6.20
  10  -6  -3    4.70    1.87
 -10   6   3    2.82    6.00
 -10   6   2   81.75    9.69
 -10   6   1    4.58    5.97
 -10   6   0   55.20    8.53
 -10   6  -1    0.37    5.67
 -10   6  -2  100.40   16.98
 -10   6  -3   18.73    7.29
 -10   6  -4   15.86    7.15
 -10   6  -5   43.35    8.89
 -10   6  -6   -4.87    7.05
 -10   6  -6  -11.10    6.07
 -10   6  -7    1.01    6.34
 -10   6  -7   20.01    7.28
 -10   6  -8   58.02   10.16
 -10   6  -8   55.11    8.95
 -10   6  -9    5.72    7.60
 -10   6  -9    7.75    6.56
 -10   6 -10   10.72    8.31
 -10   6 -10   14.71    7.36
 -10   6 -11   31.81   17.72
 -10   6 -11   51.90    9.69
 -10   6 -12   11.53    7.73
  10  -5 -18    9.05   10.57
  10  -5 -18   -8.18   12.94
  10  -5 -17   11.24   10.59
  10  -5 -17   -5.61    7.80
 -10   5  17   11.96    7.23
  10  -5 -16   29.52   10.68
  10  -5 -16    8.76    8.09
 -10   5  16    7.26    7.43
  10  -5 -15   27.67   12.18
  10  -5 -15   65.89   10.00
 -10   5  15   34.66    9.07
  10  -5 -14   57.78   12.80
  10  -5 -14   57.86   17.57
 -10   5  14   85.49    9.96
  10  -5 -13   19.10    9.18
  10  -5 -13   33.13    8.20
 -10   5  13   23.57    7.79
  10  -5 -12    5.04    7.46
  10  -5 -12   11.87    6.98
 -10   5  12   13.14    6.69
  10  -5 -11   -5.54    6.46
  10  -5 -11   -5.46   10.89
 -10   5  11   -3.86    6.04
  10  -5 -10    3.52    3.63
  10  -5 -10    8.26    6.37
 -10   5  10   -2.23    5.82
  10  -5  -9   19.45    4.06
  10  -5  -9   17.96    7.47
 -10   5   9   27.96    7.07
  10  -5  -8   10.26    3.40
  10  -5  -8    7.90    6.61
 -10   5   8    8.81   10.47
  10  -5  -7    2.97    4.67
  10  -5  -7    3.22    6.04
 -10   5   7    0.28    5.74
  10  -5  -6   26.00   10.42
  10  -5  -6    4.93    2.55
 -10   5   6   15.02   10.07
  10  -5  -5   -2.12    5.73
  10  -5  -5   -0.32    3.18
 -10   5   5    4.50    5.38
  10  -5  -4   13.73    9.54
  10  -5  -4   -1.21    2.61
 -10   5   4   10.73    5.62
  10  -5  -3   47.29    7.82
  10  -5  -3   34.48    1.51
 -10   5   3   46.89    7.37
  10  -5  -2   -2.71    5.75
 -10   5   2    6.66    5.68
 -10   5   1   14.14    6.52
 -10   5   0   24.70    7.19
 -10   5  -1   56.46    8.73
 -10   5  -2    0.56    9.48
 -10   5  -3   41.95    8.37
 -10   5  -4    0.14    5.79
 -10   5  -5   10.84    6.90
 -10   5  -6   19.47    7.69
 -10   5  -6   14.60    6.69
 -10   5  -7   34.25    8.23
 -10   5  -7   18.28    7.18
 -10   5  -8  -10.74    6.58
 -10   5  -8    6.32    5.74
 -10   5  -9   71.78   11.14
 -10   5  -9   68.96    9.70
 -10   5 -10    9.96    7.41
 -10   5 -10   -0.93    6.59
 -10   5 -11   39.20   15.54
 -10   5 -11   27.60    8.47
 -10   5 -12   15.27    8.03
  10  -4 -18   -1.59    6.72
  10  -4 -18   -6.76    7.59
 -10   4  18    1.98    7.19
  10  -4 -17    8.69    6.28
  10  -4 -17    7.22   12.21
 -10   4  17   -8.01    6.86
  10  -4 -16    2.55    6.48
  10  -4 -16   29.27    7.99
 -10   4  16    7.40    7.40
  10  -4 -15   -1.77    9.07
  10  -4 -15   -2.79    7.07
 -10   4  15   -4.74    6.40
  10  -4 -14   -3.42    8.54
  10  -4 -14    3.02    6.99
 -10   4  14   11.59    6.57
  10  -4 -13    5.90    7.79
  10  -4 -13    1.78    6.67
 -10   4  13  -15.83    6.33
  10  -4 -12    9.56    7.55
  10  -4 -12    6.33    6.78
 -10   4  12    8.07    6.53
  10  -4 -11   15.05    7.20
  10  -4 -11    9.69    6.88
 -10   4  11    9.47    6.69
  10  -4 -10  -12.71    6.54
  10  -4 -10   -3.55    3.66
 -10   4  10    2.80   10.19
  10  -4  -9    2.26    6.12
  10  -4  -9    3.17    3.28
 -10   4   9   -1.01    5.85
  10  -4  -8    4.48    9.79
  10  -4  -8    0.03    2.95
 -10   4   8    6.42    9.28
  10  -4  -7    8.61    6.90
  10  -4  -7   16.34    3.27
 -10   4   7   23.22    6.49
  10  -4  -6   69.91    6.36
  10  -4  -6   55.60   14.79
 -10   4   6   57.93   14.64
  10  -4  -5   71.22    3.64
  10  -4  -5   74.28    9.44
 -10   4   5   75.55    9.01
  10  -4  -4   13.13    9.59
  10  -4  -4    1.72    1.62
 -10   4   4    0.58    5.50
  10  -4  -3   -1.86    5.87
  10  -4  -3    4.11    1.20
 -10   4   3   11.90    5.63
  10  -4  -2   31.56    7.53
 -10   4   2   33.54    7.21
 -10   4   1    5.47    5.90
 -10   4   0   50.90    8.20
 -10   4  -1    6.78    6.20
 -10   4  -2   52.40   14.13
 -10   4  -3   53.26    8.76
 -10   4  -4   46.00    8.65
 -10   4  -5   -3.73    6.21
 -10   4  -6   22.80    7.36
 -10   4  -6    9.56    6.62
 -10   4  -7   -2.29    5.63
 -10   4  -7    0.10    6.42
 -10   4  -8   77.42   17.68
 -10   4  -8   73.61    9.65
 -10   4  -9   13.66    7.43
 -10   4  -9    5.18    6.60
 -10   4 -10   18.98    9.04
 -10   4 -10   34.13    7.93
 -10   4 -11    2.22    7.75
 -10   4 -11    6.86    6.89
  10  -3 -19    3.78    8.24
 -10   3  19    9.54    8.04
  10  -3 -18    3.00    7.60
 -10   3  18    2.86    7.36
  10  -3 -17   -0.47    7.06
  10  -3 -17   -9.16    7.25
 -10   3  17    4.82    6.69
  10  -3 -16   10.51    7.00
  10  -3 -16    5.97   12.74
 -10   3  16    4.35    7.09
  10  -3 -15   -2.59    6.91
  10  -3 -15   21.98    7.75
 -10   3  15   15.92    7.23
  10  -3 -14   10.66    6.11
  10  -3 -14   -5.93    6.93
 -10   3  14    9.73    6.72
  10  -3 -13   34.35    7.10
  10  -3 -13   51.26   14.75
 -10   3  13   47.29    8.69
  10  -3 -12   67.44    7.71
  10  -3 -12   70.43   10.03
 -10   3  12   83.46    9.92
  10  -3 -11   60.77    6.50
  10  -3 -11   53.67    9.25
 -10   3  11   53.54    9.02
  10  -3 -10   33.48   13.28
  10  -3 -10   26.83    5.13
 -10   3  10   37.99    7.67
  10  -3  -9   12.03    7.00
  10  -3  -9   15.20    4.05
 -10   3   9   13.70    6.66
  10  -3  -8   59.66   13.07
  10  -3  -8   35.36    4.40
 -10   3   8   22.13   12.89
  10  -3  -7    5.56    5.74
  10  -3  -7    0.57    2.86
 -10   3   7   -3.94    5.41
  10  -3  -6   20.33    6.26
  10  -3  -6    6.92    2.87
 -10   3   6    2.63   10.28
  10  -3  -5   34.77    7.44
  10  -3  -5   25.20    4.78
 -10   3   5   47.76    7.28
  10  -3  -4   -1.30    5.69
  10  -3  -4    2.03    1.79
 -10   3   4  -10.72    9.07
  10  -3  -3    1.21    1.33
  10  -3  -3    7.56    5.59
 -10   3   3    8.72    5.40
  10  -3  -2   13.39    0.77
  10  -3  -2   18.00    6.60
  10  -3  -2   16.07    0.94
 -10   3   2   22.89   10.23
 -10   3   1   58.89    8.31
 -10   3   0    3.86    9.41
 -10   3  -1   97.50   10.33
 -10   3  -2   15.92    6.80
 -10   3  -3  101.72   10.54
 -10   3  -4    7.59    6.39
 -10   3  -5   28.02   12.75
 -10   3  -6   10.35    6.25
 -10   3  -6   -5.68    5.44
 -10   3  -7   18.82    7.32
 -10   3  -7    9.28    6.28
 -10   3  -8    2.80   11.22
 -10   3  -8    4.85    5.94
 -10   3  -9   37.85    8.98
 -10   3  -9   36.83    8.05
 -10   3 -10   -1.55    7.03
 -10   3 -10    7.08    6.38
 -10   3 -11    4.20    7.25
 -10   3 -11   -3.22   10.81
  10  -2 -19  -14.44    7.77
 -10   2  19   11.26    7.39
  10  -2 -18   -4.28    7.64
 -10   2  18    7.39    7.31
  10  -2 -17   21.25    8.22
 -10   2  17    5.12    7.92
  10  -2 -16    7.51   12.19
 -10   2  16    2.95    7.02
  10  -2 -15   61.01   10.75
 -10   2  15   70.34   10.22
  10  -2 -14   23.56    9.17
 -10   2  14   46.15    8.61
  10  -2 -13   -1.09    6.50
 -10   2  13   -0.88    6.15
  10  -2 -12   26.45    8.26
 -10   2  12   33.89    7.94
  10  -2 -11   72.38    9.51
 -10   2  11   55.35    9.23
  10  -2 -10   -4.72   11.04
 -10   2  10  -12.71    6.53
  10  -2  -9   47.77    9.01
 -10   2   9   51.75    8.30
  10  -2  -8   82.66   10.05
 -10   2   8  108.97   16.51
  10  -2  -7  138.24   12.63
 -10   2   7  155.55   11.88
  10  -2  -6   17.69    6.57
 -10   2   6   -0.80   10.64
  10  -2  -5    6.50    6.24
 -10   2   5   11.97    6.01
  10  -2  -4    6.90    5.71
  10  -2  -4    2.04    2.29
 -10   2   4    7.57    9.01
  10  -2  -3    2.18    6.15
  10  -2  -3    7.11    1.81
 -10   2   3   -1.63    5.73
  10  -2  -2    6.11    1.58
  10  -2  -2   18.22    6.06
  10  -2  -2    7.02    1.19
 -10   2   2    2.65    9.62
 -10   2   1   -1.10    5.32
 -10   2   0   26.99   11.59
 -10   2  -1    4.59    5.80
 -10   2  -2   67.32    9.11
 -10   2  -3   28.71    7.40
 -10   2  -4   10.75    6.38
 -10   2  -5    0.20    9.56
 -10   2  -6   34.44    7.80
 -10   2  -6   22.25    6.94
 -10   2  -7   16.65    6.13
 -10   2  -7    4.38    7.09
 -10   2  -8    2.72    6.16
 -10   2  -8   -2.67    5.46
 -10   2  -9    3.42    6.66
 -10   2  -9    0.06    9.80
 -10   2 -10   25.99    8.00
 -10   2 -10    9.21    7.25
 -10   2 -11    9.46    7.87
 -10   2 -11   10.45   11.94
  10  -1 -19    1.35    7.96
 -10   1  19    0.82    7.44
  10  -1 -18   -4.58    7.90
 -10   1  18   -5.14    7.60
  10  -1 -17   -3.16    7.25
 -10   1  17    5.67    6.95
  10  -1 -16  117.72   13.06
 -10   1  16  104.55   12.31
  10  -1 -15  109.85   21.58
 -10   1  15  118.30   12.81
  10  -1 -14  194.14   16.98
 -10   1  14  212.81   16.14
  10  -1 -13  180.97   15.44
 -10   1  13  170.42   14.55
  10  -1 -12   42.08   14.53
 -10   1  12   42.59    8.72
  10  -1 -11    2.70    6.01
 -10   1  11   -3.84    5.72
  10  -1 -10   16.48    6.18
 -10   1  10   -3.75    6.26
  10  -1  -9    9.99    6.08
 -10   1   9   -5.19    5.68
  10  -1  -8   82.52   10.62
 -10   1   8  116.80   10.29
  10  -1  -7   28.00    7.33
 -10   1   7   26.47    6.95
  10  -1  -6  127.54   10.88
 -10   1   6  104.57   10.61
  10  -1  -5    7.60    5.69
 -10   1   5    0.46    5.51
  10  -1  -4   17.14    6.49
 -10   1   4   14.92    6.35
  10  -1  -3   -1.48    5.81
 -10   1   3   -9.85    5.66
  10  -1  -2   -6.99    5.43
  10  -1  -2   -2.29    1.85
 -10   1   2    5.12    5.38
  10  -1  -1    0.24    1.11
  10  -1  -1    0.72    1.20
 -10   1   1   -5.93    5.18
 -10   1   0   38.45    7.33
 -10   1  -1    2.88    5.51
 -10   1  -2    5.51    5.86
 -10   1  -3   54.19   13.92
 -10   1  -4   34.42    7.65
 -10   1  -5    2.50    5.94
 -10   1  -6    2.19   10.99
 -10   1  -6   10.93    5.85
 -10   1  -7   -2.82    6.04
 -10   1  -7    2.30    8.90
 -10   1  -8    0.56    6.61
 -10   1  -8    7.73    5.74
 -10   1  -9   24.50   13.87
 -10   1  -9   30.04   12.68
 -10   1 -10    7.92    7.36
 -10   1 -10   12.79    6.81
 -10   1 -11   14.32    7.37
  10   0 -19   63.58   19.76
 -10   0  19   64.32   11.69
  10   0 -18   -5.00    7.88
 -10   0  18   -3.82    7.51
  10   0 -17   17.08    8.73
 -10   0  17   25.88    8.37
  10   0 -16    2.49    7.71
 -10   0  16   14.29    7.15
  10   0 -15   45.21   18.75
 -10   0  15   92.67   11.16
  10   0 -14  121.38   13.69
 -10   0  14  153.95   13.05
  10   0 -13  207.48   16.49
 -10   0  13  192.53   15.11
  10   0 -12   30.22   15.68
 -10   0  12   72.71    9.48
  10   0 -11   26.80    7.47
 -10   0  11   23.76    7.29
  10   0 -10    0.71    6.12
 -10   0  10    7.33    5.93
  10   0  -9    7.94    6.04
 -10   0   9    0.30    5.91
  10   0  -8   20.58    6.87
 -10   0   8   12.73    6.61
  10   0  -7   35.99    7.32
 -10   0   7   22.61    6.97
  10   0  -6   42.48    7.93
 -10   0   6   48.80    7.70
  10   0  -5   10.44    5.75
 -10   0   5   -2.70    5.68
  10   0  -4    6.84    5.78
 -10   0   4    6.46    5.89
  10   0  -3   43.72    7.33
 -10   0   3   32.55    7.18
  10   0  -2   19.07    5.81
  10   0  -2    5.86    1.51
 -10   0   2   13.59    5.70
  10   0  -1    0.43    1.06
 -10   0   1    2.59    5.16
  10   0   0    5.67    1.48
 -10   0   0   13.30    5.58
 -10   0  -1   -0.37    8.55
 -10   0  -2   -2.45    5.41
 -10   0  -3   59.40    8.23
 -10   0  -4   46.04    8.29
 -10   0  -5   44.89    8.15
 -10   0  -6   -1.14    9.40
 -10   0  -6    0.33    5.02
 -10   0  -7    5.20    6.46
 -10   0  -7    8.21    5.72
 -10   0  -8   22.58    7.73
 -10   0  -8   21.74    6.70
 -10   0  -9   32.36    8.88
 -10   0  -9   42.30    8.15
 -10   0 -10   23.11   15.06
 -10   0 -10   42.47    8.21
  10   1 -19   -7.93    8.25
 -10  -1  19   -1.37    7.99
  10   1 -18   39.84   10.83
 -10  -1  18   50.34   10.14
  10   1 -17    9.55    8.18
 -10  -1  17   16.97   13.26
  10   1 -16    4.44    7.46
 -10  -1  16    9.96    7.14
  10   1 -15   30.94   14.32
 -10  -1  15   24.42   14.02
  10   1 -14   15.41    7.81
 -10  -1  14   21.64    7.79
  10   1 -13    5.77    6.39
 -10  -1  13   -9.62   10.17
  10   1 -12   19.25   12.87
 -10  -1  12   26.11    7.50
  10   1 -11    6.92    6.34
 -10  -1  11    3.86   10.39
  10   1 -10   28.60    7.97
 -10  -1  10   48.36    7.93
  10   1  -9   -1.63    5.79
 -10  -1   9   -3.20    9.56
  10   1  -8   37.78    8.14
 -10  -1   8   56.26    8.11
  10   1  -7   24.12    6.74
 -10  -1   7   17.05   11.42
  10   1  -6    0.96    5.72
 -10  -1   6    8.50    5.54
  10   1  -5   70.50    8.48
 -10  -1   5   56.02   13.86
  10   1  -4    8.59    6.19
 -10  -1   4   20.25    6.10
  10   1  -3   13.58    2.08
  10   1  -3    2.35    6.23
 -10  -1   3   16.25    9.71
  10   1  -2  101.05    9.67
  10   1  -2   90.59    3.25
 -10  -1   2  111.59    9.25
  10   1  -1   26.30    1.93
 -10  -1   1   29.04   10.71
  10   1   0    9.84    1.38
 -10  -1   0    9.29    5.74
  10   1   1    0.68    1.02
 -10  -1  -1   -3.93    5.13
 -10  -1  -2   40.79    7.32
 -10  -1  -3   38.45    7.43
 -10  -1  -4   12.99   10.69
 -10  -1  -5   17.92    6.83
 -10  -1  -5   22.51    6.23
 -10  -1  -6   14.82    6.74
 -10  -1  -6   17.58    6.02
 -10  -1  -7   -2.25   10.60
 -10  -1  -7   10.37    5.59
 -10  -1  -8   40.83    8.55
 -10  -1  -8   44.06    7.53
 -10  -1  -9   40.10    8.91
 -10  -1  -9   43.58    8.22
  10   2 -19   57.52   12.01
 -10  -2  19   60.27   19.08
  10   2 -18  -10.44   13.09
 -10  -2  18   -3.96    7.71
  10   2 -17    7.26    7.13
 -10  -2  17   -9.46   11.93
  10   2 -16    2.16    7.95
 -10  -2  16   24.08    7.69
  10   2 -15   10.33   12.28
 -10  -2  15    8.70   11.88
  10   2 -14   24.43    8.15
 -10  -2  14   26.92    8.02
  10   2 -13   17.89    7.11
 -10  -2  13    7.83    7.06
  10   2 -12   -0.35   10.82
 -10  -2  12    9.02    6.39
  10   2 -11    2.45    6.03
 -10  -2  11    4.09    5.83
  10   2 -10   -2.10    5.45
 -10  -2  10    2.32    5.53
  10   2  -9  188.89   14.35
 -10  -2   9  223.71   14.36
  10   2  -8   57.59    8.97
 -10  -2   8   79.05    8.92
  10   2  -7   92.96   10.15
 -10  -2   7   98.64   10.09
  10   2  -6    7.42    5.45
 -10  -2   6   -3.06    5.30
  10   2  -5    5.51    6.28
 -10  -2   5   24.19    6.07
  10   2  -4   21.32    6.31
 -10  -2   4   15.87    6.30
  10   2  -3   49.40    3.24
  10   2  -3   65.85    7.97
 -10  -2   3   47.75    7.66
  10   2  -2   -1.36    6.11
  10   2  -2   18.81    3.71
 -10  -2   2   28.25    6.11
  10   2  -1   59.20    2.79
 -10  -2   1   58.01    7.74
  10   2   0    0.14    2.60
 -10  -2   0   -4.83    5.08
  10   2   1   20.91    3.08
 -10  -2  -1   31.05    6.45
 -10  -2  -2   10.69    9.77
 -10  -2  -3   54.79    8.01
 -10  -2  -4   12.74    6.21
 -10  -2  -5    3.24    9.40
 -10  -2  -5   -4.51    5.07
 -10  -2  -6    8.44    6.05
 -10  -2  -6    5.44    9.37
 -10  -2  -7   -1.59    5.57
 -10  -2  -7    2.46    5.16
 -10  -2  -8    0.09    9.69
 -10  -2  -8    0.02    8.93
 -10  -2  -9   26.82    8.05
 -10  -2  -9   29.89    7.31
  10   3 -19   17.11    8.93
 -10  -3  19    7.84   14.81
  10   3 -18   19.86   16.14
 -10  -3  18   35.62    9.48
  10   3 -17    2.01    7.80
 -10  -3  17   15.78    7.72
  10   3 -16   62.33   10.58
 -10  -3  16   53.43    9.90
  10   3 -15    7.59   10.59
 -10  -3  15   -2.61    6.20
  10   3 -14  159.68   14.57
 -10  -3  14  173.38   14.30
  10   3 -13   -4.23    6.47
 -10  -3  13    9.32    6.36
  10   3 -12   32.40   13.12
 -10  -3  12   34.81    7.83
  10   3 -11   16.09    7.24
 -10  -3  11   33.30    7.14
  10   3 -10   33.84    8.12
 -10  -3  10   60.08    7.99
  10   3  -9    2.99    6.45
 -10  -3   9   18.40    6.26
  10   3  -8  184.53   13.93
 -10  -3   8  207.85   13.71
  10   3  -7  145.70   11.91
 -10  -3   7  157.48   11.79
  10   3  -6  164.59   12.43
 -10  -3   6  159.34   11.59
  10   3  -5    1.18    5.12
 -10  -3   5    0.08    5.08
  10   3  -4   -5.66    9.14
 -10  -3   4   13.25    8.90
  10   3  -3    3.46    5.69
  10   3  -3    6.83    4.18
 -10  -3   3   15.92    5.50
  10   3  -2   11.31    2.45
 -10  -3   2    3.99    9.25
 -10  -3   2    2.67    9.41
  10   3  -1    7.91    2.25
 -10  -3   1   25.19    5.54
  10   3   0   -0.43    3.23
 -10  -3   0   -6.33    4.99
  10   3   1   38.41    2.60
 -10  -3  -1   44.41    7.11
  10   3   2    8.47    3.23
 -10  -3  -2   14.59    5.73
 -10  -3  -3   -3.25    8.73
 -10  -3  -4    8.16    5.81
 -10  -3  -5   -7.09    4.89
 -10  -3  -5    2.04    5.49
 -10  -3  -6   20.64   10.85
 -10  -3  -6   17.10    5.92
 -10  -3  -7   23.10    7.82
 -10  -3  -7   44.67    6.87
 -10  -3  -8    5.17    6.03
 -10  -3  -8    2.29    5.45
  10   4 -19   16.42    9.27
 -10  -4  19   27.32    9.34
  10   4 -18   16.48   15.64
 -10  -4  18   34.01    9.11
  10   4 -17   26.41    9.13
 -10  -4  17   35.16    9.12
  10   4 -16    2.20    7.03
 -10  -4  16   -7.91    6.93
  10   4 -15  177.18   24.57
 -10  -4  15  186.71   15.21
  10   4 -14   46.53    9.43
 -10  -4  14   57.94   15.51
  10   4 -13  259.45   18.36
 -10  -4  13  288.04   18.61
  10   4 -12   22.30   11.99
 -10  -4  12   20.60   12.14
  10   4 -11   59.25    8.80
 -10  -4  11   65.83    8.86
  10   4 -10   31.77   12.54
 -10  -4  10   44.51   12.85
  10   4  -9   12.35    5.96
 -10  -4   9   -0.56    5.85
  10   4  -8   -3.94    8.85
 -10  -4   8    1.10    5.24
  10   4  -7   61.24    8.74
 -10  -4   7   81.04    8.58
  10   4  -6   12.78    9.97
 -10  -4   6   15.81    6.05
  10   4  -5   32.92    6.98
 -10  -4   5   38.80    7.02
  10   4  -4    0.98    2.73
  10   4  -4    6.37    5.22
 -10  -4   4    2.71    5.16
  10   4  -3   42.07    6.65
  10   4  -3   25.51    3.35
 -10  -4   3   35.01    6.52
  10   4  -2   11.29    2.86
 -10  -4   2   26.78    5.80
  10   4  -1    1.13    2.36
 -10  -4   1   12.43    5.02
  10   4   0   92.76    6.94
 -10  -4   0  111.42    9.21
  10   4   1   13.90    2.49
 -10  -4  -1   12.81    9.65
  10   4   2   43.02    3.07
 -10  -4  -2   41.77    7.07
 -10  -4  -3   31.31    6.80
 -10  -4  -4   18.98    9.73
 -10  -4  -4    9.02    5.52
 -10  -4  -5    2.06    5.52
 -10  -4  -5    6.17    5.02
 -10  -4  -6   -3.03    5.90
 -10  -4  -6   17.19    5.32
 -10  -4  -7    8.24    9.93
 -10  -4  -7    5.92    9.22
  10   5 -19    4.40    7.48
 -10  -5  19   -1.40    7.64
  10   5 -18   15.26   14.98
 -10  -5  18   34.56   14.96
  10   5 -17   43.23   10.23
 -10  -5  17   49.80   10.03
  10   5 -16    4.03    6.94
 -10  -5  16    4.49   11.77
  10   5 -15    5.49   12.08
 -10  -5  15   10.89    7.19
  10   5 -14  103.65   11.69
 -10  -5  14  112.20   11.87
  10   5 -13   17.92    7.41
 -10  -5  13   17.78    7.41
  10   5 -12  198.47   15.25
 -10  -5  12  231.88   15.69
  10   5 -11    2.52    5.52
 -10  -5  11   -1.98    5.49
  10   5 -10   21.70   11.29
 -10  -5  10   19.77    6.73
  10   5  -9   22.55    7.51
 -10  -5   9   48.10    7.33
  10   5  -8    2.72    9.08
 -10  -5   8    3.99    5.49
  10   5  -7   28.71    6.65
 -10  -5   7   25.89   11.17
  10   5  -6   -1.45    5.38
 -10  -5   6    9.48    5.35
  10   5  -5    3.50    5.24
 -10  -5   5    6.28    8.69
  10   5  -4   49.14    7.79
  10   5  -4   73.19    8.20
 -10  -5   4   71.34    7.98
  10   5  -3   14.64    5.89
  10   5  -3   10.60    5.18
 -10  -5   3   14.28    5.74
  10   5  -2  136.75    9.57
 -10  -5   2  147.94   10.80
  10   5  -1    1.34    4.17
 -10  -5   1   -1.62    4.82
  10   5   0    0.95    4.26
 -10  -5   0    3.79    4.87
  10   5   1   20.48    5.37
 -10  -5  -1   43.11    6.42
  10   5   2   -0.41    2.40
 -10  -5  -2   17.95    8.20
 -10  -5  -3    2.48    5.05
 -10  -5  -4   57.44    8.11
 -10  -5  -4   68.46    7.41
 -10  -5  -5   26.18   11.10
 -10  -5  -5   33.77   10.35
 -10  -5  -6   12.33    6.15
 -10  -5  -6   15.87    5.58
  10   6 -18   -7.88    7.19
 -10  -6  18    3.62    7.41
  10   6 -17   14.58    7.98
 -10  -6  17   16.71    8.17
  10   6 -16   96.48   12.51
 -10  -6  16  116.54   12.76
  10   6 -15  -10.07   10.99
 -10  -6  15   -1.29    6.54
  10   6 -14   34.78    8.28
 -10  -6  14   27.45    8.03
  10   6 -13   90.97    9.75
 -10  -6  13   18.29   16.09
  10   6 -12    1.39    6.02
 -10  -6  12    6.91    6.09
  10   6 -11   88.51    9.64
 -10  -6  11   81.92    9.53
  10   6 -10   -0.14    5.88
 -10  -6  10   12.48    5.79
  10   6  -9   79.43    9.53
 -10  -6   9   90.30    9.21
  10   6  -8    7.59    5.88
 -10  -6   8   12.78    5.75
  10   6  -7   90.82    8.79
 -10  -6   7   66.77    8.63
  10   6  -6    6.64    5.34
 -10  -6   6    2.02    5.22
  10   6  -5   10.38    3.86
  10   6  -5   28.20    9.61
 -10  -6   5   12.05    5.68
  10   6  -4   -3.00    5.12
  10   6  -4   -1.57    3.20
 -10  -6   4   -1.80    8.28
  10   6  -3  164.20    7.50
 -10  -6   3  159.76   11.42
  10   6  -2   71.46    5.08
 -10  -6   2   62.38   13.08
  10   6  -1  192.09    8.18
 -10  -6   1  229.74   12.89
  10   6   0    8.69    5.67
 -10  -6   0   26.34    5.87
  10   6   1   21.97    5.89
 -10  -6  -1   26.47    5.89
  10   6   2    7.71    4.96
 -10  -6  -2    7.09    5.29
  10   6   3   23.18    5.77
 -10  -6  -3   27.04    5.84
 -10  -6  -3   17.75   10.14
 -10  -6  -4    9.02    5.27
 -10  -6  -4    1.92    4.89
 -10  -6  -5   45.07    7.13
 -10  -6  -5   34.79    6.41
  10   7 -17    3.71    6.85
 -10  -7  17   -2.74   11.86
  10   7 -16   24.43    8.33
 -10  -7  16   27.52    8.55
  10   7 -15   38.81    8.68
 -10  -7  15   35.67    8.92
  10   7 -14    9.29    6.64
 -10  -7  14    9.31    6.78
  10   7 -13   12.08   11.19
 -10  -7  13   13.90    6.84
  10   7 -12   40.68    7.53
 -10  -7  12   26.02    7.61
  10   7 -11    1.14    5.37
 -10  -7  11    2.11    5.65
  10   7 -10  125.89   11.23
 -10  -7  10  143.22   17.90
  10   7  -9   35.45   12.38
 -10  -7   9   40.69    7.60
  10   7  -8  263.39   15.35
 -10  -7   8  257.34   15.32
  10   7  -7   13.60   11.35
 -10  -7   7   32.12    6.75
  10   7  -6  125.60    7.43
  10   7  -6  100.46   10.04
 -10  -7   6   94.71   10.03
  10   7  -5    5.49    6.31
  10   7  -5    7.55    5.25
 -10  -7   5   -0.73    5.14
  10   7  -4   34.22    6.24
  10   7  -4   22.36    4.29
 -10  -7   4   20.75    6.19
  10   7  -3    0.21    3.24
 -10  -7   3   -1.72    7.67
  10   7  -2  115.23    6.73
 -10  -7   2  111.36    9.42
  10   7  -1   34.55    4.46
 -10  -7   1   32.72   10.60
  10   7   0   99.34    6.10
 -10  -7   0   94.47    8.86
  10   7   1    5.43    3.19
 -10  -7  -1   -0.89    5.00
  10   7   2   19.87    6.20
 -10  -7  -2   14.43    9.37
  10   7   3    2.45    5.55
 -10  -7  -3   13.74    5.16
 -10  -7  -3    7.33    4.81
  10   8 -16   -6.85   10.69
 -10  -8  16    4.27   11.16
  10   8 -15   66.96   10.23
 -10  -8  15   73.41   10.32
  10   8 -14   -2.88    5.91
 -10  -8  14    6.84   10.09
  10   8 -13   44.74    8.10
 -10  -8  13   39.01    8.45
  10   8 -12   -5.67    5.62
 -10  -8  12    8.45    5.58
  10   8 -11   33.94   11.95
 -10  -8  11   26.75    7.27
  10   8 -10    0.55    5.55
 -10  -8  10    5.14    5.59
  10   8  -9   39.72    7.75
 -10  -8   9   56.72   12.43
  10   8  -8    9.65    5.69
 -10  -8   8    9.78    5.74
  10   8  -7  183.15   13.00
 -10  -8   7  203.00   12.68
  10   8  -6   11.20    4.64
  10   8  -6    5.99    9.46
 -10  -8   6   10.89    5.56
  10   8  -5   50.38    7.34
  10   8  -5   40.77    5.70
 -10  -8   5   50.51    7.18
  10   8  -4    4.86    4.10
 -10  -8   4   14.76    5.19
  10   8  -3    9.99    6.85
 -10  -8   3   11.39    5.28
  10   8  -2    3.69    3.61
 -10  -8   2   -4.17    8.01
  10   8  -1   16.77    4.34
 -10  -8   1   26.81    5.69
  10   8   0    4.12    3.69
 -10  -8   0    6.21    4.84
  10   8   1    8.48    4.00
 -10  -8  -1   28.48    5.42
  10   8   2   10.86    6.49
 -10  -8  -2   23.16    4.99
 -10  -8  -2    0.76    5.44
  10   9 -15    6.18    6.28
 -10  -9  15    1.29    6.66
  10   9 -14   75.08   16.05
 -10  -9  14   71.60   10.36
  10   9 -13   -2.80    5.57
 -10  -9  13    7.51    9.77
  10   9 -12   41.36    7.67
 -10  -9  12   34.57    7.90
  10   9 -11   18.39    6.64
 -10  -9  11   18.45    6.85
  10   9 -10    1.83    5.69
 -10  -9  10    9.40    5.75
  10   9  -9   42.21    7.19
 -10  -9   9   36.59    7.35
  10   9  -8    4.89    8.93
 -10  -9   8    3.79    8.88
  10   9  -7   11.08    5.03
  10   9  -7    6.82    5.75
 -10  -9   7   14.10    5.58
  10   9  -6   82.10    8.03
  10   9  -6   68.30    7.01
 -10  -9   6   49.80    7.83
  10   9  -5    0.99    4.92
  10   9  -5    2.27    6.72
 -10  -9   5    1.92    4.83
  10   9  -4    6.29    4.27
 -10  -9   4    5.03    5.09
  10   9  -3   16.28    4.73
 -10  -9   3   20.28    8.97
  10   9  -2   10.57    7.58
 -10  -9   2   17.33    5.36
  10   9  -1    7.09    4.09
 -10  -9   1    4.27    4.89
  10  10 -12   -3.79    5.98
 -10 -10  12   -9.22   10.15
  10  10 -11   31.72    6.85
 -10 -10  11   10.68    6.54
  10  10 -10   23.05    6.64
 -10 -10  10   26.14    6.68
  10  10  -9    2.68    5.20
 -10 -10   9   -2.13    8.42
  10  10  -8   43.31    6.68
  10  10  -8   38.63    7.22
 -10 -10   8   30.49    7.06
  10  10  -7   39.29    9.73
  10  10  -7   -3.47    9.33
 -10 -10   7   14.54    5.82
  10  10  -6   32.07    6.33
  10  10  -6   12.08    5.70
 -10 -10   6   33.01    6.03
  10  10  -5   20.36    5.21
 -10 -10   5    6.84    5.43
  10  10  -4   22.93    8.26
 -10 -10   4   -0.04    8.68
 -11  12   4   13.80    7.09
 -11  12   3  130.96   12.81
 -11  12   2   -3.62    6.47
 -11  12   1   71.49   10.38
 -11  12   0   13.07    7.37
 -11  12  -1  111.67   12.36
 -11  12  -2   -1.54   11.30
  11 -11  -7   13.61    7.50
 -11  11   7    3.26    6.95
  11 -11  -6   16.42   10.17
 -11  11   6  103.97    9.83
 -11  11   5    2.50    6.35
 -11  11   4  150.85   13.81
 -11  11   3   -2.32    6.50
 -11  11   2   83.22   10.68
 -11  11   1   -1.33    6.36
 -11  11   0   70.55   10.62
 -11  11  -1    4.25    6.93
 -11  11  -2    7.61    7.38
 -11  11  -3    3.47    7.23
 -11  11  -4   16.84   14.99
 -11  11  -4   28.24    8.20
  11 -10  -9  163.01   14.74
  11 -10  -9  136.20    8.08
 -11  10   9  144.45   21.82
  11 -10  -8    1.87   11.29
  11 -10  -8    0.50    5.07
 -11  10   8   -1.68    6.18
  11 -10  -7   18.92    7.69
 -11  10   7   -1.43   12.11
  11 -10  -6   40.49    9.14
 -11  10   6   31.98    8.49
 -11  10   5   74.60   16.96
 -11  10   4   21.09    7.86
 -11  10   3   38.99   14.30
 -11  10   2    0.85    6.14
 -11  10   1   41.08   14.80
 -11  10   0    4.46    6.98
 -11  10  -1   68.41   10.50
 -11  10  -2   24.07    8.26
 -11  10  -3    8.60    7.68
 -11  10  -4   99.54   21.32
 -11  10  -5   27.24    9.05
 -11  10  -5   21.14    8.45
 -11  10  -6    8.72    8.42
 -11  10  -6   10.71    7.48
  11  -9 -11   22.26    8.31
  11  -9 -11   13.55    8.66
 -11   9  11   17.66   13.20
  11  -9 -10   71.64   19.94
  11  -9 -10   90.61    6.87
 -11   9  10   82.46   11.35
  11  -9  -9   -7.34    6.84
  11  -9  -9   -0.17    3.45
 -11   9   9   -7.99   10.91
  11  -9  -8   82.62   11.41
  11  -9  -8   74.12    5.05
 -11   9   8   74.97   10.57
  11  -9  -7   37.84    9.54
 -11   9   7   47.77    8.98
  11  -9  -6   23.34    8.70
 -11   9   6   32.01    8.08
  11  -9  -5   55.44   10.38
 -11   9   5   68.61    9.88
 -11   9   4   21.39    7.86
 -11   9   3   53.28    9.25
 -11   9   2   29.25    8.32
 -11   9   1   18.39   12.98
 -11   9   0  103.13   12.00
 -11   9  -1    4.50   11.64
 -11   9  -2  101.50   12.46
 -11   9  -3   18.51    8.43
 -11   9  -4   40.25   10.11
 -11   9  -5   63.51   11.01
 -11   9  -5   49.07    9.87
 -11   9  -6   58.84   12.15
 -11   9  -6   78.08   10.65
 -11   9  -7    3.38    7.02
  11  -8 -12  106.25   13.80
  11  -8 -12   80.95   14.22
 -11   8  12  164.71   13.07
  11  -8 -11    0.93    3.92
  11  -8 -11   -0.75    6.94
 -11   8  11   -3.04    6.55
  11  -8 -10   31.78    5.24
  11  -8 -10   58.78    9.69
 -11   8  10   45.47    9.22
  11  -8  -9   55.78    5.21
  11  -8  -9   53.47   10.50
 -11   8   9   63.75    9.71
  11  -8  -8    5.56    7.22
  11  -8  -8    5.41    3.11
 -11   8   8    7.73    6.71
  11  -8  -7  121.18   13.60
  11  -8  -7  125.22    8.55
 -11   8   7  123.50   12.54
  11  -8  -6    3.53    6.86
 -11   8   6    3.70    6.67
  11  -8  -5   99.42   12.03
 -11   8   5   89.30   11.27
 -11   8   4   19.57    7.84
 -11   8   3  137.41   12.75
 -11   8   2   11.03    7.10
 -11   8   1   91.40   10.99
 -11   8   0    1.14    6.63
 -11   8  -1  224.65   27.42
 -11   8  -2   32.80    9.02
 -11   8  -3  211.79   17.99
 -11   8  -4    8.27    7.77
 -11   8  -5  111.74   13.06
 -11   8  -5   87.03   11.37
 -11   8  -6   28.90    9.75
 -11   8  -6   35.74    8.77
 -11   8  -7  125.08   14.54
 -11   8  -7   81.65   20.71
  11  -7 -13    5.44    8.67
  11  -7 -13   21.14    8.79
 -11   7  13   12.60    7.70
  11  -7 -12   16.82    8.32
  11  -7 -12   17.35    8.47
 -11   7  12    8.92    7.79
  11  -7 -11   46.95    9.93
  11  -7 -11   41.57    5.82
 -11   7  11   40.43    9.37
  11  -7 -10   55.20   10.15
  11  -7 -10   50.15    5.56
 -11   7  10   49.49    9.51
  11  -7  -9    2.22   11.90
  11  -7  -9    5.48    5.73
 -11   7   9    1.40    6.71
  11  -7  -8  153.65    6.77
  11  -7  -8  143.84   15.05
 -11   7   8  152.33   13.94
  11  -7  -7    1.61    4.10
  11  -7  -7   -4.77    6.96
 -11   7   7    9.17    6.59
  11  -7  -6  271.64   29.83
 -11   7   6  244.36   17.73
  11  -7  -5    3.10    7.53
 -11   7   5   14.61    7.25
  11  -7  -4  322.95   21.16
 -11   7   4  299.26   20.72
 -11   7   3   -1.88    6.39
 -11   7   2  183.95   15.05
 -11   7   1    4.49    6.90
 -11   7   0  118.91   13.08
 -11   7  -1   13.41   12.99
 -11   7  -2  234.41   18.12
 -11   7  -3  -13.74    8.02
 -11   7  -4  165.98   15.50
 -11   7  -5   14.95    8.65
 -11   7  -6  110.50   13.55
 -11   7  -6   99.22   11.97
 -11   7  -7   -6.38    7.45
 -11   7  -7   12.65   10.97
 -11   7  -8   84.18   11.75
  11  -6 -14  -11.78   13.36
  11  -6 -14   -9.45    8.48
 -11   6  14   -0.84    7.35
  11  -6 -13  171.88   16.32
  11  -6 -13  140.67   10.26
 -11   6  13  181.24   14.80
  11  -6 -12   -3.79    7.39
  11  -6 -12    2.98    4.26
 -11   6  12    1.82    6.77
  11  -6 -11   96.82   21.91
  11  -6 -11  110.38    7.97
 -11   6  11  124.33   12.85
  11  -6 -10   10.90    7.72
  11  -6 -10    7.47    4.02
 -11   6  10    5.41    6.96
  11  -6  -9  131.81   13.80
  11  -6  -9  129.87   11.60
 -11   6   9  146.14   13.08
  11  -6  -8    7.00   12.87
  11  -6  -8   10.57    3.34
 -11   6   8   16.37    7.33
  11  -6  -7  115.09   13.94
  11  -6  -7  135.69    8.79
 -11   6   7  141.86   12.92
  11  -6  -6   14.63    8.42
 -11   6   6   29.63    7.86
  11  -6  -5  214.05   17.02
 -11   6   5  202.63   16.29
  11  -6  -4    4.79    6.88
 -11   6   4  -10.75    6.76
 -11   6   3  294.24   19.28
 -11   6   2    1.76    6.51
 -11   6   1  121.41   12.66
 -11   6   0   10.83    7.35
 -11   6  -1   93.49   18.92
 -11   6  -2   29.91    8.74
 -11   6  -3  162.79   15.13
 -11   6  -4   64.06   10.79
 -11   6  -5   49.00   10.41
 -11   6  -6   44.76    9.71
 -11   6  -6   23.45    8.53
 -11   6  -7  129.08   14.14
 -11   6  -7   99.31   20.55
 -11   6  -8   -7.27    8.13
 -11   6  -8   13.10    7.10
  11  -5 -15   -8.72    5.51
  11  -5 -15   11.86    7.82
 -11   5  15   19.25    7.42
  11  -5 -14   92.35    8.62
  11  -5 -14  100.09   13.09
 -11   5  14   91.22   12.47
  11  -5 -13   20.69    5.30
  11  -5 -13    0.71    8.69
 -11   5  13   18.54    8.05
  11  -5 -12   59.29    6.54
  11  -5 -12   51.40   10.97
 -11   5  12   62.56   10.31
  11  -5 -11   14.10    4.62
  11  -5 -11   15.84    8.29
 -11   5  11   16.08    7.65
  11  -5 -10  107.91    7.41
  11  -5 -10  103.27   13.23
 -11   5  10  126.92   19.89
  11  -5  -9    4.56    6.02
  11  -5  -9    2.59    7.05
 -11   5   9    0.75    6.56
  11  -5  -8  103.50   20.74
  11  -5  -8  115.75    6.13
 -11   5   8  116.97   20.08
  11  -5  -7  123.08   12.97
  11  -5  -7  112.11    5.49
 -11   5   7  130.57   12.38
  11  -5  -6   35.07    8.67
  11  -5  -6   28.97    2.83
 -11   5   6   35.26    8.11
  11  -5  -5  139.81   13.44
 -11   5   5  116.77   12.55
  11  -5  -4   66.62   10.50
 -11   5   4   72.27   10.34
  11  -5  -3    3.93    7.39
 -11   5   3   21.47    7.15
 -11   5   2   89.46   11.44
 -11   5   1   53.90    9.58
 -11   5   0   36.65    8.89
 -11   5  -1    6.19   11.66
 -11   5  -2  155.65   14.45
 -11   5  -3   33.45    9.13
 -11   5  -4   39.94    9.54
 -11   5  -5   98.50   12.62
 -11   5  -6   24.74   10.32
 -11   5  -6   59.84    8.94
 -11   5  -7    1.84    7.62
 -11   5  -7   11.81   11.40
 -11   5  -8  145.07   16.39
 -11   5  -8  168.30   14.54
  11  -4 -15   59.40    8.36
  11  -4 -15   65.37   11.48
 -11   4  15   56.21   10.76
  11  -4 -14   37.54    6.88
  11  -4 -14   37.71   10.08
 -11   4  14   47.86   15.89
  11  -4 -13    7.61    4.88
  11  -4 -13    9.35   13.31
 -11   4  13   16.61    7.57
  11  -4 -12  187.58   16.55
  11  -4 -12  159.36    9.85
 -11   4  12  186.65   24.56
  11  -4 -11    4.14    7.45
  11  -4 -11    1.33    4.01
 -11   4  11    9.09    6.85
  11  -4 -10   55.51   17.64
  11  -4 -10   59.79    5.75
 -11   4  10   63.76   16.47
  11  -4  -9   96.43   11.87
  11  -4  -9   96.57   10.09
 -11   4   9   86.74   11.39
  11  -4  -8   40.06    4.24
  11  -4  -8   34.32    9.06
 -11   4   8   41.09   14.41
  11  -4  -7   68.13    4.73
  11  -4  -7   72.70   11.07
 -11   4   7   97.08   10.06
  11  -4  -6  156.39   13.60
  11  -4  -6  126.00    8.14
 -11   4   6  174.79   13.15
  11  -4  -5   12.60   13.06
 -11   4   5   14.95    7.13
  11  -4  -4   98.63   12.88
 -11   4   4  136.69   12.26
  11  -4  -3   26.85    8.56
 -11   4   3   35.20    7.94
 -11   4   2   80.69   10.49
 -11   4   1   75.08   10.35
 -11   4   0   21.24    7.74
 -11   4  -1  157.32   23.23
 -11   4  -2   -1.89    6.76
 -11   4  -3  185.54   15.82
 -11   4  -4   22.69    8.35
 -11   4  -5   34.40    9.51
 -11   4  -6   72.39   11.09
 -11   4  -6   61.26   10.06
 -11   4  -7   86.92   20.01
 -11   4  -7   71.62   18.20
 -11   4  -8   15.04    8.86
 -11   4  -8   20.28    7.83
  11  -3 -16   55.11   18.30
 -11   3  16   38.05   17.53
  11  -3 -15   14.38    8.29
 -11   3  15    5.80    7.89
  11  -3 -14   55.19    8.78
  11  -3 -14   50.42   11.10
 -11   3  14   64.52   17.67
  11  -3 -13   80.47    8.30
  11  -3 -13   68.78   11.71
 -11   3  13   59.52   11.26
  11  -3 -12   -7.01    7.25
  11  -3 -12    4.32    4.62
 -11   3  12    4.50   11.21
  11  -3 -11  179.49   15.92
  11  -3 -11  167.80    9.87
 -11   3  11  180.52   15.36
  11  -3 -10    1.60    7.01
  11  -3 -10    1.73    3.84
 -11   3  10    2.11    6.71
  11  -3  -9   54.53   11.06
  11  -3  -9  105.76    9.98
 -11   3   9   57.80   10.29
  11  -3  -8  147.63   14.07
  11  -3  -8  149.79   11.19
 -11   3   8  128.29   13.50
  11  -3  -7    0.42    7.41
  11  -3  -7    6.65    3.07
 -11   3   7   12.56    6.64
  11  -3  -6  160.76   13.58
  11  -3  -6  133.88    5.67
 -11   3   6  117.12   12.86
  11  -3  -5   23.76   13.34
 -11   3   5   20.15    7.62
  11  -3  -4  123.70   13.08
 -11   3   4  115.33   12.39
  11  -3  -3   30.97    8.07
 -11   3   3   18.32    7.77
 -11   3   2   50.26    9.09
 -11   3   1   63.34    9.48
 -11   3   0   95.43   11.17
 -11   3  -1    5.36   11.49
 -11   3  -2  314.64   20.59
 -11   3  -3   14.24    7.74
 -11   3  -4  223.38   26.83
 -11   3  -5   28.76    8.74
 -11   3  -6   65.12   10.02
 -11   3  -6   31.51    8.96
 -11   3  -7   25.68   13.57
 -11   3  -7    4.08   12.08
 -11   3  -8   99.86   11.60
  11  -2 -16    5.22    8.60
 -11   2  16   23.60   13.78
  11  -2 -15  151.73   16.14
 -11   2  15  147.21   15.22
  11  -2 -14   16.06    8.76
 -11   2  14   20.98   13.96
  11  -2 -13  197.73   16.98
 -11   2  13  175.69   16.34
  11  -2 -12   -3.27   13.00
 -11   2  12   11.70    7.61
  11  -2 -11   52.31   10.32
 -11   2  11   54.34    9.82
  11  -2 -10   40.33   10.00
 -11   2  10   54.77    9.52
  11  -2  -9   96.35   12.22
 -11   2   9  106.26   11.49
  11  -2  -8   14.23    7.08
  11  -2  -8   -0.19    3.91
 -11   2   8   19.12    6.90
  11  -2  -7  150.62   19.56
  11  -2  -7   81.40    6.33
 -11   2   7  161.39   11.73
  11  -2  -6    6.05    6.52
  11  -2  -6    2.87    2.71
 -11   2   6  -17.22    6.18
  11  -2  -5  316.45   31.50
  11  -2  -5  305.28    9.32
 -11   2   5  343.33   20.02
  11  -2  -4   26.16    8.46
 -11   2   4   24.02    8.01
  11  -2  -3  286.71   20.02
 -11   2   3  311.71   18.62
 -11   2   2    6.59    6.52
 -11   2   1   42.96   14.51
 -11   2   0   88.88   10.89
 -11   2  -1  108.29   11.69
 -11   2  -2   12.07    7.45
 -11   2  -3  296.08   19.88
 -11   2  -4    6.60    7.08
 -11   2  -5  113.83   12.62
 -11   2  -6   12.07    7.95
 -11   2  -6   16.41    7.09
 -11   2  -7   51.62   10.00
 -11   2  -7   40.81   14.87
  11  -1 -16   42.97   11.51
 -11   1  16   71.81   17.84
  11  -1 -15   12.36   13.54
 -11   1  15    8.25    8.16
  11  -1 -14  252.69   20.94
 -11   1  14  280.60   20.22
  11  -1 -13   17.13    9.73
 -11   1  13   43.95    9.04
  11  -1 -12  214.67   29.92
 -11   1  12  245.02   18.44
  11  -1 -11   -8.67    7.12
 -11   1  11    3.22    6.51
  11  -1 -10  145.29   14.06
 -11   1  10  139.63   13.63
  11  -1  -9   12.75    7.74
 -11   1   9   18.21    7.43
  11  -1  -8   78.45   11.57
 -11   1   8  104.42   11.13
  11  -1  -7   42.50   16.15
 -11   1   7   67.36    9.41
  11  -1  -6   31.45    8.32
 -11   1   6   26.50    7.84
  11  -1  -5   13.84   13.12
 -11   1   5   24.52    7.69
  11  -1  -4  262.82   18.71
 -11   1   4  266.72   17.88
  11  -1  -3   -8.92    6.83
 -11   1   3    4.29   10.73
 -11   1   2  146.15   12.76
 -11   1   1   66.71    9.72
 -11   1   0   26.71    7.52
 -11   1  -1  101.21   11.05
 -11   1  -2   94.60   18.13
 -11   1  -3    9.48    6.96
 -11   1  -4  106.12   12.39
 -11   1  -5   37.45   13.12
 -11   1  -5   13.69    7.13
 -11   1  -6   41.77    9.71
 -11   1  -6   54.43    8.73
 -11   1  -7    9.79    7.96
 -11   1  -7   21.06    7.19
  11   0 -16   23.99    9.02
 -11   0  16    7.33    8.50
  11   0 -15   38.53   19.07
 -11   0  15   73.82   11.23
  11   0 -14    5.92    8.29
 -11   0  14   20.65    8.03
  11   0 -13  105.16   12.72
 -11   0  13   90.46   12.00
  11   0 -12   -1.03   12.08
 -11   0  12    7.92    7.09
  11   0 -11  130.41   12.98
 -11   0  11   95.64   12.20
  11   0 -10    1.28    6.73
 -11   0  10   -5.78    6.57
  11   0  -9  116.52   13.47
 -11   0   9  144.05   12.81
  11   0  -8   31.38    8.29
 -11   0   8   26.91    7.87
  11   0  -7    4.39   10.68
 -11   0   7   -1.31   10.23
  11   0  -6  162.76   14.41
 -11   0   6  163.20   13.75
  11   0  -5   10.43   11.44
 -11   0   5    3.16   10.83
  11   0  -4   94.79   10.80
 -11   0   4   80.78   10.38
  11   0  -3  119.50   11.61
 -11   0   3   87.86   11.29
 -11   0   2    3.93    6.19
 -11   0   1   87.51   10.12
 -11   0   0   51.63    8.86
 -11   0  -1   30.09    7.78
 -11   0  -2   40.56    8.61
 -11   0  -3   83.57   10.41
 -11   0  -4   20.80    7.70
 -11   0  -5   44.73    8.67
 -11   0  -5   27.69    7.93
 -11   0  -6   18.77    8.03
 -11   0  -6   23.58    7.20
  11   1 -16   37.39    9.84
 -11  -1  16   19.79    9.46
  11   1 -15   39.86   16.43
 -11  -1  15   34.05    9.59
  11   1 -14    4.35    8.38
 -11  -1  14   27.86    8.13
  11   1 -13   43.98   11.14
 -11  -1  13   96.27   10.71
  11   1 -12    1.66   10.99
 -11  -1  12   -0.29    6.27
  11   1 -11   91.24   11.59
 -11  -1  11   82.42   18.36
  11   1 -10   35.25    9.10
 -11  -1  10   47.96    8.72
  11   1  -9   -2.14    6.52
 -11  -1   9   -1.51   10.42
  11   1  -8   92.91   11.56
 -11  -1   8  104.18   11.05
  11   1  -7   27.76   14.35
 -11  -1   7   48.61   13.94
  11   1  -6    4.87    7.01
 -11  -1   6   15.05    6.66
  11   1  -5  146.42   20.65
 -11  -1   5  127.31   12.25
  11   1  -4   13.93    2.31
  11   1  -4   10.39    7.17
 -11  -1   4   24.51    6.73
  11   1  -3   20.69    7.94
 -11  -1   3   45.49    7.85
 -11  -1   2   62.72    9.08
 -11  -1   1   15.95    6.89
 -11  -1   0   56.96   14.59
 -11  -1  -1   15.30    6.86
 -11  -1  -2  120.97   11.96
 -11  -1  -3    5.18   10.78
 -11  -1  -4   85.60   10.69
 -11  -1  -5   25.88    8.06
 -11  -1  -5   31.61    7.46
  11   2 -16    8.91    9.33
 -11  -2  16   33.05    8.94
  11   2 -15   79.98   11.98
 -11  -2  15   69.01   19.26
  11   2 -14   -1.80    6.80
 -11  -2  14    3.70    6.95
  11   2 -13   30.71    8.79
 -11  -2  13    5.20   14.13
  11   2 -12   52.25   16.84
 -11  -2  12   59.15   10.08
  11   2 -11    4.78    7.06
 -11  -2  11    5.58    6.87
  11   2 -10   31.55    8.58
 -11  -2  10   30.32    8.29
  11   2  -9   57.34   10.06
 -11  -2   9   69.46    9.72
  11   2  -8    0.91    6.12
 -11  -2   8   -1.86    6.10
  11   2  -7  160.65   21.36
 -11  -2   7  135.05   12.70
  11   2  -6   -1.11    6.63
 -11  -2   6   13.73    6.25
  11   2  -5   89.34   17.19
 -11  -2   5   85.24   10.24
  11   2  -4   12.18    4.19
  11   2  -4    9.25    6.72
 -11  -2   4   12.15   11.08
 -11  -2   3   80.22    9.82
 -11  -2   2   29.98    7.50
 -11  -2   1   23.71    7.08
 -11  -2   0   92.81   10.07
 -11  -2  -1    8.02   10.64
 -11  -2  -2   -3.42    6.17
 -11  -2  -3  175.62   14.09
 -11  -2  -4    2.75   10.09
 -11  -2  -5   39.38    8.60
 -11  -2  -5   45.39    7.92
  11   3 -16   46.10    9.79
 -11  -3  16   25.34    9.62
  11   3 -15    2.68   13.32
 -11  -3  15   13.91   12.95
  11   3 -14  183.36   15.73
 -11  -3  14  150.55   15.74
  11   3 -13   29.53    8.55
 -11  -3  13   20.78    8.54
  11   3 -12  101.15   20.33
 -11  -3  12  116.25   12.38
  11   3 -11    3.99    6.70
 -11  -3  11    2.27    6.57
  11   3 -10   48.65    9.06
 -11  -3  10   41.89    8.68
  11   3  -9    7.54    7.23
 -11  -3   9   16.86    6.99
  11   3  -8  120.64   11.90
 -11  -3   8  104.64   18.77
  11   3  -7   22.86    6.91
 -11  -3   7   -2.13    6.67
  11   3  -6   99.68   11.43
 -11  -3   6  113.38   17.95
  11   3  -5    2.69    2.69
  11   3  -5    4.24    6.11
 -11  -3   5   -2.11    5.86
  11   3  -4  118.74   11.20
  11   3  -4  103.29    4.99
 -11  -3   4  116.20   11.04
  11   3  -3    0.69    2.25
 -11  -3   3    9.82    5.79
 -11  -3   2   86.32   10.11
 -11  -3   1   36.26   12.70
 -11  -3   0    1.63    5.66
 -11  -3  -1   96.48   10.33
 -11  -3  -2   20.13    7.26
 -11  -3  -3    5.39    6.30
 -11  -3  -4   67.91    9.71
 -11  -3  -4   77.42    9.13
  11   4 -15   25.62   16.28
 -11  -4  15   49.75    9.66
  11   4 -14    7.84    7.45
 -11  -4  14    7.60    7.36
  11   4 -13  128.79   13.96
 -11  -4  13  153.22   13.93
  11   4 -12   15.59   14.10
 -11  -4  12   37.54   13.78
  11   4 -11  118.99   12.64
 -11  -4  11  123.11   12.51
  11   4 -10    7.92    6.68
 -11  -4  10   -0.04   11.00
  11   4  -9   67.77   10.11
 -11  -4   9   83.51   10.21
  11   4  -8   -1.39    6.24
 -11  -4   8   10.96    6.36
  11   4  -7   42.48    8.43
 -11  -4   7   38.82    8.15
  11   4  -6   82.03    9.98
 -11  -4   6   74.03    9.63
  11   4  -5   16.40    3.46
  11   4  -5   12.98    6.97
 -11  -4   5   12.90   10.97
  11   4  -4    0.91    5.92
  11   4  -4    3.01    2.68
 -11  -4   4    0.05    5.66
  11   4  -3  110.36    5.32
 -11  -4   3  154.56   17.65
 -11  -4   2   15.53    6.58
 -11  -4   1   42.90    7.99
 -11  -4   0   57.45   14.04
 -11  -4  -1    8.09    6.11
 -11  -4  -2   79.80    9.72
 -11  -5  15   13.56    8.10
  11   5 -14    0.04    6.71
 -11  -5  14    5.50   11.32
  11   5 -13   15.69    7.31
 -11  -5  13    3.66    7.29
  11   5 -12   21.08    8.18
 -11  -5  12   23.28    8.03
  11   5 -11   -8.87    6.80
 -11  -5  11   -6.47    6.77
  11   5 -10   68.39   17.18
 -11  -5  10   82.64   10.44
  11   5  -9    9.71    6.67
 -11  -5   9    2.32   10.95
  11   5  -8   50.36   15.12
 -11  -5   8   62.74    9.03
  11   5  -7   38.40    8.29
 -11  -5   7   42.28   13.48
  11   5  -6    6.43    3.61
  11   5  -6   28.96   10.79
 -11  -5   6    7.59    6.25
  11   5  -5   85.57   10.18
  11   5  -5   77.91    9.01
 -11  -5   5   91.11    9.84
  11   5  -4    3.95    5.83
  11   5  -4    7.67    4.94
 -11  -5   4   -4.37    5.69
  11   5  -3    3.16    4.98
 -11  -5   3    9.99    5.91
 -11  -5   2  145.90   18.70
 -11  -5   1    8.45    6.06
 -11  -5   0   24.32    7.07
 -11  -5  -1   39.52   12.61
  11   6 -13    5.58    6.54
 -11  -6  13   -8.52   11.01
  11   6 -12   36.68    8.92
 -11  -6  12   46.94    9.12
  11   6 -11    2.76    6.56
 -11  -6  11   12.22   10.92
  11   6 -10   12.73    7.01
 -11  -6  10   14.46    6.84
  11   6  -9   73.41    9.21
 -11  -6   9   40.18    8.98
  11   6  -8   19.00    7.61
 -11  -6   8   27.59    7.36
  11   6  -7   76.38   10.05
 -11  -6   7   81.05    9.63
  11   6  -6   11.41    4.24
  11   6  -6   13.02    6.78
 -11  -6   6   20.50   10.83
  11   6  -5   -7.49    5.88
  11   6  -5   -4.46    3.39
 -11  -6   5   10.44    5.64
  11   6  -4   18.30    4.07
 -11  -6   4   39.03    6.83
  11   6  -3   13.65    3.77
 -11  -6   3   26.35    6.50
  11   6  -2    3.31    2.98
 -11  -6   2   -0.49    5.43
 -11  -6   1   61.46   13.84
  11   7 -11   23.84    7.66
 -11  -7  11   22.65    7.75
  11   7 -10   -1.58    5.90
 -11  -7  10    6.79    9.76
  11   7  -9   -4.79    6.22
 -11  -7   9   13.91    6.16
  11   7  -8   47.89    9.03
 -11  -7   8   63.25    8.93
  11   7  -7    6.79    4.38
  11   7  -7   18.36    6.32
 -11  -7   7   -3.37    6.19
  11   7  -6   84.75    8.73
  11   7  -6   42.91    5.82
 -11  -7   6   53.34    8.36
  11   7  -5   12.77    6.03
  11   7  -5   -0.47    6.21
 -11  -7   5    5.46    9.72
  11   7  -4    9.69    3.84
 -11  -7   4    2.77    5.97
 -12   8   4   34.09    9.58
 -12   8   3    4.52    7.53
 -12   8   2    2.74    7.26
  12  -7  -7    8.59    8.56
 -12   7   7    9.92    7.78
  12  -7  -6    4.72    8.30
 -12   7   6   12.64    7.75
  12  -7  -5   -3.16    7.69
 -12   7   5   24.39   12.44
 -12   7   4   43.87    9.99
 -12   7   3   14.57   13.62
 -12   7   2    7.18    7.68
 -12   7   1   -4.71    7.49
 -12   7   0    7.94    7.93
  12  -6  -8   13.46    8.18
 -12   6   8    3.93    7.92
  12  -6  -7    3.12    7.69
 -12   6   7    1.01    7.09
  12  -6  -6   17.28    7.94
 -12   6   6   -5.54    7.22
  12  -6  -5   17.06    8.18
 -12   6   5    0.10    7.76
 -12   6   4    5.52    7.43
 -12   6   3    5.62   12.47
 -12   6   2  -12.46    8.14
 -12   6   1   -1.39    7.04
 -12   6   0    0.26    7.05
 -12   6  -1   -8.88    8.09
  12  -5 -10    4.44   13.94
 -12   5  10    7.33    7.82
  12  -5  -9    3.22    7.77
 -12   5   9    4.03    7.35
  12  -5  -8   17.62    9.02
 -12   5   8   17.92    8.43
  12  -5  -7    4.14   12.84
 -12   5   7    2.99    7.10
  12  -5  -6   36.71    9.94
 -12   5   6   33.39    9.30
  12  -5  -5   11.29    7.87
 -12   5   5   -0.05    7.52
 -12   5   4    4.88    7.54
 -12   5   3   22.41   14.41
 -12   5   2   62.52   11.08
 -12   5   1    9.49    7.86
 -12   5   0   -0.38    7.16
 -12   5  -1   21.35    8.83
 -12   5  -2   -0.87    7.17
  12  -4 -10   18.02    9.52
 -12   4  10   26.29    8.92
  12  -4  -9   49.08   10.98
 -12   4   9   43.48   10.39
  12  -4  -8    5.66    8.23
 -12   4   8    8.51    7.69
  12  -4  -7   28.61    9.59
 -12   4   7   28.24    8.79
  12  -4  -6   13.05    8.51
 -12   4   6   12.19    7.94
  12  -4  -5   17.22    8.54
 -12   4   5    7.29   13.29
 -12   4   4   -4.50    7.28
 -12   4   3    9.63   12.94
 -12   4   2   10.29    7.83
 -12   4   1   87.02   12.23
 -12   4   0   10.28   13.36
 -12   4  -1    2.59    7.23
 -12   4  -2   30.19    9.45
  12  -3 -11   15.32    8.07
  12  -3 -11    1.33    4.41
 -12   3  11    6.57    7.84
  12  -3 -10   44.19   10.15
  12  -3 -10   32.26    5.26
 -12   3  10   37.99    9.85
  12  -3  -9    9.05   12.95
 -12   3   9    0.32    7.24
  12  -3  -8   52.33   11.12
 -12   3   8   62.79   10.89
  12  -3  -7   -3.16    7.62
 -12   3   7   -3.60    6.99
  12  -3  -6   -3.08    7.26
 -12   3   6    2.05    6.76
  12  -3  -5   38.92   10.13
 -12   3   5   47.74   15.98
 -12   3   4   15.65    8.09
 -12   3   3   19.33    8.33
 -12   3   2   -4.43    7.27
 -12   3   1    4.43    7.36
 -12   3   0   17.46   13.94
 -12   3  -1   -8.29    7.77
 -12   3  -2   10.16    7.95
  12  -2 -11   -9.69    7.84
  12  -2 -11    7.34    4.51
 -12   2  11    2.72    7.43
  12  -2 -10   31.35    9.91
  12  -2 -10   26.69    5.66
 -12   2  10   48.20    9.61
  12  -2  -9  -10.39   12.51
 -12   2   9    5.22    7.03
  12  -2  -8   -5.24    7.25
 -12   2   8    5.23    6.86
  12  -2  -7   24.74    9.59
 -12   2   7   52.11   15.25
  12  -2  -6    6.67    7.24
 -12   2   6   -6.30    6.66
  12  -2  -5   -9.27    7.68
 -12   2   5    8.24   11.82
 -12   2   4   45.82    9.70
 -12   2   3   21.54    8.45
 -12   2   2   36.87    8.89
 -12   2   1    1.31    6.62
 -12   2   0   -2.76   11.67
 -12   2  -1    9.64    7.78
  12  -1 -11   10.51    9.34
 -12   1  11   34.36    9.04
  12  -1 -10   10.89    8.02
 -12   1  10    3.14    7.72
  12  -1  -9   22.94   16.59
 -12   1   9   43.18    9.50
  12  -1  -8   13.75    8.33
 -12   1   8   13.24    8.03
  12  -1  -7   10.27    8.11
 -12   1   7    9.53   12.99
  12  -1  -6  111.78   13.88
 -12   1   6  109.65   13.27
  12  -1  -5    1.97    7.80
 -12   1   5   10.43    7.44
 -12   1   4   24.01    8.48
 -12   1   3   24.03    8.48
 -12   1   2   11.24   12.78
 -12   1   1   11.29    7.53
 -12   1   0   43.81    9.72
 -12   1  -1    7.23    7.37
  12   0 -11   71.14   12.17
 -12   0  11   74.24   11.53
  12   0 -10   -1.27    7.32
 -12   0  10    1.74    6.84
  12   0  -9   23.80   14.99
 -12   0   9   30.28   14.52
  12   0  -8   -7.70    7.04
 -12   0   8    7.56    6.56
  12   0  -7  112.14   13.31
 -12   0   7   91.98   12.33
  12   0  -6   22.76    8.83
 -12   0   6   13.78    8.23
  12   0  -5  121.09   13.63
 -12   0   5  109.34   12.82
 -12   0   4   -5.52   11.96
 -12   0   3   79.79   11.08
 -12   0   2    4.47    7.16
 -12   0   1   64.14   10.30
 -12   0   0   10.79    7.39
  12   1 -11    6.51    7.85
 -12  -1  11   -2.28   12.38
  12   1 -10  111.43   13.49
 -12  -1  10  101.57   12.82
  12   1  -9   -2.39   13.85
 -12  -1   9   20.20    7.99
  12   1  -8   57.96   10.71
 -12  -1   8   48.77   10.15
  12   1  -7   15.94    7.02
 -12  -1   7  -12.43    6.63
  12   1  -6   77.63   12.03
 -12  -1   6   90.64   11.33
  12   1  -5   -2.27    6.77
 -12  -1   5    1.92    6.36
 -12  -1   4   68.15   17.24
 -12  -1   3   10.16    7.34
 -12  -1   2   52.44    9.83
 -12  -1   1   11.73   12.19
  12   2 -10   17.99    8.02
 -12  -2  10    0.25    7.72
  12   2  -9    8.71   14.63
 -12  -2   9   26.83    8.50
  12   2  -8   28.27    8.95
 -12  -2   8   24.57   14.58
  12   2  -7   50.81   10.44
 -12  -2   7   55.30    9.97
  12   2  -6   11.39    7.52
 -12  -2   6   -2.07   11.76
  12   2  -5   29.99    8.31
 -12  -2   5   13.84    8.15
 -12  -2   4   21.15    8.02
 -12  -2   3   11.52   12.17
  12   3  -7   16.23   12.44
 -12  -3   7    3.60    7.17
 -12  -3   6   43.40    9.15
   0   0   0    0.00    0.00
;
_shelx_hkl_checksum              17023
loop_
_space_group_symop_operation_xyz
'x, y, z'
'-x, -y, -z'
loop_
_atom_site_label
_atom_site_type_symbol
_atom_site_fract_x
_atom_site_fract_y
_atom_site_fract_z
_atom_site_U_iso_or_equiv
_atom_site_adp_type
_atom_site_occupancy
_atom_site_site_symmetry_order
_atom_site_calc_flag
_atom_site_refinement_flags_posn
_atom_site_refinement_flags_adp
_atom_site_refinement_flags_occupancy
Tb1 Tb 0.27684(3) 0.51230(2) -0.00290(2) 0.02706(9) Uani 1 1 d D . .
I1 I 0.76160(6) 0.98920(3) 0.49996(3) 0.04528(14) Uani 1 1 d . . .
I2 I 0.99071(6) 0.77992(3) 0.47107(3) 0.04572(14) Uani 1 1 d . . .
I3 I 1.08918(6) 0.97768(4) 0.67472(3) 0.05403(16) Uani 1 1 d . . .
I4 I 0.69498(6) 0.78942(4) 0.61293(3) 0.05157(16) Uani 1 1 d . . .
Cu1 Cu 1.01403(12) 0.94245(7) 0.54044(6) 0.0514(3) Uani 1 1 d . . .
Cu2 Cu 0.75521(11) 0.82692(7) 0.50169(6) 0.0512(3) Uani 1 1 d . . .
Cu3 Cu 0.82035(13) 0.94494(8) 0.62243(7) 0.0672(4) Uani 1 1 d . . .
Cu4 Cu 0.96195(12) 0.81770(7) 0.59979(6) 0.0521(3) Uani 1 1 d . . .
O1 O 0.1696(5) 0.5404(4) 0.0888(3) 0.0411(13) Uani 1 1 d . . .
O2 O -0.0607(5) 0.4830(3) 0.0693(3) 0.0398(12) Uani 1 1 d . . .
O3 O 0.5516(5) 1.3779(3) 0.9282(3) 0.0405(13) Uani 1 1 d . . .
O4 O 0.3309(5) 1.4099(3) 0.9130(3) 0.0425(13) Uani 1 1 d . . .
O5 O 1.3592(5) 0.5835(3) 0.9234(3) 0.0377(12) Uani 1 1 d . . .
O6 O 1.5781(6) 0.5522(3) 0.9406(3) 0.0424(13) Uani 1 1 d . . .
O7 O 0.1159(6) 0.3817(3) -0.0139(4) 0.0599(18) Uani 1 1 d D . .
O8 O 0.2054(10) 0.6627(5) 0.0155(5) 0.093(3) Uani 1 1 d D . .
N1 N 0.5774(7) 0.7608(4) 0.4326(3) 0.0444(16) Uani 1 1 d . . .
N2 N 0.7106(8) 1.0266(5) 0.6697(4) 0.053(2) Uani 1 1 d . . .
N3 N 1.0992(8) 0.7531(5) 0.6427(4) 0.0488(17) Uani 1 1 d . . .
C1 C 0.4501(9) 0.7836(6) 0.4346(4) 0.054(2) Uani 1 1 d . . .
H1 H 0.4460 0.8315 0.4670 0.064 Uiso 1 1 calc R U .
C2 C 0.3256(9) 0.7402(6) 0.3919(4) 0.051(2) Uani 1 1 d . . .
H2 H 0.2392 0.7580 0.3966 0.061 Uiso 1 1 calc R U .
C3 C 0.3258(8) 0.6702(5) 0.3417(4) 0.0387(17) Uani 1 1 d . . .
C4 C 0.4593(8) 0.6476(5) 0.3385(4) 0.0439(19) Uani 1 1 d . . .
H4 H 0.4672 0.6013 0.3055 0.053 Uiso 1 1 calc R U .
C5 C 0.5802(9) 0.6944(5) 0.3847(4) 0.048(2) Uani 1 1 d . . .
H5 H 0.6683 0.6780 0.3817 0.058 Uiso 1 1 calc R U .
C6 C 0.1918(8) 0.6210(5) 0.2940(4) 0.0357(16) Uani 1 1 d . . .
C7 C 0.1877(7) 0.5942(4) 0.2263(4) 0.0341(16) Uani 1 1 d . . .
H7 H 0.2696 0.6067 0.2104 0.041 Uiso 1 1 calc R U .
C8 C 0.0611(7) 0.5484(4) 0.1814(3) 0.0272(14) Uani 1 1 d . . .
C9 C -0.0615(8) 0.5290(5) 0.2058(4) 0.0346(16) Uani 1 1 d . . .
H9 H -0.1454 0.4978 0.1765 0.042 Uiso 1 1 calc R U .
C10 C -0.0583(8) 0.5557(5) 0.2725(4) 0.0426(19) Uani 1 1 d . . .
H10 H -0.1400 0.5426 0.2884 0.051 Uiso 1 1 calc R U .
C11 C 0.0670(9) 0.6026(5) 0.3170(4) 0.0428(18) Uani 1 1 d . . .
H11 H 0.0676 0.6217 0.3622 0.051 Uiso 1 1 calc R U .
C12 C 0.0567(7) 0.5224(4) 0.1079(3) 0.0297(14) Uani 1 1 d . . .
C13 C 0.7673(10) 1.1017(6) 0.7128(5) 0.054(2) Uani 1 1 d . . .
H13 H 0.8669 1.1164 0.7259 0.065 Uiso 1 1 calc R U .
C14 C 0.6849(9) 1.1583(5) 0.7384(5) 0.052(2) Uani 1 1 d . . .
H14 H 0.7294 1.2092 0.7687 0.062 Uiso 1 1 calc R U .
C15 C 0.5347(9) 1.1394(5) 0.7191(4) 0.0386(17) Uani 1 1 d . . .
C16 C 0.4790(10) 1.0610(6) 0.6738(5) 0.062(3) Uani 1 1 d . . .
H16 H 0.3801 1.0456 0.6579 0.075 Uiso 1 1 calc R U .
C17 C 0.5665(10) 1.0063(6) 0.6523(6) 0.067(3) Uani 1 1 d . . .
H17 H 0.5247 0.9534 0.6246 0.080 Uiso 1 1 calc R U .
C18 C 0.4390(8) 1.1966(4) 0.7433(4) 0.0384(17) Uani 1 1 d . . .
C19 C 0.4776(8) 1.2553(4) 0.8046(4) 0.0350(16) Uani 1 1 d . . .
H19 H 0.5692 1.2615 0.8307 0.042 Uiso 1 1 calc R U .
C20 C 0.3821(8) 1.3059(4) 0.8285(4) 0.0330(15) Uani 1 1 d . . .
C21 C 0.2467(8) 1.2975(5) 0.7899(4) 0.0412(18) Uani 1 1 d . . .
H21 H 0.1825 1.3306 0.8055 0.049 Uiso 1 1 calc R U .
C22 C 0.2058(10) 1.2385(5) 0.7264(4) 0.050(2) Uani 1 1 d . . .
H22 H 0.1150 1.2334 0.7000 0.060 Uiso 1 1 calc R U .
C23 C 0.2994(9) 1.1889(5) 0.7038(4) 0.0439(19) Uani 1 1 d . . .
H23 H 0.2713 1.1499 0.6622 0.053 Uiso 1 1 calc R U .
C24 C 0.4249(8) 1.3689(4) 0.8950(4) 0.0320(15) Uani 1 1 d . . .
C25 C 1.2344(12) 0.7699(8) 0.6424(7) 0.082(4) Uani 1 1 d . . .
H25 H 1.2631 0.8074 0.6193 0.098 Uiso 1 1 calc R U .
C26 C 1.3393(11) 0.7342(8) 0.6752(7) 0.081(4) Uani 1 1 d . . .
H26 H 1.4350 0.7476 0.6731 0.097 Uiso 1 1 calc R U .
C27 C 1.3020(9) 0.6803(5) 0.7098(4) 0.0446(19) Uani 1 1 d . . .
C28 C 1.1591(10) 0.6630(6) 0.7097(5) 0.054(2) Uani 1 1 d . . .
H28 H 1.1275 0.6255 0.7322 0.065 Uiso 1 1 calc R U .
C29 C 1.0607(10) 0.7008(6) 0.6764(5) 0.055(2) Uani 1 1 d . . .
H29 H 0.9644 0.6889 0.6779 0.066 Uiso 1 1 calc R U .
C30 C 1.4122(9) 0.6437(5) 0.7473(4) 0.0434(18) Uani 1 1 d . . .
C31 C 1.3958(8) 0.6274(5) 0.8080(4) 0.0383(17) Uani 1 1 d . . .
H31 H 1.3145 0.6386 0.8243 0.046 Uiso 1 1 calc R U .
C32 C 1.4995(7) 0.5949(4) 0.8439(4) 0.0337(15) Uani 1 1 d . . .
C33 C 1.6205(9) 0.5783(6) 0.8195(5) 0.049(2) Uani 1 1 d . . .
H33 H 1.6911 0.5572 0.8434 0.059 Uiso 1 1 calc R U .
C34 C 1.6362(10) 0.5935(7) 0.7584(5) 0.063(3) Uani 1 1 d . . .
H34 H 1.7172 0.5821 0.7419 0.075 Uiso 1 1 calc R U .
C35 C 1.5326(11) 0.6251(6) 0.7230(5) 0.059(2) Uani 1 1 d . U .
H35 H 1.5434 0.6342 0.6823 0.071 Uiso 1 1 calc R U .
C36 C 1.4772(8) 0.5751(4) 0.9070(4) 0.0324(15) Uani 1 1 d . U .
H7A H 0.033(6) 0.369(2) 0.009(3) 0.039 Uiso 1 1 d D U .
H7B H 0.106(6) 0.3220(14) -0.044(3) 0.039 Uiso 1 1 d D U .
H8A H 0.230(8) 0.7043(19) 0.0595(13) 0.039 Uiso 1 1 d D U .
H8B H 0.205(8) 0.695(2) -0.0183(17) 0.039 Uiso 1 1 d D U .
O9 O 1.1591(15) 0.4668(8) 0.4407(7) 0.150(3) Uani 1 1 d D U .
C37 C 1.289(2) 0.5107(11) 0.4383(9) 0.150(3) Uani 1 1 d D U .
H37A H 1.2783 0.5318 0.3992 0.180 Uiso 1 1 calc R U .
H37B H 1.3606 0.4747 0.4359 0.180 Uiso 1 1 calc R U .
C38 C 1.333(2) 0.5789(11) 0.4983(9) 0.150(3) Uani 1 1 d D U .
H38A H 1.4206 0.6132 0.4971 0.180 Uiso 1 1 calc R U .
H38B H 1.2589 0.6135 0.5007 0.180 Uiso 1 1 calc R U .
O10 O 1.3548(15) 0.5489(8) 0.5555(7) 0.150(3) Uani 1 1 d D U .
C39 C 1.231(2) 0.4979(11) 0.5565(9) 0.150(3) Uani 1 1 d D U .
H39A H 1.1556 0.5307 0.5629 0.180 Uiso 1 1 calc R U .
H39B H 1.2490 0.4729 0.5933 0.180 Uiso 1 1 calc R U .
C40 C 1.186(2) 0.4340(11) 0.4951(9) 0.150(3) Uani 1 1 d D U .
H40A H 1.2602 0.4001 0.4900 0.180 Uiso 1 1 calc R U .
H40B H 1.0995 0.3981 0.4960 0.180 Uiso 1 1 calc R U .
O11 O 0.2841(19) 0.0783(10) -0.0735(9) 0.095(3) Uani 0.5 1 d D U P
C41 C 0.366(2) 0.1500(13) -0.0353(14) 0.095(3) Uani 0.5 1 d D U P
H41A H 0.4359 0.1677 -0.0594 0.114 Uiso 0.5 1 calc R U P
H41B H 0.4190 0.1398 0.0046 0.114 Uiso 0.5 1 calc R U P
C42 C 0.293(3) 0.2145(14) -0.0164(12) 0.095(3) Uani 0.5 1 d D U P
H42A H 0.2627 0.2090 0.0238 0.114 Uiso 0.5 1 calc R U P
H42B H 0.3629 0.2660 -0.0037 0.114 Uiso 0.5 1 calc R U P
O12 O 0.1789(19) 0.2254(10) -0.0577(9) 0.095(3) Uani 0.5 1 d D U P
C43 C 0.107(3) 0.1552(13) -0.1044(13) 0.095(3) Uani 0.5 1 d D U P
H43A H 0.0825 0.1691 -0.1464 0.114 Uiso 0.5 1 calc R U P
H43B H 0.0177 0.1386 -0.0920 0.114 Uiso 0.5 1 calc R U P
C44 C 0.174(3) 0.0880(14) -0.1152(13) 0.095(3) Uani 0.5 1 d D U P
H44A H 0.1000 0.0394 -0.1228 0.114 Uiso 0.5 1 calc R U P
H44B H 0.2032 0.0841 -0.1572 0.114 Uiso 0.5 1 calc R U P
O13 O 1.148(3) 0.7274(13) 0.8959(13) 0.129(4) Uani 0.5 1 d D U P
C45 C 1.219(3) 0.8060(17) 0.9166(17) 0.129(4) Uani 0.5 1 d D U P
H45A H 1.3165 0.8074 0.9099 0.155 Uiso 0.5 1 calc R U P
H45B H 1.2236 0.8285 0.9639 0.155 Uiso 0.5 1 calc R U P
C46 C 1.148(3) 0.8546(17) 0.8807(17) 0.129(4) Uani 0.5 1 d D U P
H46A H 1.1988 0.9119 0.8964 0.155 Uiso 0.5 1 calc R U P
H46B H 1.1490 0.8339 0.8337 0.155 Uiso 0.5 1 calc R U P
O14 O 1.008(2) 0.8517(13) 0.8883(12) 0.129(4) Uani 0.5 1 d D U P
C47 C 0.940(3) 0.7721(16) 0.8567(17) 0.129(4) Uani 0.5 1 d D U P
H47A H 0.9390 0.7608 0.8094 0.155 Uiso 0.5 1 calc R U P
H47B H 0.8414 0.7657 0.8618 0.155 Uiso 0.5 1 calc R U P
C48 C 1.008(3) 0.7156(16) 0.8822(19) 0.129(4) Uani 0.5 1 d D U P
H48A H 0.9765 0.7134 0.9229 0.155 Uiso 0.5 1 calc R U P
H48B H 0.9735 0.6610 0.8506 0.155 Uiso 0.5 1 calc R U P
O15 O 1.715(3) 1.0225(17) 0.8449(16) 0.173(5) Uani 0.5 1 d D U P
C49 C 1.583(4) 1.025(2) 0.858(2) 0.173(5) Uani 0.5 1 d D U P
H49A H 1.5142 1.0177 0.8166 0.207 Uiso 0.5 1 calc R U P
H49B H 1.5829 1.0792 0.8873 0.207 Uiso 0.5 1 calc R U P
C50 C 1.541(4) 0.963(2) 0.8880(18) 0.173(5) Uani 0.5 1 d D U P
H50A H 1.6132 0.9677 0.9277 0.207 Uiso 0.5 1 calc R U P
H50B H 1.4515 0.9717 0.9017 0.207 Uiso 0.5 1 calc R U P
O16 O 1.522(3) 0.8841(17) 0.8458(17) 0.173(5) Uani 0.5 1 d D U P
C51 C 1.618(4) 0.882(2) 0.808(2) 0.173(5) Uani 0.5 1 d D U P
H51A H 1.5664 0.8781 0.7628 0.207 Uiso 0.5 1 calc R U P
H51B H 1.6547 0.8303 0.8056 0.207 Uiso 0.5 1 calc R U P
C52 C 1.734(4) 0.945(2) 0.823(2) 0.173(5) Uani 0.5 1 d D U P
H52A H 1.8060 0.9338 0.8568 0.207 Uiso 0.5 1 calc R U P
H52B H 1.7731 0.9404 0.7835 0.207 Uiso 0.5 1 calc R U P
loop_
_atom_site_aniso_label
_atom_site_aniso_U_11
_atom_site_aniso_U_22
_atom_site_aniso_U_33
_atom_site_aniso_U_23
_atom_site_aniso_U_13
_atom_site_aniso_U_12
Tb1 0.01652(15) 0.0456(2) 0.01916(15) 0.00727(13) 0.00399(11) 0.00868(12)
I1 0.0360(3) 0.0507(3) 0.0558(3) 0.0238(3) 0.0118(2) 0.0110(2)
I2 0.0466(3) 0.0482(3) 0.0426(3) 0.0045(2) 0.0196(2) 0.0106(2)
I3 0.0423(3) 0.0660(4) 0.0424(3) 0.0030(3) 0.0031(2) -0.0002(2)
I4 0.0471(3) 0.0596(3) 0.0538(4) 0.0193(3) 0.0240(3) 0.0041(2)
Cu1 0.0470(6) 0.0558(6) 0.0538(7) 0.0179(5) 0.0142(5) 0.0076(5)
Cu2 0.0389(5) 0.0599(7) 0.0425(6) 0.0017(5) 0.0003(4) 0.0001(4)
Cu3 0.0481(7) 0.0672(8) 0.0739(9) -0.0110(6) 0.0188(6) 0.0173(5)
Cu4 0.0476(6) 0.0652(7) 0.0556(7) 0.0325(6) 0.0110(5) 0.0234(5)
O1 0.025(3) 0.069(4) 0.031(3) 0.011(2) 0.011(2) 0.010(2)
O2 0.028(3) 0.063(3) 0.031(3) 0.014(2) 0.005(2) 0.014(2)
O3 0.030(3) 0.046(3) 0.036(3) -0.003(2) 0.003(2) 0.010(2)
O4 0.033(3) 0.050(3) 0.039(3) -0.001(2) 0.010(2) 0.014(2)
O5 0.027(3) 0.054(3) 0.039(3) 0.022(2) 0.009(2) 0.014(2)
O6 0.035(3) 0.060(3) 0.037(3) 0.022(3) 0.004(2) 0.018(2)
O7 0.043(3) 0.042(3) 0.100(6) 0.015(3) 0.036(4) 0.006(2)
O8 0.081(6) 0.094(6) 0.106(7) 0.027(5) 0.024(5) 0.022(5)
N1 0.037(4) 0.056(4) 0.031(3) 0.003(3) 0.002(3) 0.000(3)
N2 0.046(4) 0.054(4) 0.053(5) -0.008(3) 0.023(3) 0.011(3)
N3 0.045(4) 0.071(5) 0.047(4) 0.037(4) 0.014(3) 0.024(3)
C1 0.042(5) 0.059(5) 0.043(5) -0.014(4) 0.005(4) 0.006(4)
C2 0.037(4) 0.061(5) 0.042(5) -0.009(4) 0.008(4) 0.009(4)
C3 0.027(4) 0.054(5) 0.030(4) 0.005(3) 0.009(3) -0.001(3)
C4 0.038(4) 0.048(5) 0.037(4) 0.001(3) 0.001(3) 0.008(3)
C5 0.034(4) 0.057(5) 0.046(5) 0.008(4) 0.004(4) 0.003(3)
C6 0.029(4) 0.043(4) 0.032(4) 0.006(3) 0.008(3) 0.001(3)
C7 0.025(3) 0.043(4) 0.030(4) 0.001(3) 0.008(3) 0.006(3)
C8 0.024(3) 0.038(4) 0.023(3) 0.010(3) 0.008(3) 0.012(3)
C9 0.028(3) 0.045(4) 0.032(4) 0.010(3) 0.010(3) 0.005(3)
C10 0.034(4) 0.056(5) 0.040(4) 0.010(4) 0.019(3) 0.001(3)
C11 0.045(5) 0.055(5) 0.028(4) 0.007(3) 0.014(3) 0.008(4)
C12 0.022(3) 0.049(4) 0.020(3) 0.013(3) 0.001(3) 0.014(3)
C13 0.041(5) 0.064(6) 0.049(5) 0.003(4) 0.010(4) 0.005(4)
C14 0.044(5) 0.044(5) 0.055(5) -0.009(4) 0.014(4) 0.004(3)
C15 0.046(4) 0.039(4) 0.029(4) 0.000(3) 0.016(3) 0.007(3)
C16 0.044(5) 0.057(6) 0.073(7) -0.011(5) 0.019(5) 0.007(4)
C17 0.045(5) 0.056(6) 0.076(7) -0.024(5) 0.022(5) 0.001(4)
C18 0.040(4) 0.035(4) 0.035(4) 0.001(3) 0.008(3) 0.005(3)
C19 0.031(4) 0.040(4) 0.033(4) 0.006(3) 0.007(3) 0.009(3)
C20 0.034(4) 0.035(4) 0.029(4) 0.007(3) 0.006(3) 0.009(3)
C21 0.037(4) 0.046(4) 0.038(4) 0.005(3) 0.004(3) 0.014(3)
C22 0.050(5) 0.051(5) 0.037(4) -0.001(4) -0.005(4) 0.014(4)
C23 0.046(5) 0.036(4) 0.038(4) -0.004(3) 0.001(4) 0.006(3)
C24 0.033(4) 0.036(4) 0.029(4) 0.005(3) 0.012(3) 0.010(3)
C25 0.066(7) 0.115(9) 0.111(10) 0.091(8) 0.038(7) 0.041(6)
C26 0.043(5) 0.133(10) 0.117(10) 0.097(9) 0.038(6) 0.042(6)
C27 0.045(5) 0.062(5) 0.039(4) 0.027(4) 0.013(4) 0.023(4)
C28 0.049(5) 0.065(6) 0.063(6) 0.045(5) 0.015(4) 0.010(4)
C29 0.041(5) 0.070(6) 0.057(6) 0.025(5) 0.010(4) 0.011(4)
C30 0.039(4) 0.058(5) 0.046(5) 0.028(4) 0.013(4) 0.020(4)
C31 0.030(4) 0.054(5) 0.036(4) 0.019(3) 0.010(3) 0.012(3)
C32 0.026(3) 0.040(4) 0.039(4) 0.017(3) 0.008(3) 0.008(3)
C33 0.044(5) 0.068(6) 0.054(5) 0.028(4) 0.027(4) 0.034(4)
C34 0.051(5) 0.108(8) 0.068(6) 0.057(6) 0.044(5) 0.045(5)
C35 0.059(3) 0.060(3) 0.059(3) 0.0169(11) 0.0134(11) 0.0112(11)
C36 0.0322(17) 0.0328(17) 0.0321(17) 0.0090(10) 0.0063(10) 0.0057(10)
O9 0.150(3) 0.150(3) 0.150(3) 0.0412(8) 0.0325(7) 0.0262(6)
C37 0.150(3) 0.150(3) 0.150(3) 0.0412(8) 0.0325(7) 0.0262(6)
C38 0.150(3) 0.150(3) 0.150(3) 0.0412(8) 0.0325(7) 0.0262(6)
O10 0.150(3) 0.150(3) 0.150(3) 0.0412(8) 0.0325(7) 0.0262(6)
C39 0.150(3) 0.150(3) 0.150(3) 0.0412(8) 0.0325(7) 0.0262(6)
C40 0.150(3) 0.150(3) 0.150(3) 0.0412(8) 0.0325(7) 0.0262(6)
O11 0.095(3) 0.095(3) 0.095(3) 0.0259(8) 0.0205(7) 0.0170(6)
C41 0.095(3) 0.095(3) 0.095(3) 0.0259(8) 0.0205(7) 0.0170(6)
C42 0.095(3) 0.095(3) 0.095(3) 0.0259(8) 0.0205(7) 0.0170(6)
O12 0.095(3) 0.095(3) 0.095(3) 0.0259(8) 0.0205(7) 0.0170(6)
C43 0.095(3) 0.095(3) 0.095(3) 0.0259(8) 0.0205(7) 0.0170(6)
C44 0.095(3) 0.095(3) 0.095(3) 0.0259(8) 0.0205(7) 0.0170(6)
O13 0.129(4) 0.129(4) 0.129(4) 0.0354(11) 0.0281(9) 0.0229(8)
C45 0.129(4) 0.129(4) 0.129(4) 0.0354(11) 0.0281(9) 0.0229(8)
C46 0.129(4) 0.129(4) 0.129(4) 0.0354(11) 0.0281(9) 0.0229(8)
O14 0.129(4) 0.129(4) 0.129(4) 0.0354(11) 0.0281(9) 0.0229(8)
C47 0.129(4) 0.129(4) 0.129(4) 0.0354(11) 0.0281(9) 0.0229(8)
C48 0.129(4) 0.129(4) 0.129(4) 0.0354(11) 0.0281(9) 0.0229(8)
O15 0.173(5) 0.173(5) 0.173(5) 0.0472(15) 0.0377(13) 0.0305(11)
C49 0.173(5) 0.173(5) 0.173(5) 0.0472(15) 0.0377(13) 0.0305(11)
C50 0.173(5) 0.173(5) 0.173(5) 0.0472(15) 0.0377(13) 0.0305(11)
O16 0.173(5) 0.173(5) 0.173(5) 0.0472(15) 0.0377(13) 0.0305(11)
C51 0.173(5) 0.173(5) 0.173(5) 0.0472(15) 0.0377(13) 0.0305(11)
C52 0.173(5) 0.173(5) 0.173(5) 0.0472(15) 0.0377(13) 0.0305(11)
loop_
_atom_type_symbol
_atom_type_description
_atom_type_scat_dispersion_real
_atom_type_scat_dispersion_imag
_atom_type_scat_source
C C 0.0033 0.0016 'International Tables Vol C Tables 4.2.6.8 and 6.1.1.4'
H H 0.0000 0.0000 'International Tables Vol C Tables 4.2.6.8 and 6.1.1.4'
N N 0.0061 0.0033 'International Tables Vol C Tables 4.2.6.8 and 6.1.1.4'
O O 0.0106 0.0060 'International Tables Vol C Tables 4.2.6.8 and 6.1.1.4'
Cu Cu 0.3201 1.2651 'International Tables Vol C Tables 4.2.6.8 and 6.1.1.4'
I I -0.4742 1.8119 'International Tables Vol C Tables 4.2.6.8 and 6.1.1.4'
Tb Tb -0.1723 4.1537 'International Tables Vol C Tables 4.2.6.8 and 6.1.1.4'
loop_
_geom_angle_atom_site_label_1
_geom_angle_atom_site_label_2
_geom_angle_atom_site_label_3
_geom_angle
_geom_angle_site_symmetry_1
_geom_angle_site_symmetry_3
O6 Tb1 O2 151.9(2) 2_766 2_565
O6 Tb1 O1 84.5(2) 2_766 .
O2 Tb1 O1 88.17(18) 2_565 .
O6 Tb1 O4 79.1(2) 2_766 1_544
O2 Tb1 O4 92.67(18) 2_565 1_544
O1 Tb1 O4 146.5(2) . 1_544
O6 Tb1 O3 75.7(2) 2_766 2_676
O2 Tb1 O3 129.33(19) 2_565 2_676
O1 Tb1 O3 79.04(19) . 2_676
O4 Tb1 O3 123.78(18) 1_544 2_676
O6 Tb1 O5 122.79(18) 2_766 1_454
O2 Tb1 O5 79.45(18) 2_565 1_454
O1 Tb1 O5 138.28(19) . 1_454
O4 Tb1 O5 74.3(2) 1_544 1_454
O3 Tb1 O5 78.7(2) 2_676 1_454
O6 Tb1 O7 78.2(2) 2_766 .
O2 Tb1 O7 73.7(2) 2_565 .
O1 Tb1 O7 75.0(2) . .
O4 Tb1 O7 73.1(2) 1_544 .
O3 Tb1 O7 144.6(2) 2_676 .
O5 Tb1 O7 136.3(2) 1_454 .
O6 Tb1 O8 135.6(3) 2_766 .
O2 Tb1 O8 65.2(2) 2_565 .
O1 Tb1 O8 70.3(3) . .
O4 Tb1 O8 139.2(3) 1_544 .
O3 Tb1 O8 64.3(2) 2_676 .
O5 Tb1 O8 68.3(2) 1_454 .
O7 Tb1 O8 126.0(2) . .
Cu1 I1 Cu1 64.72(5) 2_776 .
Cu1 I1 Cu2 115.47(5) 2_776 .
Cu1 I1 Cu2 62.43(4) . .
Cu1 I1 Cu3 117.46(5) 2_776 .
Cu1 I1 Cu3 59.59(4) . .
Cu2 I1 Cu3 58.76(4) . .
Cu2 I2 Cu4 59.58(4) . .
Cu2 I2 Cu1 63.43(4) . .
Cu4 I2 Cu1 60.30(4) . .
Cu3 I3 Cu1 63.30(5) . .
Cu3 I3 Cu4 60.01(5) . .
Cu1 I3 Cu4 60.02(5) . .
Cu4 I4 Cu3 60.27(4) . .
Cu4 I4 Cu2 59.47(4) . .
Cu3 I4 Cu2 60.91(5) . .
I1 Cu1 I3 106.97(5) 2_776 .
I1 Cu1 I1 115.28(5) 2_776 .
I3 Cu1 I1 111.67(5) . .
I1 Cu1 I2 99.57(5) 2_776 .
I3 Cu1 I2 116.45(5) . .
I1 Cu1 I2 106.60(5) . .
I1 Cu1 Cu4 135.91(5) 2_776 .
I3 Cu1 Cu4 61.11(5) . .
I1 Cu1 Cu4 108.16(5) . .
I2 Cu1 Cu4 59.70(4) . .
I1 Cu1 Cu3 153.34(6) 2_776 .
I3 Cu1 Cu3 55.79(4) . .
I1 Cu1 Cu3 62.86(5) . .
I2 Cu1 Cu3 106.41(5) . .
Cu4 Cu1 Cu3 58.04(5) . .
I1 Cu1 Cu2 145.78(6) 2_776 .
I3 Cu1 Cu2 105.89(6) . .
I1 Cu1 Cu2 59.21(4) . .
I2 Cu1 Cu2 56.56(4) . .
Cu4 Cu1 Cu2 57.17(5) . .
Cu3 Cu1 Cu2 58.81(5) . .
I1 Cu1 Cu1 57.87(4) 2_776 2_776
I3 Cu1 Cu1 128.17(7) . 2_776
I1 Cu1 Cu1 57.41(5) . 2_776
I2 Cu1 Cu1 114.99(7) . 2_776
Cu4 Cu1 Cu1 163.99(7) . 2_776
Cu3 Cu1 Cu1 113.92(7) . 2_776
Cu2 Cu1 Cu1 106.93(7) . 2_776
N1 Cu2 I2 111.6(2) . .
N1 Cu2 Cu4 143.9(2) . .
I2 Cu2 Cu4 61.92(4) . .
N1 Cu2 I4 100.3(2) . .
I2 Cu2 I4 113.86(5) . .
Cu4 Cu2 I4 58.53(4) . .
N1 Cu2 I1 105.9(2) . .
I2 Cu2 I1 108.76(5) . .
Cu4 Cu2 I1 109.74(6) . .
I4 Cu2 I1 115.90(5) . .
N1 Cu2 Cu3 138.3(2) . .
I2 Cu2 Cu3 109.99(5) . .
Cu4 Cu2 Cu3 59.22(5) . .
I4 Cu2 Cu3 58.81(5) . .
I1 Cu2 Cu3 62.86(5) . .
N1 Cu2 Cu1 151.6(2) . .
I2 Cu2 Cu1 60.00(4) . .
Cu4 Cu2 Cu1 59.88(5) . .
I4 Cu2 Cu1 107.87(5) . .
I1 Cu2 Cu1 58.36(4) . .
Cu3 Cu2 Cu1 59.64(5) . .
N2 Cu3 I3 112.8(2) . .
N2 Cu3 Cu4 158.8(3) . .
I3 Cu3 Cu4 63.83(5) . .
N2 Cu3 I4 109.0(2) . .
I3 Cu3 I4 113.98(6) . .
Cu4 Cu3 I4 58.91(4) . .
N2 Cu3 Cu2 133.5(2) . .
I3 Cu3 Cu2 112.44(6) . .
Cu4 Cu3 Cu2 58.84(5) . .
I4 Cu3 Cu2 60.28(5) . .
N2 Cu3 Cu1 138.3(3) . .
I3 Cu3 Cu1 60.90(4) . .
Cu4 Cu3 Cu1 60.44(5) . .
I4 Cu3 Cu1 110.61(5) . .
Cu2 Cu3 Cu1 61.54(5) . .
N2 Cu3 I1 94.9(3) . .
I3 Cu3 I1 111.47(6) . .
Cu4 Cu3 I1 105.84(6) . .
I4 Cu3 I1 113.20(6) . .
Cu2 Cu3 I1 58.38(4) . .
Cu1 Cu3 I1 57.55(4) . .
N3 Cu4 I4 116.1(2) . .
N3 Cu4 Cu2 151.3(2) . .
I4 Cu4 Cu2 62.00(4) . .
N3 Cu4 Cu3 145.1(2) . .
I4 Cu4 Cu3 60.82(5) . .
Cu2 Cu4 Cu3 61.94(5) . .
N3 Cu4 I2 103.2(2) . .
I4 Cu4 I2 113.90(6) . .
Cu2 Cu4 I2 58.51(4) . .
Cu3 Cu4 I2 109.44(6) . .
N3 Cu4 Cu1 130.4(2) . .
I4 Cu4 Cu1 113.12(5) . .
Cu2 Cu4 Cu1 62.95(5) . .
Cu3 Cu4 Cu1 61.52(5) . .
I2 Cu4 Cu1 60.00(4) . .
N3 Cu4 I3 99.0(2) . .
I4 Cu4 I3 109.08(5) . .
Cu2 Cu4 I3 108.67(5) . .
Cu3 Cu4 I3 56.16(4) . .
I2 Cu4 I3 114.68(5) . .
Cu1 Cu4 I3 58.88(4) . .
C12 O1 Tb1 143.1(5) . .
C12 O2 Tb1 148.1(5) . 2_565
C24 O3 Tb1 136.9(5) . 2_676
C24 O4 Tb1 145.9(5) . 1_566
C36 O5 Tb1 121.0(5) . 1_656
C36 O6 Tb1 167.3(5) . 2_766
Tb1 O7 H7A 131.3(17) . .
Tb1 O7 H7B 131.7(18) . .
H7A O7 H7B 97.0(15) . .
Tb1 O8 H8A 122.5(19) . .
Tb1 O8 H8B 122.8(19) . .
H8A O8 H8B 106(2) . .
C5 N1 C1 116.8(7) . .
C5 N1 Cu2 123.1(6) . .
C1 N1 Cu2 120.1(5) . .
C13 N2 C17 117.2(7) . .
C13 N2 Cu3 126.1(6) . .
C17 N2 Cu3 116.4(5) . .
C25 N3 C29 117.7(8) . .
C25 N3 Cu4 118.5(6) . .
C29 N3 Cu4 123.5(6) . .
N1 C1 C2 123.3(8) . .
N1 C1 H1 118.3 . .
C2 C1 H1 118.3 . .
C1 C2 C3 120.9(8) . .
C1 C2 H2 119.6 . .
C3 C2 H2 119.6 . .
C2 C3 C4 115.8(7) . .
C2 C3 C6 122.5(7) . .
C4 C3 C6 121.8(7) . .
C5 C4 C3 119.6(7) . .
C5 C4 H4 120.2 . .
C3 C4 H4 120.2 . .
N1 C5 C4 123.6(8) . .
N1 C5 H5 118.2 . .
C4 C5 H5 118.2 . .
C7 C6 C11 119.0(7) . .
C7 C6 C3 120.7(7) . .
C11 C6 C3 120.3(7) . .
C6 C7 C8 120.6(7) . .
C6 C7 H7 119.7 . .
C8 C7 H7 119.7 . .
C9 C8 C7 119.4(6) . .
C9 C8 C12 120.6(6) . .
C7 C8 C12 120.0(6) . .
C10 C9 C8 120.2(7) . .
C10 C9 H9 119.9 . .
C8 C9 H9 119.9 . .
C9 C10 C11 120.4(7) . .
C9 C10 H10 119.8 . .
C11 C10 H10 119.8 . .
C10 C11 C6 120.5(7) . .
C10 C11 H11 119.8 . .
C6 C11 H11 119.8 . .
O1 C12 O2 124.1(6) . .
O1 C12 C8 118.1(6) . .
O2 C12 C8 117.8(6) . .
N2 C13 C14 123.2(8) . .
N2 C13 H13 118.4 . .
C14 C13 H13 118.4 . .
C13 C14 C15 120.3(8) . .
C13 C14 H14 119.9 . .
C15 C14 H14 119.9 . .
C16 C15 C14 115.2(7) . .
C16 C15 C18 121.1(7) . .
C14 C15 C18 123.8(7) . .
C17 C16 C15 121.7(9) . .
C17 C16 H16 119.2 . .
C15 C16 H16 119.2 . .
N2 C17 C16 122.3(8) . .
N2 C17 H17 118.8 . .
C16 C17 H17 118.8 . .
C19 C18 C23 118.3(7) . .
C19 C18 C15 122.3(7) . .
C23 C18 C15 119.3(6) . .
C18 C19 C20 121.6(7) . .
C18 C19 H19 119.2 . .
C20 C19 H19 119.2 . .
C21 C20 C19 119.5(7) . .
C21 C20 C24 119.4(6) . .
C19 C20 C24 121.1(6) . .
C20 C21 C22 119.7(7) . .
C20 C21 H21 120.1 . .
C22 C21 H21 120.1 . .
C23 C22 C21 120.2(8) . .
C23 C22 H22 119.9 . .
C21 C22 H22 119.9 . .
C22 C23 C18 120.6(7) . .
C22 C23 H23 119.7 . .
C18 C23 H23 119.7 . .
O4 C24 O3 125.2(6) . .
O4 C24 C20 116.6(6) . .
O3 C24 C20 118.2(6) . .
N3 C25 C26 123.0(10) . .
N3 C25 H25 118.5 . .
C26 C25 H25 118.5 . .
C27 C26 C25 120.2(10) . .
C27 C26 H26 119.9 . .
C25 C26 H26 119.9 . .
C26 C27 C28 116.3(8) . .
C26 C27 C30 121.3(8) . .
C28 C27 C30 122.4(8) . .
C27 C28 C29 120.6(8) . .
C27 C28 H28 119.7 . .
C29 C28 H28 119.7 . .
N3 C29 C28 122.2(9) . .
N3 C29 H29 118.9 . .
C28 C29 H29 118.9 . .
C35 C30 C31 118.9(8) . .
C35 C30 C27 120.6(8) . .
C31 C30 C27 120.6(7) . .
C32 C31 C30 120.9(7) . .
C32 C31 H31 119.5 . .
C30 C31 H31 119.5 . .
C33 C32 C31 119.4(8) . .
C33 C32 C36 120.6(7) . .
C31 C32 C36 120.0(7) . .
C32 C33 C34 119.7(8) . .
C32 C33 H33 120.1 . .
C34 C33 H33 120.1 . .
C35 C34 C33 120.4(8) . .
C35 C34 H34 119.8 . .
C33 C34 H34 119.8 . .
C34 C35 C30 120.6(10) . .
C34 C35 H35 119.7 . .
C30 C35 H35 119.7 . .
O6 C36 O5 124.1(7) . .
O6 C36 C32 117.9(6) . .
O5 C36 C32 118.0(6) . .
C37 O9 C40 106.6(15) . .
O9 C37 C38 107.2(15) . .
O9 C37 H37A 110.3 . .
C38 C37 H37A 110.3 . .
O9 C37 H37B 110.3 . .
C38 C37 H37B 110.3 . .
H37A C37 H37B 108.5 . .
O10 C38 C37 110.8(15) . .
O10 C38 H38A 109.5 . .
C37 C38 H38A 109.5 . .
O10 C38 H38B 109.5 . .
C37 C38 H38B 109.5 . .
H38A C38 H38B 108.1 . .
C39 O10 C38 109.8(15) . .
O10 C39 C40 109.4(15) . .
O10 C39 H39A 109.8 . .
C40 C39 H39A 109.8 . .
O10 C39 H39B 109.8 . .
C40 C39 H39B 109.8 . .
H39A C39 H39B 108.2 . .
O9 C40 C39 111.9(15) . .
O9 C40 H40A 109.2 . .
C39 C40 H40A 109.2 . .
O9 C40 H40B 109.2 . .
C39 C40 H40B 109.2 . .
H40A C40 H40B 107.9 . .
C44 O11 C41 113.8(17) . .
O11 C41 C42 115.3(19) . .
O11 C41 H41A 108.4 . .
C42 C41 H41A 108.4 . .
O11 C41 H41B 108.4 . .
C42 C41 H41B 108.4 . .
H41A C41 H41B 107.5 . .
O12 C42 C41 121.5(19) . .
O12 C42 H42A 107.0 . .
C41 C42 H42A 107.0 . .
O12 C42 H42B 107.0 . .
C41 C42 H42B 107.0 . .
H42A C42 H42B 106.7 . .
C42 O12 C43 114.6(16) . .
O12 C43 C44 117.9(19) . .
O12 C43 H43A 107.8 . .
C44 C43 H43A 107.8 . .
O12 C43 H43B 107.8 . .
C44 C43 H43B 107.8 . .
H43A C43 H43B 107.2 . .
O11 C44 C43 124(2) . .
O11 C44 H44A 106.3 . .
C43 C44 H44A 106.3 . .
O11 C44 H44B 106.3 . .
C43 C44 H44B 106.3 . .
H44A C44 H44B 106.4 . .
C48 O13 C45 118(2) . .
O13 C45 C46 110(2) . .
O13 C45 H45A 109.8 . .
C46 C45 H45A 109.8 . .
O13 C45 H45B 109.8 . .
C46 C45 H45B 109.8 . .
H45A C45 H45B 108.2 . .
O14 C46 C45 111(2) . .
O14 C46 H46A 109.5 . .
C45 C46 H46A 109.5 . .
O14 C46 H46B 109.5 . .
C45 C46 H46B 109.5 . .
H46A C46 H46B 108.1 . .
C47 O14 C46 106(2) . .
O14 C47 C48 111(2) . .
O14 C47 H47A 109.4 . .
C48 C47 H47A 109.4 . .
O14 C47 H47B 109.4 . .
C48 C47 H47B 109.4 . .
H47A C47 H47B 108.0 . .
O13 C48 C47 119(2) . .
O13 C48 H48A 107.6 . .
C47 C48 H48A 107.6 . .
O13 C48 H48B 107.6 . .
C47 C48 H48B 107.6 . .
H48A C48 H48B 107.0 . .
C52 O15 C49 111(2) . .
O15 C49 C50 112(2) . .
O15 C49 H49A 109.1 . .
C50 C49 H49A 109.1 . .
O15 C49 H49B 109.1 . .
C50 C49 H49B 109.1 . .
H49A C49 H49B 107.9 . .
O16 C50 C49 112(2) . .
O16 C50 H50A 109.2 . .
C49 C50 H50A 109.2 . .
O16 C50 H50B 109.2 . .
C49 C50 H50B 109.2 . .
H50A C50 H50B 107.9 . .
C51 O16 C50 109(2) . .
O16 C51 C52 121(3) . .
O16 C51 H51A 107.1 . .
C52 C51 H51A 107.1 . .
O16 C51 H51B 107.1 . .
C52 C51 H51B 107.1 . .
H51A C51 H51B 106.8 . .
O15 C52 C51 119(2) . .
O15 C52 H52A 107.6 . .
C51 C52 H52A 107.6 . .
O15 C52 H52B 107.6 . .
C51 C52 H52B 107.6 . .
H52A C52 H52B 107.1 . .
loop_
_geom_bond_atom_site_label_1
_geom_bond_atom_site_label_2
_geom_bond_distance
_geom_bond_site_symmetry_2
Tb1 O6 2.294(5) 2_766
Tb1 O2 2.311(5) 2_565
Tb1 O1 2.331(5) .
Tb1 O4 2.332(5) 1_544
Tb1 O3 2.343(5) 2_676
Tb1 O5 2.365(5) 1_454
Tb1 O7 2.454(6) .
Tb1 O8 2.651(9) .
I1 Cu1 2.6853(15) 2_776
I1 Cu1 2.6992(14) .
I1 Cu2 2.7238(14) .
I1 Cu3 2.8465(19) .
I2 Cu2 2.6222(14) .
I2 Cu4 2.7131(15) .
I2 Cu1 2.7214(15) .
I3 Cu3 2.5534(16) .
I3 Cu1 2.6978(15) .
I3 Cu4 2.7591(18) .
I4 Cu4 2.6257(14) .
I4 Cu3 2.6771(17) .
I4 Cu2 2.7180(15) .
Cu1 I1 2.6853(15) 2_776
Cu1 Cu4 2.7296(18) .
Cu1 Cu3 2.7584(19) .
Cu1 Cu2 2.8105(19) .
Cu1 Cu1 2.882(2) 2_776
Cu2 N1 2.031(6) .
Cu2 Cu4 2.6518(18) .
Cu2 Cu3 2.7348(19) .
Cu3 N2 2.013(6) .
Cu3 Cu4 2.6625(17) .
Cu4 N3 2.036(7) .
O1 C12 1.252(8) .
O2 C12 1.264(8) .
O2 Tb1 2.311(5) 2_565
O3 C24 1.262(9) .
O3 Tb1 2.343(5) 2_676
O4 C24 1.259(8) .
O4 Tb1 2.332(5) 1_566
O5 C36 1.258(9) .
O5 Tb1 2.365(5) 1_656
O6 C36 1.254(9) .
O6 Tb1 2.294(5) 2_766
O7 H7A 1.033(16) .
O7 H7B 1.031(16) .
O8 H8A 0.987(18) .
O8 H8B 0.994(18) .
N1 C5 1.317(10) .
N1 C1 1.330(11) .
N2 C13 1.343(11) .
N2 C17 1.344(12) .
N3 C25 1.296(13) .
N3 C29 1.316(12) .
C1 C2 1.361(11) .
C1 H1 0.9300 .
C2 C3 1.377(10) .
C2 H2 0.9300 .
C3 C4 1.390(11) .
C3 C6 1.490(10) .
C4 C5 1.382(11) .
C4 H4 0.9300 .
C5 H5 0.9300 .
C6 C7 1.384(10) .
C6 C11 1.399(11) .
C7 C8 1.403(9) .
C7 H7 0.9300 .
C8 C9 1.401(10) .
C8 C12 1.500(9) .
C9 C10 1.365(11) .
C9 H9 0.9300 .
C10 C11 1.396(11) .
C10 H10 0.9300 .
C11 H11 0.9300 .
C13 C14 1.383(12) .
C13 H13 0.9300 .
C14 C15 1.400(12) .
C14 H14 0.9300 .
C15 C16 1.398(11) .
C15 C18 1.476(10) .
C16 C17 1.371(12) .
C16 H16 0.9300 .
C17 H17 0.9300 .
C18 C19 1.379(10) .
C18 C23 1.419(11) .
C19 C20 1.403(10) .
C19 H19 0.9300 .
C20 C21 1.377(10) .
C20 C24 1.490(9) .
C21 C22 1.415(11) .
C21 H21 0.9300 .
C22 C23 1.369(11) .
C22 H22 0.9300 .
C23 H23 0.9300 .
C25 C26 1.400(14) .
C25 H25 0.9300 .
C26 C27 1.348(13) .
C26 H26 0.9300 .
C27 C28 1.367(12) .
C27 C30 1.492(11) .
C28 C29 1.386(12) .
C28 H28 0.9300 .
C29 H29 0.9300 .
C30 C35 1.387(13) .
C30 C31 1.407(11) .
C31 C32 1.392(10) .
C31 H31 0.9300 .
C32 C33 1.386(10) .
C32 C36 1.495(11) .
C33 C34 1.407(12) .
C33 H33 0.9300 .
C34 C35 1.376(13) .
C34 H34 0.9300 .
C35 H35 0.9300 .
O9 C37 1.383(13) .
O9 C40 1.389(13) .
C37 C38 1.441(14) .
C37 H37A 0.9700 .
C37 H37B 0.9700 .
C38 O10 1.413(13) .
C38 H38A 0.9700 .
C38 H38B 0.9700 .
O10 C39 1.383(13) .
C39 C40 1.423(14) .
C39 H39A 0.9700 .
C39 H39B 0.9700 .
C40 H40A 0.9700 .
C40 H40B 0.9700 .
O11 C44 1.307(18) .
O11 C41 1.335(17) .
C41 C42 1.376(19) .
C41 H41A 0.9700 .
C41 H41B 0.9700 .
C42 O12 1.339(18) .
C42 H42A 0.9700 .
C42 H42B 0.9700 .
O12 C43 1.348(17) .
C43 C44 1.356(19) .
C43 H43A 0.9700 .
C43 H43B 0.9700 .
C44 H44A 0.9700 .
C44 H44B 0.9700 .
O13 C48 1.304(19) .
O13 C45 1.335(18) .
C45 C46 1.40(2) .
C45 H45A 0.9700 .
C45 H45B 0.9700 .
C46 O14 1.386(19) .
C46 H46A 0.9700 .
C46 H46B 0.9700 .
O14 C47 1.358(19) .
C47 C48 1.37(2) .
C47 H47A 0.9700 .
C47 H47B 0.9700 .
C48 H48A 0.9700 .
C48 H48B 0.9700 .
O15 C52 1.320(19) .
O15 C49 1.351(19) .
C49 C50 1.40(2) .
C49 H49A 0.9700 .
C49 H49B 0.9700 .
C50 O16 1.373(19) .
C50 H50A 0.9700 .
C50 H50B 0.9700 .
O16 C51 1.328(19) .
C51 C52 1.36(2) .
C51 H51A 0.9700 .
C51 H51B 0.9700 .
C52 H52A 0.9700 .
C52 H52B 0.9700 .
loop_
_geom_hbond_atom_site_label_D
_geom_hbond_atom_site_label_H
_geom_hbond_atom_site_label_A
_geom_hbond_distance_DH
_geom_hbond_distance_HA
_geom_hbond_distance_DA
_geom_hbond_angle_DHA
_geom_hbond_site_symmetry_A
O7 H7A O2 1.033(16) 2.39(4) 3.031(8) 119(2) .
O7 H7A O8 1.033(16) 2.22(5) 3.075(11) 139(6) 2_565
O7 H7B O12 1.031(16) 1.82(5) 2.739(17) 146(6) .
O8 H8B O13 0.994(18) 2.02(4) 2.98(3) 160(6) 1_454
