#------------------------------------------------------------------------------
#$Date: 2016-02-04 03:23:23 +0200 (Thu, 04 Feb 2016) $
#$Revision: 175668 $
#$URL: svn://www.crystallography.net/cod/cif/4/34/48/4344840.cif $
#------------------------------------------------------------------------------
#
# This file is available in the Crystallography Open Database (COD),
# http://www.crystallography.net/
#
# All data on this site have been placed in the public domain by the
# contributors.
#
data_4344840
loop_
_publ_author_name
'Ye, Yingxiang'
'Xiong, Shunshun'
'Wu, Xiaonan'
'Zhang, Liuqin'
'Li, Ziyin'
'Wang, Lihua'
'Ma, Xiuling'
'Chen, Qian-Huo'
'Zhang, Zhangjing'
'Xiang, Shengchang'
_publ_section_title
;
 Microporous Metal-Organic Framework Stabilized by Balanced Multiple
 Host-Couteranion Hydrogen-Bonding Interactions for High-Density CO2
 Capture at Ambient Conditions.
;
_journal_issue                   1
_journal_name_full               'Inorganic chemistry'
_journal_page_first              292
_journal_paper_doi               10.1021/acs.inorgchem.5b02316
_journal_volume                  55
_journal_year                    2015
_chemical_formula_moiety         '0.5(C72 H48 Cl2 Cu8 N24 O24), 4(Cl0.75 O3)'
_chemical_formula_sum            'C36 H24 Cl4 Cu4 N12 O24'
_chemical_formula_weight         1404.63
_chemical_name_systematic
;
 ?
;
_space_group_crystal_system      tetragonal
_space_group_IT_number           139
_space_group_name_Hall           '-I 4 2'
_space_group_name_H-M_alt        'I 4/m m m'
_symmetry_space_group_name_Hall  '-I 4 2'
_symmetry_space_group_name_H-M   'I 4/m m m'
_atom_sites_solution_hydrogens   geom
_atom_sites_solution_primary     direct
_audit_creation_date             2015-08-13
_audit_creation_method
;
Olex2 1.2
(compiled 2015.01.26 svn.r3150 for OlexSys, GUI svn.r4998)
;
_cell_angle_alpha                90
_cell_angle_beta                 90
_cell_angle_gamma                90
_cell_formula_units_Z            2
_cell_length_a                   14.2066(2)
_cell_length_b                   14.2066(2)
_cell_length_c                   19.8137(4)
_cell_measurement_temperature    150
_cell_volume                     3998.95(11)
_computing_molecular_graphics    'Olex2 (Dolomanov et al., 2009)'
_computing_publication_material  'Olex2 (Dolomanov et al., 2009)'
_computing_structure_refinement  'ShelXL (Sheldrick, 2008)'
_computing_structure_solution    'SIR2004 (Burla et al., 2007)'
_diffrn_ambient_temperature      150
_diffrn_measured_fraction_theta_full 0.998
_diffrn_measured_fraction_theta_max 0.990
_diffrn_measurement_device_type  'SuperNova, Dual, Cu at zero, Atlas'
_diffrn_measurement_method       '\w scans'
_diffrn_radiation_type           CuK\a
_diffrn_radiation_wavelength     1.54184
_diffrn_reflns_av_R_equivalents  0.0260
_diffrn_reflns_av_unetI/netI     0.0146
_diffrn_reflns_laue_measured_fraction_full 0.998
_diffrn_reflns_laue_measured_fraction_max 0.990
_diffrn_reflns_limit_h_max       14
_diffrn_reflns_limit_h_min       -17
_diffrn_reflns_limit_k_max       12
_diffrn_reflns_limit_k_min       -15
_diffrn_reflns_limit_l_max       24
_diffrn_reflns_limit_l_min       -22
_diffrn_reflns_number            5728
_diffrn_reflns_point_group_measured_fraction_full 0.998
_diffrn_reflns_point_group_measured_fraction_max 0.990
_diffrn_reflns_theta_full        67.684
_diffrn_reflns_theta_max         73.912
_diffrn_reflns_theta_min         3.829
_exptl_absorpt_coefficient_mu    2.974
_exptl_crystal_colour            Green
_exptl_crystal_density_diffrn    1.167
_exptl_crystal_description       polyhedral
_exptl_crystal_F_000             1400
_refine_diff_density_max         1.943
_refine_diff_density_min         -1.861
_refine_diff_density_rms         0.204
_refine_ls_extinction_method     none
_refine_ls_goodness_of_fit_ref   1.079
_refine_ls_hydrogen_treatment    constr
_refine_ls_matrix_type           full
_refine_ls_number_parameters     72
_refine_ls_number_reflns         1192
_refine_ls_number_restraints     58
_refine_ls_restrained_S_all      1.112
_refine_ls_R_factor_all          0.0982
_refine_ls_R_factor_gt           0.0966
_refine_ls_shift/su_max          0.000
_refine_ls_shift/su_mean         0.000
_refine_ls_structure_factor_coef Fsqd
_refine_ls_weighting_details
;
 w=1/[\s^2^(Fo^2^)+(0.2000P)^2^+37.8050P]
 where P=(Fo^2^+2Fc^2^)/3
;
_refine_ls_weighting_scheme      calc
_refine_ls_wR_factor_gt          0.2861
_refine_ls_wR_factor_ref         0.2886
_reflns_Friedel_coverage         0.000
_reflns_number_gt                1150
_reflns_number_total             1192
_reflns_threshold_expression     'I > 2\s(I)'
_cod_data_source_file            ic5b02316_si_002.cif
_cod_data_source_block           FJU-14-ClO4
_cod_original_cell_volume        3998.92(14)
_cod_database_code               4344840
_shelxl_version_number           2013-2
_shelx_space_group_comment
;
The symmetry employed for this shelxl refinement is uniquely defined
by the following loop, which should always be used as a source of
symmetry information in preference to the above space-group names.
They are only intended as comments.
;
_olex2_refinement_description
;
1. Fixed Uiso
 At 1.2 times of:
  All C(H) groups
2. Shared sites
{N1, C3}
3. Restrained distances
 Cl2-O4 = Cl2-O3
 1.326 with sigma of 0.02
 H6-H4
 1.8 with sigma of 0.02
 H6-H4
 1.9 with sigma of 0.02
4. Uiso/Uaniso restraints and constraints
All non-hydrogen atoms have similar U: within 1.1A with sigma of 0.04 and sigma
for terminal atoms of 0.08
Uanis(O4) \\sim Ueq, Uanis(Cl2) \\sim Ueq, Uanis(O3) \\sim Ueq: with sigma of
0.01 and sigma for terminal atoms of 0.02
Uanis(C6) \\sim Ueq: with sigma of 0.01 and sigma for terminal atoms of 0.02
Uanis(C3) \\sim Ueq: with sigma of 0.01 and sigma for terminal atoms of 0.02
Uanis(C3) \\sim Ueq, Uanis(C4) \\sim Ueq: with sigma of 0.01 and sigma for
terminal atoms of 0.02
Uanis(C6) \\sim Ueq, Uanis(C4) \\sim Ueq: with sigma of 0.05 and sigma for
terminal atoms of 0.1
Uanis(C3) = Uanis(N1)
Uanis(N1) = Uanis(C3)
Uanis(O4) = Uanis(Cl2) = Uanis(O3)
Uanis(N2) = Uanis(O1)
5. Others
 Fixed Sof: N2(0.5) N1(0.25) C1(0.25) C5(0.25) C2(0.5) H2(0.5) C4(0.5) H4(0.5)
 O1(0.5) C3(0.25) Cl2(0.1875) O3(0.375) O4(0.375)
6.a Aromatic/amide H refined with riding coordinates:
 C6(H6), C2(H2), C4(H4)
;
_shelx_res_file
;
TITL CF solution in I4/mmm
CELL 1.54184 14.206564 14.206564 19.813659 90 90 90
ZERR 2 0.000196 0.000196 0.000441 0 0 0
LATT 2
SYMM -Y,+X,+Z
SYMM +X,-Y,-Z
SYMM -X,-Y,+Z
SYMM -Y,-X,-Z
SYMM +Y,+X,-Z
SYMM +Y,-X,+Z
SYMM -X,+Y,-Z
SFAC C H Cl Cu N O
UNIT 72 48 8 8 24 48
DFIX 1.326 Cl2 O4 Cl2 O3
DFIX 1.8 H6 H4
DFIX 1.9 H6 H4
SIMU 0.04 0.08 1.1
ISOR 0.01 0.02 O4 Cl2 O3
ISOR 0.01 0.02 C6
ISOR 0.01 0.02 C3
ISOR 0.01 0.02 C3 C4
ISOR 0.05 0.1 C6 C4
EADP C3 N1
EADP N1 C3
EADP O4 Cl2 O3
EADP N2 O1
EXYZ N1 C3

L.S. 5
PLAN  20
BOND
ABIN
fmap 2
acta
REM <olex2.extras>
REM <HklSrc "%.\\FJU-14-ClO4.hkl">
REM </olex2.extras>

WGHT    0.200000   37.805000
FVAR       3.10152
CU1   4    0.179975    0.000000    0.000000    10.25000    0.02157    0.01596 =
         0.00668    0.00000    0.00000    0.00000
CL1   3    0.000000    0.000000    0.000000    10.06250    0.01742    0.01742 =
         0.04329    0.00000    0.00000    0.00000
PART 1
N2    5    0.173075    0.104956    0.068110    10.50000    0.03650    0.02941 =
         0.01769   -0.00552   -0.01312    0.00200
N1    5    0.196580    0.196580    0.159280    10.25000    0.02897    0.02897 =
         0.02357   -0.00857   -0.00857    0.00293
PART 0
C6    1    0.307375    0.192625    0.250000    10.50000    0.08028    0.08028 =
         0.06087   -0.04414   -0.04414    0.04010
PART 1
AFIX  43
H6    2    0.353663    0.146335    0.250000    10.50000   -1.20000
AFIX   0
PART 0
O2    6    0.344586    0.000000    0.000000    10.25000    0.04735    0.18302 =
         0.12164    0.00000    0.00000    0.00000
PART 2
C1    1    0.158024    0.158024    0.097818    10.25000    0.02858    0.02858 =
         0.01547   -0.00976   -0.00976   -0.00514
PART 0
PART 1
C5    1    0.233599    0.233599    0.218593    10.25000    0.03494    0.03494 =
         0.02180   -0.01030   -0.01030    0.00281
C2    1    0.227129    0.119575    0.122018    10.50000    0.03524    0.02817 =
         0.02229   -0.00829   -0.01700    0.00540
AFIX  43
H2    2    0.278928    0.082783    0.133322    10.50000   -1.20000
AFIX   0
PART 0
PART 2
C4    1    0.270850    0.155260    0.192224    10.50000    0.06576    0.05905 =
         0.05158   -0.03533   -0.02891    0.02403
AFIX  43
H4    2    0.296936    0.100406    0.174720    10.50000   -1.20000
AFIX   0
O1    6    0.198677    0.088801    0.074186    10.50000    0.03650    0.02941 =
         0.01769   -0.00552   -0.01312    0.00200
C3    1    0.196580    0.196580    0.159280    10.25000    0.02897    0.02897 =
         0.02357   -0.00857   -0.00857    0.00293

PART 0
CL2   3    0.500000    0.000000    0.205093    10.18750    0.18660    0.18073 =
         0.20302    0.00000    0.00000    0.00000
O3    6    0.420138    0.000000    0.169586    10.37500    0.18660    0.18073 =
         0.20302    0.00000    0.00000    0.00000
O4    6    0.500000    0.084093    0.244717    10.37500    0.18660    0.18073 =
         0.20302    0.00000    0.00000    0.00000
HKLF 4

REM  CF solution in I4/mmm
REM R1 =  0.0966 for    1150 Fo > 4sig(Fo)  and  0.0982 for all    1192 data
REM     72 parameters refined using     58 restraints

END

WGHT      0.1899     41.9894

REM Highest difference peak  1.943,  deepest hole -1.861,  1-sigma level  0.204
Q1    1   0.4130  0.0000  0.0000  10.25000  0.05    1.94
Q2    1   0.5000  0.0345  0.1503  10.50000  0.05    0.83
Q3    1   0.5000  0.0000  0.2349  10.25000  0.05    0.76
Q4    1   0.5000  0.0000  0.0000  10.12500  0.05    0.75
Q5    1   0.3354  0.0000 -0.0173  10.50000  0.05    0.75
Q6    1   0.0792  0.0000  0.0000  10.25000  0.05    0.64
Q7    1   0.2766  0.1671  0.2660  11.00000  0.05    0.58
Q8    1   0.3204 -0.0886 -0.0242  11.00000  0.05    0.52
Q9    1   0.1901  0.1651  0.1742  11.00000  0.05    0.50
Q10   1   0.2276  0.1418  0.2138  11.00000  0.05    0.38
Q11   1   0.2362  0.0000  0.0187  10.50000  0.05    0.36
Q12   1   0.2773  0.0000  0.0000  10.25000  0.05    0.34
Q13   1   0.1864  0.2151  0.1510  11.00000  0.05    0.33
Q14   1   0.1341  0.1660  0.1887  11.00000  0.05    0.33
Q15   1   0.4288  0.0461  0.1335  11.00000  0.05    0.33
Q16   1   0.0000  0.0000  0.2338  10.12500  0.05    0.33
Q17   1   0.0000  0.0000  0.0706  10.12500  0.05    0.32
Q18   1   0.2954  0.1854  0.1769  11.00000  0.05    0.30
Q19   1   0.3021  0.1253  0.0711  11.00000  0.05    0.30
Q20   1   0.0000  0.0000  0.1571  10.12500  0.05    0.29
;
_shelx_res_checksum              38740
_shelx_hkl_file
;
   0   0   2 520198. 1176.08   2
   0   0   4 545165. 1820.85   2
   0   0   6 226694. 1540.90   2
   0   0  -8 191032. 1475.07   1
   0   0   8 189020. 1667.74   2
   0   0 -10 214273. 1837.78   1
   0   0  10 213927. 1759.02   2
   0   0 -12 654310. 3643.40   1
   0   0 -14 399989. 3202.03   1
   0   0  16 267944. 3307.77   5
   0   0 -16 267559. 2854.40   1
   0   0  18 92075.3 1923.38   5
   0   0  20 24300.2 921.689   5
   0   0  22 5508.42 374.520   5
   1   0   1 572306. 1772.30   2
  -1   0  -1 570713. 1165.19   1
   1   0   3 161580. 1157.00   2
  -1   0  -3 163024. 845.146   1
   0  -1   5 81352.9 656.775   2
  -1   0   5 81240.8 604.938   2
   1   0   5 79428.9 1001.79   2
   0   1   5 82211.4 780.876   2
   0   1   7 15995.9 435.768   2
  -1   0   7 15724.6 368.191   2
   1   0   7 15454.3 524.210   2
   0   1  -7 15857.3 380.465   1
   0  -1   7 16682.8 345.238   2
  -1   0  -7 16632.5 410.839   1
   0   1   9 114490. 1439.52   2
   0  -1  -9 114879. 1288.47   1
  -1   0  -9 119107. 1278.50   1
   1   0   9 115853. 1532.04   2
   0   1  -9 118711. 1232.15   1
   0  -1   9 120697. 963.299   2
  -1   0 -11 176769. 1773.34   1
   0   1 -11 182230. 1757.42   1
   1   0  11 181575. 1875.41   2
   1   0 -11 181762. 1819.99   1
   0  -1 -11 187239. 1891.25   1
  -1   0 -13 218661. 2236.22   1
   0   1 -13 214002. 2146.02   1
   0  -1 -13 221360. 2298.79   1
   0  -1 -15 156116. 2145.84   1
   1   0  15 150860. 2483.06   5
   0   1 -15 154851. 2034.95   1
   0  -1  15 157462. 2542.18   5
  -1   0  15 159000. 2477.84   5
   1   0 -15 149662. 2052.38   1
   0   1  15 151640. 2381.11   5
  -1   0 -15 156402. 2099.06   1
   1   0  17 70090.9 1738.80   5
   0   1  17 67955.1 1616.19   5
   0  -1  17 71822.2 1768.18   5
  -1   0 -17 72157.4 1524.02   1
  -1   0  17 71017.3 1687.27   5
   0  -1  19 27279.8 1042.25   5
   1   0  19 25296.7 989.760   5
   0   1  19 25568.2 955.794   5
  -1   0  19 26025.8 984.347   5
   1   0  21 7210.15 470.667   5
   0  -1  21 7714.52 494.144   5
   0   1  21 6731.58 439.269   5
  -1   0  21 7537.45 475.264   5
   0   1  23 11692.5 434.498   5
   0  -1  23 12141.1 488.917   5
   1   0  23 11599.7 452.642   5
  -1   0  23 11928.6 471.995   5
   1  -1  22 4090.32 332.325   5
  -1   1  22 3902.75 300.613   5
   1  -1  20 7470.79 529.049   5
  -1   1  20 7354.60 490.219   5
  -1   1  18 16105.4 781.466   5
   1  -1  18 15480.0 831.028   5
   1  -1  16 33417.7 1219.60   5
   1   1 -16 31493.6 960.746   1
  -1   1  16 32902.9 1108.28   5
  -1   1  14 73777.6 1583.63   5
  -1  -1 -14 72743.7 1403.44   1
   1   1 -14 71324.0 1322.30   1
   1   1 -12 52960.2 1029.04   1
  -1  -1 -12 52399.3 1058.13   1
  -1  -1 -10 57040.4 973.346   1
   1  -1  10 61255.6 887.991   2
   1  -1   8 20681.4 510.179   2
  -1   1   8 19623.3 460.192   2
  -1  -1  -8 20045.4 500.986   1
   1  -1   6 2349.39 169.165   2
  -1   1   6 2283.25 129.290   2
  -1  -1  -6 2483.83 160.613   1
   1  -1   4 40449.9 590.621   2
  -1  -1  -4 40628.3 518.389   1
  -1  -1  -2 152798. 750.205   1
   1  -1   2 151875. 860.708   2
  -1  -1   0 114472. 482.090   1
   1  -1   0 113440. 571.126   2
  -1   1  -2 150781. 658.938   1
   1   1   2 154573. 925.044   2
   1   1   4 38946.6 592.797   2
  -1   1  -4 39471.6 454.079   1
  -1   1  -6 2427.19 143.100   1
   1   1   6 2307.00 182.968   2
  -1  -1   6 1992.68 63.7375   2
   1   1   8 19830.0 605.363   2
  -1   1  -8 19425.8 466.362   1
  -1   1 -10 57033.0 922.936   1
   1   1  10 56043.3 1228.54   2
   1  -1 -12 51667.1 1056.86   1
  -1   1 -12 52300.3 1011.04   1
  -1   1 -14 73256.9 1338.91   1
   1  -1 -14 72465.8 1420.33   1
  -1  -1  16 33861.5 1181.72   5
   1  -1 -16 35340.1 1075.45   1
   1   1  16 31927.0 1127.85   5
  -1   1 -16 32897.9 967.294   1
  -1  -1  18 15862.5 800.468   5
   1   1  18 15802.8 776.620   5
  -1  -1  20 7948.06 538.020   5
   1   1  20 7330.00 493.363   5
  -1  -1  22 4011.81 325.710   5
   1   1  22 3786.98 288.723   5
  -1  -1  24 5159.26 267.443   5
   2   0   0 900.169 94.7287   2
  -2   0   0 1019.04 71.6631   1
   2   0  -2 58595.5 375.192   2
  -2   0  -2 58257.0 516.699   1
   0   2  -4 109990. 646.958   1
  -2   0  -4 108028. 848.584   1
   2   0   4 107483. 1270.27   2
   2   0   6 137151. 1633.27   2
   0  -2   6 137725. 820.222   2
   0   2   8 34022.8 714.819   2
   0  -2   8 34758.2 454.117   2
  -2   0  -8 33529.5 661.299   1
   0   2  -8 33832.8 597.483   1
   2   0   8 32093.7 866.955   2
  -2   0 -10 62854.4 1018.87   1
   0  -2 -10 58977.6 1002.86   1
   2   0  10 60885.5 1238.50   2
   0   2 -10 60435.7 911.041   1
   0   2  10 58714.3 1112.63   2
   0   2 -12 6071.80 334.409   1
   2   0  12 6463.39 395.573   2
   0  -2 -12 6203.04 383.639   1
  -2   0 -12 6730.63 385.753   1
  -2   0 -14 8640.82 477.446   1
   0  -2 -14 8594.56 494.172   1
   2   0 -14 8968.86 504.282   1
   0   2 -14 9243.28 453.195   1
  -2   0  14 9582.35 580.626   5
  -2   0  16 7387.27 538.355   5
   0   2  16 7263.15 511.059   5
   0  -2  16 7414.45 580.530   5
  -2   0 -16 7169.04 474.569   1
   2   0 -16 7223.64 487.774   1
   0  -2 -16 7443.40 502.404   1
   2   0  16 7571.04 584.932   5
  -2   0  18 2249.95 311.339   5
   0   2  18 1854.63 261.473   5
   2   0  18 2238.93 308.639   5
   0  -2  18 2500.33 351.415   5
   0  -2  20 5138.16 443.992   5
   0   2  20 4328.07 355.889   5
   2   0  20 4887.50 416.120   5
  -2   0  20 4456.46 393.079   5
  -2   0  22 9915.23 486.822   5
   2   0  22 9092.19 463.188   5
   0  -2  22 9217.56 497.720   5
  -2   0  24 681.418 101.731   5
   0  -2  24 779.278 111.512   5
  -2   1  23 61.6637 66.6050   5
   2  -1  23-19.3976 84.0371   5
   1  -2  23-0.85528 74.5496   5
   2  -1  21 1321.04 219.976   5
   1  -2  21 1280.24 232.235   5
  -1   2  21 1495.23 200.126   5
  -2   1  21 1372.94 210.433   5
   2  -1  19 110.399 118.930   5
   1  -2  19 217.314 146.788   5
  -1   2  19-133.416 94.6301   5
  -2   1  19-119.527 106.148   5
  -2   1  17 447.309 169.511   5
   1  -2  17 378.996 159.960   5
   2  -1  17 570.112 189.800   5
  -1   2  17 695.058 172.406   5
  -2   1  15 3417.64 358.096   5
  -2  -1 -15 3325.81 329.725   1
  -1   2  15 3460.76 353.860   5
   2   1 -15 3477.27 314.240   1
  -1  -2 -15 3163.55 314.908   1
   1   2 -13 1456.32 186.116   1
   2   1 -13 1827.94 209.635   1
  -1  -2 -13 1793.66 228.676   1
  -2  -1 -13 1878.85 219.911   1
  -2  -1 -11 2617.17 239.368   1
   2  -1  11 3231.59 244.316   2
   1   2 -11 3609.81 251.971   1
  -1  -2 -11 3321.49 268.055   1
  -1   2   9 1855.90 173.605   2
   1  -2   9 1915.03 140.100   2
  -1  -2  -9 2052.95 186.132   1
   2  -1   9 1819.34 185.068   2
  -1  -2  -7 328.363 78.9116   1
  -2  -1  -7 371.315 80.2329   1
  -2   1   7 410.405 57.6834   2
   1  -2   7 252.335 57.2894   2
   2  -1   7 429.207 109.319   2
  -1  -2  -5 6020.76 228.890   1
  -2  -1  -5 6085.42 234.496   1
   2  -1   5 5691.99 288.209   2
   1  -2   5 5540.03 196.564   2
  -2  -1  -3 25660.9 390.672   1
   1  -2   3 25068.3 367.332   2
  -1  -2  -3 26801.9 391.048   1
   2  -1   3 26004.7 520.376   2
  -1  -2  -1 28175.8 296.706   1
   2  -1   1 28761.7 432.374   2
   1  -2   1 28114.9 344.077   2
  -2  -1  -1 28771.4 351.400   1
   2  -1  -1 30207.3 341.600   2
   2   1   1 29640.6 473.875   2
  -2   1  -1 29945.1 377.994   1
  -1   2  -3 26868.2 306.837   1
   2   1   3 26389.2 543.743   2
  -2   1  -3 27348.2 379.948   1
   2   1   5 5791.04 307.804   2
  -1   2  -5 6292.74 196.211   1
  -2   1  -5 5891.97 213.211   1
   1   2   5 5963.65 263.469   2
  -2   1  -7 552.264 88.9121   1
  -1   2  -7 515.884 77.1124   1
   2   1   7 311.250 119.698   2
   1   2   7 476.864 104.161   2
  -2   1  -9 2189.30 182.866   1
   2   1   9 2186.46 264.454   2
   1   2   9 2144.68 229.565   2
  -1   2  -9 2206.14 176.763   1
   2   1  11 3646.33 377.172   2
  -2   1 -11 3118.42 247.079   1
  -1   2 -11 3272.58 237.360   1
   1   2  11 3597.89 350.418   2
   2  -1 -13 2040.06 249.172   1
   1  -2 -13 2009.15 248.834   1
  -2   1 -13 1565.63 197.804   1
  -1   2 -13 1953.87 209.507   1
   2   1  15 3795.44 398.174   5
   1   2  15 3537.35 366.387   5
   2  -1 -15 4262.40 380.947   1
   1  -2 -15 3754.11 357.382   1
  -2  -1  15 3467.97 376.761   5
  -2   1 -15 3036.72 294.365   1
  -1  -2  15 3836.29 413.733   5
  -1   2 -15 3243.96 282.054   1
  -1  -2  17 569.050 180.666   5
   1   2  17 577.611 176.733   5
   2   1  17 656.621 185.030   5
  -2  -1  17 612.929 177.070   5
   2   1  19 255.575 120.948   5
  -1  -2  19 212.401 129.826   5
   1   2  19 115.010 98.6756   5
  -2  -1  19 194.583 136.981   5
  -2  -1  21 1495.42 223.731   5
   2   1  21 1219.45 191.743   5
  -1  -2  21 1373.69 219.538   5
  -2  -1  23 27.1301 62.5270   5
  -1  -2  23 77.2193 75.3324   5
  -2   2  22 11642.4 484.864   5
   2  -2  22 11344.1 548.721   5
   2  -2  20 5601.92 474.178   5
  -2   2  20 5014.74 388.117   5
   2  -2  18 12167.0 757.291   5
  -2   2  18 12163.7 654.833   5
  -2   2  16 61904.2 1480.68   5
  -2  -2 -16 66446.3 1480.49   1
  -2   2  14 68711.3 1479.11   5
   2   2 -14 66453.8 1246.45   1
  -2  -2 -12 41561.6 985.563   1
   2   2 -12 40704.4 873.208   1
   2  -2  10 84640.7 1076.13   2
  -2  -2 -10 81067.3 1208.20   1
   2  -2   8 42758.1 728.554   2
  -2  -2  -8 44676.9 782.664   1
   2  -2   6 5536.86 240.771   2
  -2  -2  -6 5408.63 245.757   1
   2  -2   4 1556.94 125.868   2
  -2  -2  -4 1644.33 119.564   1
   2  -2   2 999999. 2530.55   2
  -2  -2  -2 991500. 2364.49   1
  -2  -2   0 110435. 678.593   1
   2  -2   0 110960. 771.313   2
  -2   2  -2 991882. 2229.48   1
   2   2   4 1650.85 167.859   2
  -2   2  -4 1639.02 103.891   1
  -2   2  -6 5780.49 226.324   1
   2   2   6 5460.07 311.671   2
   2   2   8 43646.7 998.737   2
  -2   2  -8 44818.7 714.315   1
   2   2  10 77703.5 1581.36   2
  -2   2 -10 81910.3 1105.58   1
   2   2  12 40787.6 1306.08   2
  -2   2 -12 41423.7 896.507   1
  -2  -2  14 72533.6 1657.17   5
   2  -2 -14 72636.6 1462.82   1
   2  -2 -16 70083.7 1577.15   1
  -2  -2  16 63256.4 1598.39   5
  -2  -2  18 12610.8 706.602   5
  -2  -2  20 5448.16 441.945   5
  -2  -2  22 11666.1 531.813   5
  -2  -2  24 8015.31 328.400   5
   3   0  -1 79293.3 795.881   2
  -3   0  -1 78899.4 740.049   1
   3   0  -3 303079. 1012.20   2
   3   0   3 300476. 2360.56   2
  -3   0  -3 303505. 1481.48   1
   0   3  -5 373349. 1292.63   1
   3   0   5 373741. 2850.65   2
  -3   0  -5 380074. 1877.51   1
   0  -3   7 117242. 847.497   2
   3   0   7 120174. 1757.14   2
  -3   0  -7 122728. 1223.82   1
   0   3  -7 120183. 942.990   1
   0   3   9 82562.2 1279.87   2
   0  -3  -9 83869.0 1154.02   1
   3   0   9 80631.4 1522.66   2
   0   3  -9 82600.1 946.113   1
  -3   0  -9 83962.8 1135.95   1
   0   3  11 4519.59 369.655   2
  -3   0 -11 4485.51 305.655   1
   3   0  11 4987.25 392.703   2
   0  -3 -11 5409.98 345.889   1
   0   3 -11 4284.49 253.577   1
  -3   0 -13 4496.12 341.009   1
   0  -3 -13 4878.83 367.148   1
   3   0 -15 345.199 129.685   1
  -3   0  15 553.628 165.530   5
  -3   0  17 1970.78 288.659   5
   0  -3  17 2117.60 329.144   5
   3   0  17 1525.47 272.580   5
   0  -3  19 57.3657 102.955   5
  -3   0  19 346.141 148.604   5
   3   0  19 317.759 153.208   5
   0  -3  21 12860.6 641.564   5
  -3   0  21 13495.2 607.102   5
   3   0  21 11786.5 573.484   5
  -3   0  23 3114.80 239.204   5
   0  -3  23 2951.02 251.856   5
   1  -3  24 1231.14 133.890   5
   1  -3  22 69.4094 87.6445   5
   3  -1  22-14.6826 71.2454   5
  -3   1  22 184.450 92.9659   5
   3  -1  20 45.5227 88.1344   5
  -3   1  20 135.832 99.4172   5
   1  -3  20 110.898 112.569   5
  -1   3  18 5800.36 429.552   5
   3  -1  18 5313.76 502.834   5
  -3   1  18 5816.56 469.630   5
   1  -3  18 6267.35 548.345   5
  -1  -3 -16 1612.49 254.081   1
   3   1 -16 2223.77 263.887   1
  -3  -1 -16 1627.01 246.224   1
  -1   3  16 1746.11 250.648   5
  -3   1  16 1768.80 274.388   5
  -3  -1 -14 31676.6 950.874   1
   3   1 -14 32703.0 935.947   1
  -1   3  14 30913.8 954.957   5
  -1  -3 -14 32874.1 977.592   1
  -3   1  14 33465.8 1059.15   5
  -3  -1 -12 24838.1 757.819   1
   1   3 -12 23875.9 620.993   1
  -1  -3 -12 25826.1 774.219   1
   3  -1  12 25478.1 721.077   2
  -1  -3 -10 2034.85 204.742   1
  -1   3  10 2081.91 209.955   2
   1   3 -10 1745.55 153.364   1
   3  -1  10 2200.85 231.203   2
  -3  -1 -10 1939.73 195.637   1
   1   3  -8 8691.75 284.728   1
   3  -1   8 8892.99 430.686   2
  -1  -3  -8 9251.24 370.624   1
  -3  -1  -8 8930.40 365.771   1
   1  -3   8 8453.55 281.660   2
   3  -1   6 943.049 147.207   2
   1  -3   6 718.673 82.7984   2
  -1  -3  -6 806.034 107.968   1
  -3  -1  -6 972.120 111.817   1
   3  -1   4 57609.4 964.821   2
  -1  -3  -4 57673.8 691.213   1
  -3  -1  -4 55731.1 713.078   1
   3   1  -2 85267.3 895.148   2
   3  -1   2 85687.9 994.076   2
   1  -3   2 82779.6 709.774   2
  -3  -1  -2 86819.6 758.675   1
  -1  -3  -2 81977.2 636.060   1
  -3  -1   0 452984. 1712.75   1
   3   1   0 457650. 2270.10   2
  -3   1  -2 87889.2 791.816   1
   3   1   2 87317.1 1109.99   2
   3  -1  -2 86066.9 664.285   2
   3   1   4 58290.2 1023.14   2
  -3   1  -4 59006.5 690.557   1
  -1   3  -6 793.546 79.1818   1
  -3   1  -6 850.705 102.707   1
   3   1   6 838.793 168.716   2
   1   3   8 9632.55 445.016   2
  -3   1  -8 8946.54 348.299   1
  -1   3  -8 8910.64 299.418   1
   3   1   8 8713.09 522.151   2
  -3   1 -10 2154.93 199.149   1
  -1   3 -10 1773.40 157.721   1
   1   3  10 1908.50 253.252   2
   3   1  10 1593.48 280.578   2
   3   1  12 25646.1 993.244   2
   1   3  12 25279.9 982.098   2
   1  -3 -12 26401.2 791.995   1
  -3   1 -12 25227.3 737.354   1
  -1   3 -12 24706.7 639.866   1
  -1  -3  14 34767.5 1177.57   5
  -3  -1  14 34376.7 1102.42   5
   1  -3 -14 34648.3 1020.28   1
  -3   1 -14 31270.3 892.009   1
   3   1  16 1829.73 287.185   5
  -1  -3  16 1586.56 295.176   5
  -3  -1  16 2039.69 296.477   5
   3  -1 -16 2472.77 310.854   1
  -3   1 -16 1714.40 234.344   1
   1  -3 -16 1929.88 279.766   1
  -1  -3  18 6424.74 522.400   5
  -3  -1  18 6281.80 493.649   5
   3   1  18 5520.30 471.569   5
  -3  -1  20 157.111 112.849   5
   3   1  20 125.105 103.306   5
  -1  -3  20 250.026 153.021   5
  -1  -3  22 60.9610 81.1728   5
  -3  -1  22 18.3960 81.0245   5
  -1  -3  24 1320.18 138.822   5
  -3  -1  24 1265.25 131.397   5
   2  -3  23 18319.3 595.990   5
  -3   2  23 18252.9 503.381   5
   3  -2  23 18167.0 570.137   5
   2  -3  21 26459.8 930.803   5
  -3   2  21 27976.7 835.427   5
   3  -2  21 25165.6 900.201   5
  -2   3  21 25541.0 746.089   5
   3  -2  19 12760.9 758.551   5
  -2   3  19 12408.3 607.859   5
  -3   2  19 13063.2 651.733   5
   2  -3  19 13316.7 773.292   5
  -2   3  17 41478.3 1156.62   5
  -3   2  17 43951.8 1246.86   5
  -2  -3 -15 74602.9 1532.58   1
  -3   2  15 67518.1 1528.21   5
  -2   3  15 64893.3 1429.35   5
  -3  -2 -15 73775.3 1511.48   1
  -2  -3 -13 82231.6 1472.20   1
  -3  -2 -13 79026.3 1436.92   1
   3  -2  11 65076.9 1068.79   2
  -2  -3 -11 66079.6 1187.12   1
  -3  -2 -11 63012.2 1159.40   1
  -2  -3  -9 120914. 1421.94   1
   3  -2   9 118855. 1387.08   2
  -3  -2  -9 123481. 1455.68   1
   2  -3   9 126281. 1251.35   2
   2  -3   7 39479.0 652.182   2
  -2  -3  -7 39644.7 713.516   1
   3  -2   7 38884.0 743.720   2
  -3  -2  -7 40315.9 726.096   1
  -2  -3  -5 56294.9 742.697   1
   2  -3   5 55407.5 717.052   2
   3  -2   5 54183.6 801.916   2
   3  -2   3 691823. 2645.24   2
  -2  -3  -3 685389. 2218.21   1
   3   2  -3 693458. 2203.67   2
   2  -3   3 682697. 2335.02   2
   2  -3   1 31800.9 471.197   2
   3   2  -1 32105.2 561.081   2
  -3  -2  -1 32488.2 459.106   1
  -2  -3   1 32590.6 373.878   1
   3   2   1 33569.6 628.484   2
   3  -2  -1 32834.3 468.338   2
  -3   2  -3 684089. 2274.94   1
  -2   3  -3 682643. 1933.43   1
   2   3   5 59033.9 957.413   2
  -3   2  -5 57851.3 713.075   1
   3   2   5 58009.7 1054.54   2
  -2   3  -7 41328.4 625.802   1
   3   2   7 39015.6 988.623   2
  -3   2  -7 39604.2 669.025   1
   2   3   7 40417.4 919.504   2
  -2   3  -9 121242. 1219.24   1
   2   3   9 122948. 1851.38   2
  -3   2  -9 124451. 1355.48   1
   3   2  11 61668.6 1645.72   2
   2   3  11 60154.6 1488.47   2
  -2   3 -11 62597.0 992.610   1
  -3   2 -11 65261.2 1088.95   1
  -3  -2  13 87436.3 1722.01   5
  -2   3 -13 75816.9 1215.20   1
  -3   2 -13 80484.4 1356.63   1
   2  -3 -13 84492.7 1536.38   1
   2   3  13 72842.6 1904.65   2
  -2  -3  13 88738.1 1798.36   5
   3   2  13 77777.5 1907.65   2
   3  -2 -15 76625.0 1612.27   1
  -3  -2  15 73285.1 1658.01   5
  -2  -3  15 73582.0 1720.92   5
  -3  -2  17 48555.7 1367.18   5
  -2  -3  17 46606.5 1371.82   5
  -3  -2  19 12929.1 687.387   5
  -2  -3  19 13059.2 697.816   5
  -3  -2  21 26095.0 846.092   5
  -2  -3  21 25882.6 865.118   5
  -3  -2  23 19261.4 582.228   5
  -2  -3  23 18735.3 580.743   5
   3  -3  22 41578.0 1028.81   5
  -3   3  20 38852.7 1012.71   5
   3  -3  20 37751.0 1223.70   5
  -3   3  18 25122.9 894.218   5
  -3   3  16 93753.2 1744.73   5
  -3   3  14 38491.9 1079.09   5
  -3  -3 -14 42320.6 1123.55   1
  -3  -3 -12 76118.5 1358.22   1
   3   3 -12 69891.8 1123.68   1
  -3  -3 -10 98633.1 1414.33   1
   3  -3  10 98816.7 1259.16   2
  -3  -3  -8 195687. 1756.69   1
   3  -3   8 193729. 1651.82   2
  -3  -3  -6 107514. 1146.26   1
   3  -3   6 103510. 1132.20   2
  -3  -3  -4 439666. 2064.48   1
   3  -3   4 435041. 2148.59   2
   3   3  -4 438165. 1698.07   2
   3  -3   2 10348.4 313.462   2
  -3  -3  -2 9467.78 264.764   1
   3  -3   0 46520.4 620.380   2
  -3  -3   0 46810.5 557.050   1
   3   3   2 8907.48 374.507   2
  -3   3  -4 430212. 1896.69   1
   3   3   4 467878. 2834.88   2
  -3   3  -6 106255. 1010.28   1
   3   3   6 108309. 1526.08   2
  -3   3  -8 194882. 1531.12   1
   3   3   8 192947. 2372.00   2
  -3   3 -10 93595.7 1182.22   1
   3   3  10 93403.1 1885.02   2
  -3   3 -12 70228.4 1135.01   1
   3   3  12 71404.6 1906.65   2
   3  -3 -14 44888.4 1214.07   1
  -3  -3  14 42749.9 1249.77   5
  -3  -3  16 102839. 1993.53   5
  -3  -3  18 26026.0 993.040   5
  -3  -3  20 39105.6 1110.01   5
  -3  -3  22 40849.0 941.690   5
   4   0   0 201525. 1709.08   2
   0  -4   0 186655. 703.906   1
   4   0  -2 47802.0 603.168   2
   4   0   2 49701.5 987.904   2
  -4   0  -2 47691.2 659.314   1
   4   0   4 201103. 2179.51   2
  -4   0  -4 201605. 1410.85   1
   4   0  -4 201264. 915.377   2
   4   0   6 274114. 2763.89   2
  -4   0  -6 274930. 1800.71   1
   0   4  -8 119599. 964.754   1
   0  -4  -8 123441. 1365.09   1
   4   0   8 124280. 1958.66   2
   4   0  10 52335.4 1294.18   2
   0   4  10 51684.0 1166.85   2
  -4   0 -10 52400.3 998.234   1
   0  -4 -10 54935.5 1036.18   1
  -4   0 -12 15782.8 618.312   1
   0  -4 -12 16371.0 640.754   1
   4   0  12 17124.1 737.972   2
  -4   0  14 24343.1 915.197   5
  -4   0 -14 22490.5 800.290   1
   0  -4 -14 24766.2 865.858   1
   0  -4  16 5939.11 536.285   5
  -4   0 -16 6074.23 450.770   1
   4   0 -16 5997.73 467.017   1
  -4   0  16 5934.11 477.232   5
   0  -4  18 25655.3 1063.38   5
  -4   0  18 24544.3 939.114   5
   4   0  18 22870.7 991.699   5
   4   0  20 15026.4 694.671   5
   0  -4  20 16530.4 772.340   5
  -4   0  20 16878.4 713.347   5
   0  -4  22 12301.7 553.918   5
  -4   0  22 13475.3 538.112   5
   0  -4  24 8646.91 327.602   5
  -4   1  23 1326.45 146.572   5
   1  -4  23 1306.20 167.010   5
  -4   1  21 1634.57 219.460   5
   4  -1  21 1349.62 205.753   5
   1  -4  21 1513.21 234.260   5
   1  -4  19 2875.04 373.351   5
   4  -1  19 2768.71 357.438   5
  -4   1  19 3124.91 331.664   5
   1  -4  17 1559.85 290.066   5
  -4   1  17 1632.69 260.725   5
  -1  -4 -15 8463.46 532.519   1
  -4  -1 -15 8085.97 515.385   1
  -4   1  15 8101.62 538.204   5
   4   1 -15 7491.16 492.090   1
  -4   1  13 63.4602 91.2585   5
   4  -1  13 184.911 103.607   2
  -4  -1 -13 84.5202 98.9539   1
  -1  -4 -13 133.576 101.722   1
  -1   4  11 793.581 172.837   2
  -1  -4 -11 1497.61 191.805   1
  -4  -1 -11 981.993 169.308   1
   4  -1  11 1111.76 188.049   2
   4  -1   9 17797.2 656.207   2
   1  -4   9 17959.8 431.626   2
  -4  -1  -9 18277.3 570.518   1
  -1  -4  -9 17502.9 559.326   1
   1   4  -7 26258.9 400.796   1
  -1  -4  -7 26528.2 602.501   1
   1  -4   7 27308.3 509.161   2
   4  -1   7 26924.0 776.084   2
  -4  -1  -7 28614.1 636.995   1
   1  -4   5 11838.7 316.965   2
  -1  -4  -5 12352.2 351.059   1
   4  -1   5 13066.8 514.749   2
   1   4  -5 11023.9 181.652   1
  -4  -1  -5 13140.1 381.725   1
  -4  -1  -3 1039.51 110.627   1
   4  -1   3 1141.69 162.186   2
  -1  -4  -3 943.189 91.2045   1
   4   1  -3 1363.15 110.353   2
  -1  -4  -1 1458.23 86.3730   1
  -4  -1  -1 1600.13 131.129   1
   4  -1   1 1736.14 160.846   2
   4   1  -1 1889.55 202.811   2
  -4   1  -1 1567.43 134.270   1
   4   1   1 1438.31 211.303   2
   4  -1  -1 1533.86 128.060   2
  -4   1  -3 1331.61 124.625   1
   4   1   3 981.708 196.840   2
   4  -1  -3 1263.28 96.4840   2
  -1   4  -5 11102.4 214.394   1
   4   1   5 12242.4 590.072   2
  -4   1  -5 12165.9 363.630   1
   4   1   7 26968.7 957.317   2
  -1   4  -7 25929.4 418.728   1
  -4   1  -7 27467.7 597.747   1
  -1   4  -9 17486.4 416.563   1
  -4   1  -9 18740.5 557.809   1
   1   4   9 17339.8 670.657   2
   4   1   9 17228.3 826.178   2
  -4   1 -11 1301.79 171.530   1
   1   4  11 680.523 188.275   2
   1  -4 -11 1170.10 179.440   1
   4   1  11 1321.71 276.451   2
   4   1  13 141.288 147.830   2
  -4  -1  13 565.782 158.907   5
  -4   1 -13 251.321 114.115   1
  -4   1 -15 7902.70 484.036   1
   1  -4 -15 8693.93 547.677   1
  -4  -1  15 8460.37 561.513   5
   4  -1 -15 8408.16 550.645   1
  -1  -4  15 8491.61 609.880   5
  -4  -1  17 1352.81 240.796   5
   4   1  17 1136.64 232.038   5
  -1  -4  19 2838.40 346.978   5
  -4  -1  19 2700.09 312.571   5
  -1  -4  21 1269.05 208.872   5
  -4  -1  21 1115.33 192.604   5
  -4  -1  23 1452.80 162.002   5
  -1  -4  23 1342.61 164.876   5
   4  -2  22 9059.61 460.674   5
  -4   2  22 9574.57 429.890   5
   2  -4  22 9470.47 492.850   5
   2  -4  20 9957.21 625.546   5
  -4   2  20 10121.7 540.769   5
   4  -2  20 8892.49 592.964   5
  -4   2  18 13621.2 680.633   5
   2  -4  18 13648.1 810.468   5
  -2   4  16 267.030 103.845   5
  -4   2  16 159.575 112.799   5
  -2  -4 -14 12293.9 623.065   1
   4   2 -14 11429.8 545.742   1
  -4   2  14 11405.5 609.487   5
  -4  -2 -14 10765.8 573.170   1
  -2  -4 -12 19901.5 700.318   1
  -4  -2 -12 19401.2 704.226   1
   4  -2  12 19281.0 639.265   2
   2  -4  10 10838.8 387.479   2
  -4  -2 -10 10512.4 469.362   1
  -2  -4 -10 10589.3 474.159   1
   4  -2  10 10576.7 465.102   2
  -2  -4  -8 60367.4 968.525   1
  -4  -2  -8 61607.5 1004.35   1
   2  -4   8 61122.9 867.431   2
  -2  -4  -6 95579.6 1089.08   1
   4  -2   6 92303.2 1217.40   2
   2  -4   6 94746.9 1014.87   2
   4  -2   4 87126.9 1086.45   2
  -4  -2  -4 89222.6 951.831   1
   2  -4   4 85397.1 906.242   2
  -2  -4  -4 86114.4 906.024   1
  -4  -2  -2 7913.04 270.946   1
   4   2  -2 8267.58 347.332   2
   4  -2   2 8021.26 307.884   2
   2  -4   2 7540.25 263.082   2
   4   2   0 22960.0 627.873   2
  -4  -2   0 25301.4 471.169   1
  -2  -4   0 23626.8 331.068   1
   4  -2   0 25473.7 487.447   2
   4   2   2 8064.68 404.109   2
   4  -2  -2 7940.85 258.943   2
  -4   2  -2 7749.58 280.938   1
  -4   2  -4 92700.2 980.744   1
   4   2   4 91392.3 1428.63   2
   2   4   6 99850.9 1424.82   2
   4   2   6 97313.7 1656.57   2
  -4   2  -6 94742.5 1071.79   1
  -2   4  -8 57136.2 736.783   1
  -4   2  -8 60793.4 939.166   1
   2   4   8 61901.4 1273.48   2
   4   2   8 59094.6 1468.52   2
   2   4  10 10885.2 620.947   2
   4   2  10 10562.8 711.177   2
  -4   2 -10 10608.5 437.968   1
   4   2  12 19044.7 992.366   2
   2   4  12 18183.6 911.275   2
  -4   2 -12 19857.8 657.498   1
   2  -4 -14 11835.2 629.934   1
  -2  -4  14 11061.0 678.434   5
  -4   2 -14 10447.4 523.477   1
  -4  -2  14 11065.5 628.016   5
  -4  -2  16 259.334 149.592   5
  -2  -4  16 175.189 125.984   5
  -2  -4  18 14505.4 753.420   5
  -4  -2  18 13085.9 694.648   5
  -4  -2  20 9583.12 535.004   5
  -2  -4  20 10101.9 575.018   5
  -4  -2  22 9446.99 448.891   5
  -2  -4  22 9183.46 452.030   5
   4  -3  23 11599.0 428.513   5
   3  -4  23 11840.5 454.212   5
   4  -3  21 11749.7 609.399   5
  -4   3  21 12125.5 515.196   5
   3  -4  21 11913.8 618.168   5
  -3   4  19 19157.9 709.892   5
  -4   3  19 22500.7 819.896   5
   4  -3  19 20944.4 971.099   5
   3  -4  19 20412.4 962.121   5
  -3   4  17 12467.8 617.468   5
  -4   3  17 13196.6 670.351   5
  -4   3  15 13369.9 665.799   5
  -3  -4 -15 16162.6 734.041   1
  -4  -3 -15 15124.3 715.696   1
  -3   4  15 12914.6 622.007   5
  -3  -4 -13 6321.27 423.746   1
  -4   3  13 5328.27 404.423   5
  -4  -3 -13 6359.72 435.044   1
  -3   4  13 5226.36 376.288   5
  -4  -3 -11 26066.0 781.027   1
  -3  -4 -11 26512.3 788.617   1
   4  -3  11 25951.2 718.335   2
   3  -4  11 26474.7 675.335   2
   4  -3   9 56435.9 994.139   2
  -4  -3  -9 59213.6 1055.91   1
  -3  -4  -9 59167.9 1060.47   1
   3  -4   9 59253.4 958.334   2
  -3  -4  -7 131870. 1414.50   1
   3  -4   7 133455. 1359.85   2
   4  -3   7 130490. 1427.65   2
  -4  -3  -5 176324. 1475.61   1
   3  -4   5 175573. 1458.69   2
  -3  -4  -5 174099. 1416.26   1
  -3  -4  -3 5985.49 235.226   1
   3  -4   3 5759.69 256.991   2
   4   3  -3 5495.38 262.674   2
   4  -3   3 5990.88 273.052   2
  -4  -3  -3 5557.69 237.995   1
  -3  -4  -1 4429.48 180.621   1
  -4  -3  -1 4501.61 205.425   1
   4   3  -1 4783.64 266.740   2
   4  -3   1 4823.05 236.768   2
   3  -4   1 4801.19 226.314   2
   4   3   1 4788.33 297.855   2
   4  -3  -1 4676.09 220.151   2
  -4   3  -3 5413.00 240.041   1
   4   3   3 6012.56 359.270   2
   4   3   5 182005. 2138.98   2
   3   4   5 186416. 1976.13   2
   3   4   7 138069. 1929.95   2
   4   3   7 134010. 2066.85   2
  -4   3  -7 136276. 1352.54   1
   4   3   9 54819.4 1463.13   2
  -4   3  -9 56894.1 931.660   1
   3   4   9 58194.2 1419.39   2
  -3   4  -9 55809.9 838.035   1
   4   3  11 23650.8 1133.52   2
   3   4  11 25090.0 1085.26   2
  -4   3 -11 25001.3 686.072   1
  -4  -3  13 7077.64 494.279   5
  -3  -4  13 6012.02 471.507   5
   3   4  13 6201.92 660.540   2
  -4  -3  15 15270.1 753.458   5
   3  -4 -15 16369.0 770.694   1
   4  -3 -15 16302.2 789.353   1
  -3  -4  15 15156.9 774.678   5
  -3  -4  17 13370.7 716.678   5
  -4  -3  17 13624.0 709.708   5
  -4  -3  19 22453.4 858.865   5
  -3  -4  19 21510.5 854.247   5
  -3  -4  21 11603.1 544.984   5
  -4  -3  21 11908.5 544.706   5
  -4  -3  23 12133.5 429.581   5
  -3  -4  23 12232.8 432.930   5
   4  -4  22 66.7313 84.0373   5
   4  -4  20 36.5663 139.127   5
  -4   4  20 77.7126 83.3196   5
  -4   4  18 285.865 115.743   5
  -4   4  16 21696.2 832.851   5
  -4  -4 -14 1226.88 209.994   1
  -4   4  14 636.453 151.751   5
  -4  -4 -12 1166.14 192.567   1
  -4   4  12 567.343 127.904   5
   4  -4  10 2660.96 238.336   2
  -4  -4 -10 2164.23 239.885   1
  -4  -4  -8 14650.0 514.999   1
   4  -4   8 14172.0 495.488   2
  -4  -4  -6 13273.2 440.745   1
   4  -4   6 12655.7 440.709   2
   4   4  -4 530.952 94.2282   2
   4  -4   4 736.655 117.215   2
  -4  -4  -4 575.184 95.1756   1
   4   4  -2 6127.20 299.054   2
  -4  -4  -2 6138.20 249.377   1
   4  -4   2 6346.39 287.423   2
   4  -4   0 74546.3 934.773   2
  -4  -4   0 72822.3 808.255   1
   4   4   2 6202.93 362.881   2
   4   4   4 500.470 153.439   2
   4   4   6 12885.1 629.206   2
  -4   4  -6 12010.3 384.315   1
   4   4   8 14001.4 729.022   2
  -4   4  -8 13672.0 435.457   1
   4   4  10 2515.49 387.176   2
  -4   4 -10 2375.85 208.854   1
   4   4  12 1921.91 445.468   2
  -4  -4  12 1150.29 216.318   5
   4   4  14 676.789 402.478   2
  -4  -4  14 733.172 187.697   5
  -4  -4  16 22585.2 906.455   5
  -4  -4  18-34.3778 126.618   5
  -4  -4  20 113.710 96.0415   5
  -4  -4  22 121.436 72.5844   5
   5   0   1 587197. 3394.24   2
   5   0  -1 582467. 2722.45   2
  -5   0  -3 114588. 1166.77   1
   5   0  -3 113929. 946.740   2
   5   0   3 115371. 1685.76   2
   0  -5  -5 504468. 2321.81   1
   5   0   5 510502. 3908.18   2
  -5   0  -7 332640. 2263.84   1
   0  -5  -7 331097. 2151.16   1
   5   0   7 338048. 3309.16   2
  -5   0  -9 146855. 1664.50   1
   0  -5  -9 149862. 1652.55   1
  -5   0 -11 180623. 2024.62   1
   5   0  11 176206. 2456.37   2
   0   5  11 174586. 2432.89   2
   0  -5 -13 236469. 2566.15   1
  -5   0 -13 228373. 2482.97   1
   5   0  13 229195. 2737.66   2
  -5   0  13 240747. 2776.01   5
   0  -5 -15 49968.8 1304.42   1
  -5   0  15 48572.4 1317.64   5
  -5   0 -15 45864.5 1195.76   1
  -5   0  17 66760.7 1533.88   5
   0  -5  17 65371.7 1729.48   5
   0  -5  19 88346.8 1854.77   5
  -5   0  19 89574.7 1681.65   5
  -5   0  21 36397.2 941.249   5
   0  -5  21 34439.6 997.201   5
  -5   0  23 27304.2 631.494   5
   0  -5  23 26110.3 660.286   5
   1  -5  22 10351.3 492.556   5
  -5   1  22 11368.8 468.726   5
  -5   1  20 17409.5 700.015   5
   1  -5  20 16139.5 756.583   5
   5  -1  20 15230.5 717.669   5
   1  -5  18 38428.6 1316.08   5
  -5   1  18 39385.4 1152.29   5
  -5   1  16 38031.9 1162.89   5
  -5   1  14 83408.4 1674.72   5
  -1  -5 -14 87737.7 1641.10   1
  -5  -1 -14 84185.2 1586.12   1
  -5   1  12 88455.3 1615.64   5
  -5  -1 -12 81801.5 1442.95   1
   5  -1  12 83514.8 1497.93   2
  -1  -5 -12 89811.7 1502.65   1
   5  -1  10 74340.0 1419.23   2
  -5  -1 -10 73506.0 1228.05   1
  -1  -5 -10 75744.9 1235.63   1
   5  -1   8 66557.5 1327.94   2
  -5  -1  -8 69419.8 1092.04   1
  -1  -5  -8 69517.0 1078.85   1
  -1  -5  -6 112753. 1194.45   1
   5  -1   6 115794. 1653.60   2
  -5  -1  -6 114276. 1291.38   1
  -1  -5  -4 54060.7 723.538   1
  -5  -1  -4 54690.2 832.830   1
   5  -1   4 56073.9 1068.05   2
  -5  -1  -2 279460. 1830.14   1
   5  -1   2 283762. 2215.69   2
   5   1  -2 279766. 2005.82   2
   5   1   0 211844. 2160.35   2
   5  -1   0 207838. 1575.61   2
   5  -1  -2 287597. 1632.11   2
  -5   1  -2 291109. 1876.40   1
   5   1   2 293570. 2799.95   2
   5   1   4 53886.3 1306.01   2
   5  -1  -4 52610.0 626.209   2
  -5   1  -4 53364.7 838.220   1
  -5   1  -6 115394. 1305.14   1
   5   1   6 115435. 2041.87   2
   5   1   8 68492.1 1679.66   2
  -5   1  -8 69468.1 1080.58   1
   1   5  10 74329.0 1571.54   2
   5   1  10 71758.0 1788.41   2
  -5   1 -10 74617.4 1242.23   1
   1  -5 -10 76227.2 1270.55   1
   1   5  12 82271.1 1889.06   2
   5   1  12 87346.6 1956.11   2
  -5   1 -12 84566.5 1441.50   1
  -5  -1  12 94240.8 1684.52   5
   1  -5 -12 91366.6 1576.97   1
  -5   1 -14 78750.6 1483.53   1
  -5  -1  14 84560.9 1709.57   5
  -1  -5  14 86036.5 1885.12   5
   1  -5 -14 88699.5 1684.82   1
   5   1  14 81586.5 1784.18   2
  -1  -5  16 39349.4 1313.74   5
  -5  -1  16 38592.2 1180.93   5
  -5  -1  18 38625.6 1145.84   5
  -1  -5  18 39129.9 1245.05   5
  -5  -1  20 16153.7 679.631   5
  -1  -5  20 15769.5 717.698   5
  -5  -1  22 11676.9 480.672   5
  -1  -5  22 10913.0 489.591   5
   2  -5  23 175.620 74.4751   5
  -5   2  21 121.265 88.3345   5
   5  -2  21 218.118 107.634   5
   2  -5  21 90.2845 109.539   5
   5  -2  19 2949.85 372.101   5
  -5   2  19 4056.14 363.333   5
   2  -5  19 3328.08 396.882   5
  -5   2  17 12165.0 661.079   5
  -5   2  15 42800.5 1208.51   5
  -2  -5 -15 45017.0 1223.42   1
  -5  -2 -15 43234.8 1190.91   1
  -5  -2 -13 2646.66 286.660   1
   5  -2  13 2860.81 274.793   2
  -2  -5 -13 2527.48 283.194   1
  -5   2  13 2625.35 301.405   5
   5  -2  11 15917.4 617.753   2
  -2  -5 -11 16349.2 620.494   1
  -5  -2 -11 15610.6 615.006   1
   2  -5   9 3928.06 240.603   2
   5  -2   9 3533.40 284.796   2
  -2  -5  -9 4173.94 294.997   1
   2  -5   7 16211.9 459.675   2
  -2  -5  -7 17474.0 517.080   1
  -5  -2  -7 17117.8 528.223   1
   5  -2   7 16742.0 574.997   2
   5  -2   5 2874.09 238.450   2
  -5  -2  -5 2242.30 183.836   1
  -2  -5  -5 2609.73 186.902   1
   2  -5   5 2136.35 166.059   2
  -5  -2  -3 30085.1 605.189   1
   5   2  -3 29014.0 676.226   2
  -2  -5  -3 29290.3 501.763   1
   5  -2   3 30341.9 680.712   2
   5   2  -1 116533. 1606.81   2
  -2  -5  -1 115749. 818.690   1
   5   2   1 122405. 1751.93   2
   5  -2  -1 122136. 1152.49   2
   5  -2  -3 30489.4 538.166   2
   5   2   3 29802.2 942.198   2
  -5   2  -3 29834.0 625.531   1
   5   2   5 2204.13 301.529   2
  -5   2  -5 2646.34 201.739   1
   2   5   7 17287.1 664.473   2
  -5   2  -7 17302.1 530.239   1
   5   2   7 16017.0 815.714   2
  -5   2  -9 4302.38 285.688   1
   2   5   9 4042.65 379.948   2
   5   2   9 3560.21 442.735   2
   2   5  11 16048.4 841.559   2
   5   2  11 14375.2 892.796   2
  -5   2 -11 15294.7 578.991   1
  -2  -5  13 3135.44 357.687   5
   2  -5 -13 3058.55 322.947   1
  -5  -2  13 2960.74 327.175   5
   5   2  13 2019.54 396.478   2
   2   5  13 1772.70 361.624   2
  -5   2 -13 2471.81 257.615   1
  -2  -5  15 45817.7 1374.43   5
   2  -5 -15 48341.7 1325.15   1
  -2  -5  17 12638.8 719.157   5
  -5  -2  17 12086.7 658.307   5
  -2  -5  19 3605.96 362.096   5
  -5  -2  19 3538.07 348.747   5
  -5  -2  21 42.0374 80.2339   5
  -2  -5  21 114.416 86.0361   5
  -2  -5  23 180.859 71.4824   5
  -5  -2  23 227.706 78.8852   5
   3  -5  22 68.3996 85.0249   5
   5  -3  22 99.7874 92.9347   5
   5  -3  20 1119.35 228.010   5
  -5   3  20 1360.55 202.875   5
   3  -5  20 1348.04 248.732   5
  -5   3  18 7956.64 508.543   5
  -5   3  16 29328.8 1003.56   5
  -5   3  14 246.291 130.899   5
  -5  -3 -14 490.232 150.740   1
  -3  -5 -12 6454.37 420.605   1
   5  -3  12 6516.64 403.179   2
  -5  -3 -12 6182.15 419.099   1
  -5   3  12 6010.97 426.744   5
  -3  -5 -10 767.881 153.258   1
   3  -5  10 694.940 132.643   2
   5  -3  10 880.730 156.334   2
   3  -5   8 1396.20 155.430   2
  -5  -3  -8 1370.68 172.747   1
  -3  -5  -8 1322.73 168.130   1
   3  -5   6 44466.6 795.898   2
  -3  -5  -6 44614.3 807.081   1
  -5  -3  -6 45458.3 840.527   1
   5  -3   6 43812.3 865.967   2
   3  -5   4 28832.8 623.230   2
   5  -3   4 29555.9 674.633   2
  -5  -3  -4 29593.0 619.003   1
  -3  -5  -4 29707.1 579.155   1
   5   3  -2 3788.73 285.535   2
  -5  -3  -2 3331.56 202.879   1
  -3  -5  -2 3446.52 175.651   1
   5  -3   2 3433.32 225.640   2
   3  -5   2 3421.11 208.691   2
  -3  -5   0 34003.6 497.691   1
  -5  -3   0 33916.1 624.787   1
   5  -3   0 33554.9 645.007   2
   5  -3  -2 3489.35 206.533   2
   5   3   2 3623.85 320.301   2
  -5   3  -4 29496.5 633.796   1
   5   3   4 30142.4 942.417   2
   5   3   6 45688.7 1277.04   2
   3   5   6 47342.1 1113.18   2
  -5   3  -6 47032.2 855.234   1
   3   5   8 1475.25 265.043   2
  -5   3  -8 1179.37 156.781   1
   5   3   8 1131.09 288.571   2
   5   3  10 688.797 290.576   2
  -5   3 -10 907.361 152.745   1
   3   5  10 651.170 214.977   2
  -3  -5  12 7445.58 512.527   5
   5   3  12 5883.42 660.920   2
  -5  -3  12 6912.54 465.915   5
  -5   3 -12 5686.34 369.568   1
   3   5  12 6082.88 607.900   2
   3  -5 -14 899.169 207.995   1
  -5  -3  14 594.486 170.392   5
   5   3  14 654.690 328.230   2
  -3  -5  14 432.351 155.019   5
  -5  -3  16 30575.2 1042.40   5
  -3  -5  16 29362.6 1055.44   5
  -3  -5  18 7447.87 517.265   5
  -5  -3  18 7245.76 490.358   5
  -3  -5  20 1309.20 211.052   5
  -5  -3  20 1560.78 217.576   5
  -3  -5  22-40.2258 60.4254   5
  -5  -3  22 86.2876 69.8250   5
   4  -5  21 13807.2 632.086   5
   5  -4  21 13486.0 624.743   5
  -5   4  19 17549.9 687.066   5
   4  -5  19 15298.0 818.840   5
  -4   5  17 1929.70 246.923   5
  -5   4  17 2242.58 285.368   5
  -4   5  15 2682.32 296.132   5
  -5   4  15 2648.60 299.872   5
  -4  -5 -13 15189.2 675.245   1
  -5  -4 -13 14657.4 670.690   1
  -5   4  13 13381.5 643.484   5
  -5  -4 -11 33587.4 934.893   1
   5  -4  11 30425.5 1184.99   7
   4  -5  11 32671.6 1218.34   7
   4  -5  11 33757.6 839.132   2
   5  -4  11 33253.5 871.026   2
  -4  -5 -11 36094.7 962.205   1
  -5   4  11 30481.8 899.219   5
   5  -4   9 15022.7 566.348   2
  -5  -4  -9 14880.3 566.586   1
  -4  -5  -9 14864.6 570.226   1
   4  -5   9 14091.0 522.115   2
   5  -4   7 54840.5 1016.78   2
  -5  -4  -7 52541.1 965.012   1
  -4  -5  -7 55956.2 990.000   1
   4  -5   7 54210.2 972.438   2
  -4  -5  -5 139768. 1377.74   1
  -5  -4  -5 140558. 1444.86   1
   5  -4   5 138763. 1561.13   2
   4  -5   5 141692. 1484.17   2
  -5  -4  -3 18531.6 497.719   1
  -4  -5  -3 18508.4 456.632   1
   5  -4   3 18841.2 542.546   2
   5   4  -3 16502.1 547.925   2
   4  -5   3 18390.6 517.668   2
   4   5  -3 15912.5 485.362   2
  -4  -5  -1 1252.98 121.051   1
   4  -5   1 1384.12 147.362   2
   5   4  -1 1100.70 179.250   2
   5  -4   1 1602.08 164.188   2
  -5  -4  -1 1255.88 136.620   1
   5  -4  -1 1348.93 146.246   2
   4   5   1 1406.01 189.201   2
   5   4   1 1284.86 214.448   2
   5   4   3 17604.5 722.488   2
   4   5   3 18180.2 654.646   2
   5   4   5 148409. 2206.02   2
   4   5   5 152252. 2082.24   2
  -5   4  -7 53549.2 925.153   1
   4   5   7 54078.1 1376.58   2
   5   4   7 55392.7 1500.59   2
   4   5   9 14527.7 836.453   2
   5   4   9 13252.9 837.855   2
  -5   4  -9 14109.6 514.160   1
  -5  -4  11 35924.2 1014.98   5
   4   5  11 33336.7 1389.25   2
   5   4  11 33516.5 1484.68   2
  -4  -5  11 35087.5 1039.41   5
   4   5  13 12790.3 992.806   2
   5   4  13 12403.3 1007.37   2
  -5  -4  13 14736.6 699.136   5
  -4  -5  13 14608.1 709.386   5
  -4  -5  15 2811.83 331.428   5
  -5  -4  15 2978.27 333.165   5
  -5  -4  17 1926.77 278.213   5
  -4  -5  17 2046.24 283.443   5
  -4  -5  19 15762.0 683.006   5
  -5  -4  19 15733.5 665.869   5
  -5  -4  21 13651.5 533.049   5
  -4  -5  21 13690.6 537.160   5
  -5  -4  23 4832.17 236.877   5
   5  -5  22 35899.2 812.500   5
   5  -5  20 75208.8 1615.16   5
  -5   5  18 75185.2 1412.93   5
  -5   5  16 1960.71 255.086   5
  -5   5  14 29384.7 958.153   5
   5  -5  12 71792.3 1940.11   7
  -5   5  12 71338.2 1418.74   5
   5  -5  10 94156.6 2092.28   7
  -5  -5 -10 99115.7 1555.09   1
   5  -5  10 97243.8 1478.83   2
   5  -5   8 210128. 2067.87   2
  -5  -5  -8 211006. 2059.64   1
   5  -5   6 727286. 3681.86   2
  -5  -5  -6 762060. 3669.19   1
   5  -5   4 114479. 1403.12   2
  -5  -5  -4 111163. 1275.49   1
  -5  -5  -2 52482.8 822.804   1
   5  -5   2 53023.2 924.560   2
   5   5   0 50032.9 1092.46   2
   5  -5   0 52167.5 890.493   2
   5   5   2 52796.3 1200.72   2
   5   5   4 110975. 1840.34   2
   5   5   6 734324. 5342.34   2
   5   5   8 210086. 3091.31   2
   5   5  10 95156.1 2348.41   2
  -5  -5  12 78643.2 1562.42   5
   5   5  12 75257.3 2352.96   2
  -5  -5  14 31873.6 1035.24   5
   5   5  14 27998.2 1517.09   2
  -5  -5  16 2119.21 284.995   5
  -5  -5  18 77848.8 1513.03   5
  -5  -5  20 79356.7 1333.21   5
  -5  -5  22 38462.7 731.005   5
   6   0   0 652216. 3390.33   2
   6   0   2 184582. 2143.49   2
   6   0  -2 183419. 1496.13   2
   0  -6  -2 173825. 1104.62   1
  -6   0  -2 174440. 1623.62   1
   0  -6  -4 416800. 2069.73   1
   6   0   4 419852. 3531.43   2
   6   0  -4 427842. 1896.23   2
  -6   0  -4 433776. 2591.31   1
  -6   0  -6 342805. 2435.77   1
   6   0   6 335561. 3330.08   2
   0  -6  -6 338635. 2155.21   1
  -6   0  -8 252547. 2257.68   1
   6   0   8 243649. 2993.54   2
   0   6  10 161172. 2324.41   2
   6   0  10 159665. 2426.95   2
   0  -6 -10 164537. 1905.29   1
  -6   0  12 299979. 3013.86   5
   6   0  12 283500. 3167.47   2
   0   6  12 271605. 3376.46   2
  -6   0 -12 281205. 2739.06   1
   0  -6 -12 292304. 2808.81   1
  -6   0 -14 57619.2 1333.91   1
  -6   0  14 59531.9 1422.56   5
   0  -6  16 67438.7 1752.45   5
  -6   0  16 65332.7 1522.47   5
   0  -6  18 59170.6 1573.51   5
  -6   0  18 59150.1 1387.89   5
  -6   0  20 87185.3 1522.98   5
   0  -6  20 84130.5 1614.71   5
   0  -6  22 34049.9 821.860   5
  -6   0  22 36277.5 796.949   5
  -6   1  23 11809.9 400.286   3
   1  -6  23 10815.8 391.534   5
   1  -6  21 23452.1 790.940   5
  -6   1  21 24522.7 734.011   5
  -6   1  19 29850.3 943.850   5
   1  -6  19 29272.3 1066.16   5
  -6   1  17 31726.7 1046.72   5
   1  -6  17 30828.3 1196.14   5
  -6   1  15 39801.8 1184.68   5
  -6   1  13 102287. 1814.54   5
   6  -1  13 97979.0 1735.06   2
  -6  -1 -13 98177.2 1698.27   1
  -1   6  11 82002.9 1687.63   2
  -1  -6 -11 88545.1 1460.08   1
  -6   1  11 86885.3 1567.68   5
   6  -1  11 82971.0 1566.02   2
  -6  -1 -11 85569.1 1471.74   1
  -1  -6  -9 101768. 1433.58   1
   6  -1   9 101746. 1711.53   2
  -6  -1  -9 102594. 1471.84   1
  -1  -6  -7 92232.6 1203.30   1
  -6  -1  -7 92976.1 1297.29   1
   6  -1   7 93575.4 1586.59   2
  -6  -1  -5 75902.0 1126.30   1
  -1  -6  -5 77894.4 989.533   1
  -1  -6  -3 218963. 1409.45   1
  -6  -1  -3 214598. 1807.36   1
   6   1  -3 215583. 1555.62   2
  -6  -1  -1 158687. 1512.22   1
  -1  -6  -1 153806. 887.768   1
   6  -1   1 161155. 1651.09   2
   6   1  -1 153426. 1781.25   2
   6   1   1 161220. 2165.04   2
   6  -1  -1 156502. 1443.66   2
   6   1   3 215582. 2689.35   2
  -6   1  -3 212058. 1799.62   1
   6  -1  -3 216749. 1523.51   2
  -6   1  -5 83388.0 1176.21   1
   6   1   5 77211.3 1723.17   2
  -6   1  -7 93904.9 1332.51   1
   6   1   7 88280.0 1939.47   2
   1   6   9 102723. 1841.69   2
  -6   1  -9 102013. 1505.26   1
   1  -6  -9 103769. 1433.87   1
   6   1   9 100616. 2150.40   2
   1   6  11 83322.5 1893.86   2
  -6   1 -11 84428.5 1451.05   1
  -6  -1  11 88558.9 1575.60   5
   6   1  11 84597.2 1974.60   2
   1  -6 -11 89146.0 1509.64   1
   1  -6 -13 107117. 1800.61   1
  -6  -1  13 104462. 1834.98   5
   6   1  13 97564.2 2037.96   2
  -6   1 -13 96976.2 1686.85   1
  -6  -1  15 40265.3 1179.11   5
  -1  -6  15 41919.5 1359.07   5
  -1  -6  17 30797.1 1141.66   5
  -6  -1  17 30110.4 1011.04   5
  -1  -6  19 28877.0 989.588   5
  -6  -1  19 29711.2 948.952   5
  -1  -6  21 23340.2 753.101   5
  -6  -1  21 24419.3 735.218   5
  -6  -1  23 11498.9 390.218   3
  -6  -1  23 11476.7 379.863   5
  -1  -6  23 10858.9 374.093   5
   2  -6  22 220.899 97.9469   5
   2  -6  20 1143.42 215.952   5
   6  -2  20 1124.42 204.176   5
  -6   2  20 1145.92 183.393   5
  -6   2  18 3353.02 339.054   5
   2  -6  18 2311.03 344.213   5
  -6   2  16 4821.02 420.910   5
  -2  -6 -14 53473.1 1313.04   1
  -6  -2 -14 50958.1 1276.21   1
  -6   2  14 51712.9 1321.64   5
  -6  -2 -12 1397.59 219.338   1
  -6   2  12 1263.62 210.978   5
  -2  -6 -12 1333.16 208.815   1
   6  -2  12 1300.98 202.009   2
  -6  -2 -10 18034.5 660.437   1
   6  -2  10 17279.8 672.481   2
  -2  -6 -10 16977.3 632.340   1
   6  -2   8 492.670 129.529   2
  -6  -2  -8 696.104 150.919   1
  -2  -6  -8 268.276 88.0302   1
   6  -2   6 2979.78 262.333   2
  -6  -2  -6 3309.08 249.383   1
  -2  -6  -6 3265.92 224.681   1
  -2  -6  -4 17296.2 440.147   1
   6  -2   4 17816.4 586.534   2
  -6  -2  -4 17208.4 518.011   1
   6   2  -4 16108.7 398.813   2
   6   2  -2 70732.3 1262.18   2
  -2  -6  -2 72241.7 750.313   1
   6  -2   2 71283.9 1077.38   2
  -6  -2  -2 72170.2 1021.99   1
   6   2   0 57792.1 1333.48   2
  -2  -6   0 59851.4 528.165   1
   6  -2  -2 72261.3 941.195   2
   6   2   2 70129.1 1559.13   2
   6   2   4 16829.6 826.599   2
   6  -2  -4 16590.7 422.165   2
  -6   2  -4 18233.9 544.849   1
   6   2   6 2563.97 395.085   2
  -6   2  -6 3908.73 277.719   1
   2   6   8 124.279 138.806   2
   6   2   8 500.535 255.349   2
  -6   2 -10 17508.7 643.412   1
   2   6  10 17503.7 866.573   2
   6   2  10 16617.7 976.351   2
   2  -6 -12 1212.87 200.577   1
  -6  -2  12 1383.29 228.079   5
   2   6  12 1557.99 349.871   2
   6   2  12 1514.05 346.553   2
  -2  -6  12 1271.58 237.295   5
  -6   2 -12 1184.71 200.414   1
  -6   2 -14 51090.7 1233.64   1
   6   2  14 51379.3 1615.26   2
  -2  -6  14 56138.6 1504.12   5
   2  -6 -14 56380.0 1386.02   1
  -6  -2  14 52538.6 1326.86   5
  -6  -2  16 5189.37 429.323   5
  -2  -6  16 4888.81 453.442   5
  -6  -2  18 3046.66 322.780   5
  -2  -6  18 2475.98 316.711   5
  -6  -2  20 1028.63 175.067   5
  -2  -6  20 1555.02 220.630   5
  -6  -2  22 161.057 80.4802   5
  -2  -6  22 207.335 78.1231   5
   3  -6  21 1424.23 211.841   5
   6  -3  21 1763.45 221.520   5
   3  -6  19 1863.14 300.644   5
  -6   3  19 2001.04 250.255   5
  -6   3  17 431.744 156.138   5
  -6   3  15 25355.3 937.393   5
  -6   3  13 471.778 145.668   5
  -3  -6 -13 49.5365 84.3520   1
  -6  -3 -13-223.558 123.906   1
   6  -3  13 590.359 162.917   2
   3  -6  11 2272.09 351.921   7
   6  -3  11 2330.36 330.162   7
  -3  -6 -11 2338.31 259.895   1
  -6  -3 -11 2511.19 268.020   1
  -6   3  11 2321.79 269.564   5
   6  -3  11 2237.84 244.008   2
   3  -6   9 2175.43 212.221   2
   6  -3   9 2193.36 234.474   2
  -6  -3  -9 1910.33 223.785   1
  -3  -6  -9 1891.43 207.546   1
   3  -6   7 4154.67 272.183   2
   6  -3   7 3598.81 293.830   2
  -6  -3  -7 3626.67 272.840   1
  -3  -6  -7 4161.78 276.787   1
   3  -6   5 4039.23 260.196   2
  -6  -3  -5 3846.57 260.981   1
   6  -3   5 3704.25 272.205   2
  -3  -6  -5 4097.83 246.996   1
   6  -3   3 36239.6 792.940   2
  -3  -6  -3 35072.9 600.659   1
  -6  -3  -3 35249.9 727.212   1
  -6  -3  -1 27843.0 627.783   1
   6   3  -1 26407.2 879.797   2
  -3  -6  -1 27154.5 465.541   1
   6  -3   1 28453.3 672.474   2
   6  -3  -1 29218.7 642.109   2
   6   3   1 27684.8 943.180   2
   6  -3  -3 36140.8 680.339   2
   6   3   3 34616.6 1133.96   2
   6   3   5 4183.57 446.453   2
  -6   3  -5 4354.58 283.957   1
   3   6   7 3927.48 384.196   2
  -6   3  -7 4002.06 294.989   1
   6   3   7 3775.34 484.156   2
   6   3   9 1952.48 415.448   2
   3   6   9 1580.92 294.632   2
  -6   3  -9 2248.46 239.027   1
  -6  -3  11 2343.17 264.855   5
   3   6  11 2471.93 411.229   2
   6   3  11 1926.25 433.555   2
  -6   3 -11 2181.55 240.590   1
  -3  -6  11 2465.55 299.526   5
   3  -6 -13 121.075 96.9214   1
  -6  -3  13 150.390 111.615   5
  -3  -6  13 66.1656 117.805   5
   6   3  13 238.799 267.184   2
  -3  -6  15 26395.4 996.636   5
  -6  -3  15 25234.3 930.387   5
  -6  -3  17 515.017 168.617   5
  -3  -6  17 623.715 180.520   5
  -3  -6  19 2038.57 258.829   5
  -6  -3  19 1929.95 251.678   5
  -3  -6  21 1625.00 191.264   5
  -6  -3  21 1814.63 199.944   5
   4  -6  22 4730.00 297.156   5
   6  -4  22 4355.59 269.080   5
  -6   4  22 4996.30 261.738   3
   6  -4  20 11085.4 611.239   5
   4  -6  20 11356.5 625.044   5
  -6   4  18 6949.00 455.928   5
  -6   4  16 21125.5 844.086   5
  -6   4  14 6081.41 458.695   5
  -6  -4 -12 6077.04 435.207   1
   4  -6  12 6551.92 586.892   7
   6  -4  12 6497.68 421.246   2
  -4  -6 -12 7478.41 472.747   1
  -6   4  12 6354.15 453.073   5
   6  -4  10 35573.5 939.152   2
   4  -6  10 35776.3 868.564   2
  -6   4  10 33722.9 972.298   5
  -6  -4 -10 35311.2 954.758   1
  -4  -6 -10 35967.0 951.635   1
   6  -4  10 33069.7 1234.49   7
   4  -6  10 35448.5 1273.61   7
   4  -6   8 63449.8 1114.34   2
  -4  -6  -8 66594.2 1183.58   1
  -6  -4  -8 62825.2 1160.87   1
   6  -4   8 63520.2 1191.43   2
   4  -6   6 90802.3 1280.49   2
   6  -4   6 93593.3 1394.23   2
  -6  -4  -6 94590.5 1329.47   1
   4  -6   4 73176.2 1098.03   2
  -6  -4  -4 73436.7 1112.80   1
  -4  -6  -4 76085.6 1014.23   1
   6  -4   4 76060.2 1196.25   2
  -6  -4  -2 18695.7 543.783   1
  -4  -6  -2 18381.8 458.494   1
   6  -4   2 18345.5 561.971   2
   6  -4   0 18012.6 535.305   2
   6   4   0 17507.6 726.296   2
  -4  -6   0 18548.9 418.087   1
   6  -4  -2 17975.6 519.718   2
   4   6   2 18441.7 662.584   2
   6   4   2 17912.8 762.936   2
   6   4   4 74701.0 1671.31   2
   4   6   4 73270.2 1456.15   2
   4   6   6 97759.5 1835.93   2
   6   4   6 93234.5 2034.84   2
  -6   4  -8 61059.5 1092.22   1
   4   6   8 61784.8 1598.63   2
   6   4   8 64252.2 1875.14   2
  -6  -4  10 37187.8 985.132   5
   6   4  10 34671.1 1543.04   2
  -6   4 -10 33876.5 860.817   1
   4   6  10 36614.8 1401.98   2
  -6  -4  12 6649.27 459.896   5
   6   4  12 6432.04 754.578   2
   4   6  12 6015.50 651.634   2
  -4  -6  12 7366.28 505.527   5
  -4  -6  14 6621.00 488.690   5
  -6  -4  14 6368.54 466.752   5
  -4  -6  16 21199.2 862.954   5
  -6  -4  16 20526.2 815.779   5
  -4  -6  18 5753.42 419.119   5
  -6  -4  18 6562.72 443.053   5
  -4  -6  20 11490.9 508.061   5
  -6  -4  20 11891.9 517.831   5
   4  -6 -22 5301.83 327.472   4
  -4  -6  22 4611.56 249.773   5
  -6  -4  22 4890.76 262.992   5
   6  -5  21 46313.7 1037.10   5
   5  -6  21 46749.5 1044.53   5
  -6   5  15 13565.5 665.580   5
  -5  -6 -13 45927.4 1184.36   1
  -5   6  13 39666.8 1059.02   5
  -6  -5 -13 45931.6 1207.86   1
  -6   5  13 41044.4 1141.68   5
   5  -6  11 64312.4 1242.91   2
   5  -6  11 65338.8 1833.60   7
  -5  -6 -11 66921.2 1343.50   1
   6  -5  11 62376.3 1791.96   7
  -6  -5 -11 68747.2 1389.15   1
   6  -5  11 63703.3 1276.35   2
  -5   6  11 56622.4 1223.12   5
  -6   5  11 59693.8 1325.57   5
   5  -6   9 201209. 2158.00   2
   6  -5   9 185375. 2980.61   7
  -5  -6  -9 208965. 2204.60   1
  -6  -5  -9 202969. 2215.36   1
   6  -5   9 201109. 2198.32   2
   5  -6   9 190614. 3005.80   7
  -5  -6  -7 367853. 2761.15   1
  -6  -5  -7 363751. 2754.82   1
   5  -6   7 354509. 2766.85   2
   6  -5   7 358141. 2816.84   2
   5  -6   5 241979. 2212.54   2
  -5  -6  -5 240707. 2011.85   1
   6  -5   5 243672. 2232.21   2
  -6  -5  -3 104299. 1315.96   1
   5  -6   3 100183. 1347.36   2
  -5  -6  -3 104522. 1235.89   1
   6  -5   3 102825. 1408.74   2
   6  -5   1 63074.8 1076.44   2
  -5  -6  -1 61165.1 876.305   1
  -6  -5  -1 61169.3 962.957   1
   6   5  -1 59871.1 1292.29   2
   5   6   1 58009.5 1243.89   2
   6   5   1 59130.1 1379.30   2
   6  -5  -1 62081.2 1042.97   2
   6   5   3 103503. 1927.16   2
   5   6   3 99967.3 1810.67   2
   5   6   5 240707. 2976.25   2
   6   5   5 246860. 3220.32   2
   5   6   7 361855. 3989.91   2
   6   5   7 343836. 4307.94   2
   5   6   9 201163. 3320.85   2
   6   5   9 200550. 3531.72   2
  -5  -6  11 68929.0 1401.69   5
   6   5  11 66829.7 2269.50   2
  -6  -5  11 65897.6 1370.16   5
   5   6  11 65376.4 2120.82   2
  -6  -5  13 42198.8 1149.36   5
  -5  -6  13 44611.8 1186.97   5
   6   5  13 42366.1 1913.55   2
   5   6  13 39534.3 1836.29   2
  -6  -5  15 13429.0 654.826   5
  -5  -6  15 13470.0 670.235   5
  -5  -6  17 48191.5 1199.21   5
  -6  -5  17 48043.5 1187.30   5
  -6  -5  19 62987.5 1227.42   5
  -5  -6  19 63401.6 1215.65   5
  -5  -6  21 48334.3 867.897   5
  -6  -5  21 49904.7 887.623   5
   6  -6  20 51113.7 1202.09   5
  -6   6  18 61042.4 1229.93   3
   6  -6  12 50357.2 1684.50   7
  -6  -6 -12 57076.0 1319.31   1
   6  -6  10 134303. 1873.36   2
  -6  -6 -10 137843. 1934.03   1
   6  -6   8 265129. 2560.06   2
  -6  -6  -8 277084. 2558.82   1
   6  -6   6 194907. 2122.34   2
  -6  -6  -6 203774. 2080.43   1
  -6  -6  -4 194373. 1877.50   1
   6  -6   4 189959. 2035.90   2
   6  -6   2 129182. 1612.18   2
  -6  -6  -2 128449. 1439.09   1
   6   6   0 102483. 1819.30   2
   6   6   2 120248. 2095.99   2
   6   6   4 188599. 2797.28   2
   6   6   6 194222. 3064.92   2
   6   6   8 266523. 3918.53   2
   6   6  10 132486. 3079.49   2
   6   6  12 52582.0 2145.40   2
  -6  -6  12 56778.2 1267.83   5
  -6  -6  14 44634.8 1154.91   5
  -6  -6  16 20875.6 771.947   5
  -6  -6  18 60809.0 1208.87   5
   6  -6 -20 54504.1 1130.16   4
  -6  -6  20 54668.4 959.046   5
   7   0   1 36141.6 894.163   2
   7   0  -1 35427.8 760.351   2
   7   0   3 50670.3 1213.77   2
   7   0  -3 50923.3 796.265   2
   0  -7  -3 52030.4 701.494   1
  -7   0  -3 51530.0 963.098   1
   0  -7  -5 161139. 1463.04   1
   7   0   5 158424. 2265.08   2
  -7   0  -5 159271. 1805.99   1
  -7   0  -7 68395.5 1220.30   1
   0  -7  -7 70585.5 1103.05   1
   0  -7  -9 83638.6 1327.56   1
  -7   0  -9 84240.6 1453.99   1
   7   0   9 84814.8 1788.93   2
   7   0  11 99692.7 1947.81   2
  -7   0 -11 101815. 1711.65   1
  -7   0  11 103461. 1757.35   5
   0   7  11 98295.0 2053.31   2
   0  -7 -11 105731. 1638.29   1
  -7   0  13 977.895 206.797   5
   7   0  13 1088.14 228.025   2
   0  -7 -13 1157.28 203.686   1
  -7   0 -13 1005.25 211.906   1
   0  -7  15 25792.1 1073.86   5
  -7   0  15 24958.0 934.658   5
  -7   0  17 19300.9 807.736   5
   0  -7  17 18603.2 899.019   5
  -7   0  19 18680.3 730.865   5
   0  -7  19 18553.2 786.660   5
   0  -7  21 32391.8 843.130   5
  -7   0  21 34653.6 826.445   5
  -7   1  22 6146.37 315.492   3
   1  -7  22 5486.96 305.799   5
   1  -7  20 8532.89 500.805   5
  -7   1  20 8847.89 464.734   5
   1  -7  18 2136.07 322.645   5
  -7   1  18 2664.77 304.038   5
  -7   1  16 4501.42 406.787   5
  -7   1  14 63.9715 102.898   5
  -7   1  12 7400.84 492.484   5
   7  -1  12 7339.32 502.074   2
  -7  -1 -12 7498.65 485.941   1
  -1  -7 -12 7765.29 475.324   1
   7  -1  10 13830.5 670.245   2
  -7  -1 -10 13868.6 617.839   1
  -7   1  10 14699.6 649.903   5
   1  -7  10 15396.4 790.196   7
  -1  -7 -10 13993.6 576.731   1
  -7  -1  -8 19875.9 683.224   1
   7  -1   8 19730.9 774.044   2
  -1  -7  -8 19781.6 623.094   1
  -7  -1  -6 13175.2 520.386   1
   7  -1   6 14129.4 631.620   2
  -1  -7  -6 14036.8 462.509   1
  -1  -7  -4 23840.5 524.714   1
  -7  -1  -4 23102.2 682.295   1
   7  -1   4 23796.6 774.668   2
   7   1  -2 3872.68 254.627   2
  -7  -1  -2 3987.40 271.423   1
   7   1   0 524.923 155.398   2
   7  -1   0 404.363 104.363   2
   1  -7  -2 4211.15 183.159   1
   7   1   2 4001.84 383.716   2
   7  -1  -2 3966.35 243.363   2
   1  -7  -4 23145.7 517.310   1
   7   1   4 22119.0 955.452   2
   7  -1  -4 21926.0 499.631   2
  -7   1  -4 22213.1 662.596   1
   1  -7  -6 13437.3 453.000   1
   7   1   6 13367.3 778.602   2
  -7   1  -6 14371.3 557.508   1
   7   1   8 19173.2 969.088   2
  -7   1  -8 19974.0 691.485   1
   1  -7  -8 19058.1 605.282   1
   1   7  10 14160.3 781.370   2
  -7   1 -10 13511.4 598.094   1
  -7  -1  10 13903.2 620.796   5
   1  -7 -10 14506.3 598.514   1
   7   1  10 14281.2 840.789   2
  -7   1 -12 7286.33 477.472   1
   7   1  12 7622.36 598.546   2
   1   7  12 6454.64 592.425   2
  -7  -1  12 8044.37 507.288   5
   1  -7 -12 7859.87 482.002   1
  -7  -1  14 16.9866 99.5254   5
  -1  -7  14 220.311 133.471   5
  -1  -7  16 4113.43 421.628   5
  -7  -1  16 3692.76 366.925   5
  -1  -7  18 2256.71 300.643   5
  -7  -1  18 2625.20 301.351   5
  -1  -7  20 8438.17 471.597   5
  -7  -1  20 8949.76 467.528   5
  -1  -7  22 5568.84 291.632   5
  -7  -1  22 5887.01 303.682   3
  -7  -1  22 6090.13 304.242   5
  -7   2  21 4875.22 319.942   3
   2  -7  21 4997.24 347.055   5
   2  -7  19 2142.69 302.101   5
   7  -2  19 2095.48 288.967   5
  -7   2  19 2442.79 270.724   5
  -7   2  17 5679.98 445.005   5
  -7   2  15 16025.9 759.488   5
   7  -2  13 2410.17 306.766   2
  -7  -2 -13 2803.89 318.040   1
  -2  -7 -13 2408.43 281.423   1
   2  -7  11 21654.5 995.697   7
   7  -2  11 21409.5 795.706   2
  -2  -7 -11 21890.9 757.613   1
  -7  -2 -11 21710.4 797.024   1
  -7   2  11 22768.2 839.886   5
  -2  -7  -9 29739.1 807.430   1
   7  -2   9 28047.7 886.885   2
  -7  -2  -9 27101.3 853.796   1
  -7  -2  -7 11710.7 524.779   1
   7  -2   7 11927.4 566.863   2
  -2  -7  -7 12664.5 478.552   1
  -2  -7  -5 1499.09 158.468   1
  -7  -2  -5 1373.81 189.618   1
   7  -2   5 1273.39 196.658   2
  -7  -2  -3 56915.5 1008.27   1
   7  -2   3 59773.5 1110.91   2
  -2  -7  -3 59905.0 795.171   1
   7   2  -3 56681.7 954.776   2
   7   2  -1 3220.78 331.825   2
   7  -2   1 5123.39 311.875   2
   7   2   1 2708.32 359.787   2
   7  -2  -1 2938.72 224.537   2
   7   2   3 58470.6 1575.89   2
   7  -2  -3 56230.7 882.018   2
  -7   2  -5 1118.82 173.791   1
   7   2   5 1713.81 349.904   2
   7   2   7 12133.8 821.005   2
  -7   2  -7 12078.2 534.997   1
  -7   2  -9 28118.2 850.760   1
   2   7   9 26763.1 1046.90   2
   2  -7  -9 29169.8 810.452   1
   7   2   9 28944.3 1303.97   2
  -7  -2  11 21315.7 785.609   5
  -7   2 -11 20571.3 775.782   1
   2  -7 -11 22000.2 769.232   1
   7   2  11 21270.2 1128.98   2
  -2  -7  11 23387.5 917.331   5
   2   7  11 19350.2 1010.65   2
  -2  -7  13 3355.80 378.403   5
  -7  -2  13 2650.75 310.444   5
   2   7  13 2665.63 475.958   2
   2  -7 -13 3391.23 351.613   1
   7   2  13 2940.32 422.935   2
  -7   2 -13 2228.48 300.033   1
  -2  -7  15 15376.1 781.162   5
  -7  -2  15 15526.8 728.100   5
  -2  -7  17 5509.08 453.177   5
  -7  -2  17 5354.29 422.233   5
  -2  -7  19 2308.69 273.558   5
  -7  -2  19 2347.96 265.874   5
  -2  -7  21 4745.01 303.838   5
  -7  -2  21 5025.09 316.404   3
  -7  -2  21 5080.31 311.747   5
   3  -7  22 11659.5 428.472   5
  -7   3  22 13510.6 420.991   3
   3  -7  20 15182.3 676.500   5
   7  -3  20 13539.5 635.620   5
   3  -7  18 4954.15 468.205   5
  -7   3  18 5029.47 398.637   5
  -7   3  16 17028.0 766.645   5
  -7   3  14 1661.70 259.491   5
  -3  -7 -12 10141.6 562.026   1
  -7  -3 -12 10626.6 585.126   1
  -7   3  12 10880.4 612.587   5
   7  -3  12 10276.6 563.596   2
  -3  -7 -10 45754.4 1075.53   1
   3  -7  10 45525.5 1436.62   7
   7  -3  10 43522.2 1088.22   2
  -7  -3 -10 45791.9 1121.79   1
  -7   3  10 45469.0 1180.79   5
   7  -3   8 40845.8 1012.79   2
  -7  -3  -8 42325.2 1016.38   1
  -7  -3  -6 5238.39 345.289   1
   7  -3   6 5701.80 370.873   2
  -3  -7  -6 6179.60 328.683   1
  -3  -7  -4 78718.7 996.118   1
   7  -3   4 76572.7 1270.18   2
  -7  -3  -4 76445.3 1212.67   1
   7   3  -2 14614.4 670.814   2
   7  -3   2 16300.7 565.743   2
  -7  -3  -2 15629.9 528.624   1
   7   3   0 7540.07 572.073   2
   7  -3   0 7975.85 381.629   2
   7  -3  -2 15971.5 507.967   2
   7   3   2 15413.1 835.834   2
   7   3   4 75444.9 1948.88   2
   3   7   6 4804.61 433.639   2
  -7   3  -6 4991.19 352.097   1
   7   3   6 5056.29 575.571   2
  -7   3  -8 41165.1 986.058   1
   3   7   8 40255.6 1305.74   2
   7   3   8 41427.2 1634.44   2
  -7  -3  10 44853.7 1091.88   5
   7   3  10 44131.0 1713.83   2
   3   7  10 43809.8 1488.83   2
  -7   3 -10 44440.5 1075.86   1
  -3  -7  12 12672.1 668.034   5
   3  -7 -12 12241.9 622.044   1
  -7   3 -12 10416.7 560.832   1
  -7  -3  12 10837.6 581.345   5
   7   3  12 10254.6 858.312   2
   3   7  12 9492.22 810.753   2
  -7  -3  14 1940.27 273.225   5
  -3  -7  14 1522.53 257.657   5
  -3  -7  16 15965.7 752.596   5
  -7  -3  16 16082.2 717.197   5
  -3  -7  18 5228.36 402.256   5
  -7  -3  18 5210.43 391.532   5
  -3  -7  20 15048.8 567.923   5
  -7  -3  20 15402.5 574.981   5
   3  -7 -22 14322.4 533.821   4
  -7  -3  22 13013.0 407.740   5
   7  -4  21 976.628 157.990   5
   4  -7  21 1192.34 175.758   5
  -7   4  21 1220.44 151.315   3
  -7   4  19 1574.88 218.393   3
   4  -7  19 1337.31 242.257   5
  -7   4  17 1236.64 217.371   5
  -7   4  15 1403.46 238.126   5
  -7   4  13 5263.50 433.257   5
   4  -7  11 1998.57 366.416   7
   7  -4  11 1752.52 316.841   7
  -4  -7 -11 1818.10 244.184   1
  -7   4  11 1952.91 269.046   5
   7  -4  11 2014.65 258.139   2
  -7  -4 -11 2033.33 261.125   1
  -7   4   9 165.353 99.5138   5
  -7  -4  -9-243.029 118.874   1
   7  -4   9-354.520 139.171   2
  -4  -7  -9 66.8353 75.9756   1
   4  -7   9-223.510 158.825   7
   7  -4   9 220.058 181.086   7
  -7  -4  -7 114.815 104.977   1
  -4  -7  -7 19.0771 67.5635   1
   7  -4   7 260.185 120.103   2
  -4  -7  -5 4944.11 293.110   1
  -7  -4  -5 5017.28 327.659   1
   7  -4   5 5729.25 369.911   2
  -4  -7  -3 4348.99 243.307   1
   7  -4   3 4168.59 303.439   2
   7  -4   1 158.468 96.0523   2
   7   4  -1-33.6201 135.643   2
   7   4   1 65.1474 153.582   2
   7  -4  -1 408.639 103.107   2
   4   7   3 3779.52 361.615   2
   7   4   3 3322.59 430.729   2
   4   7   5 5118.14 438.221   2
   7   4   5 4893.26 558.329   2
   7   4   7 489.914 331.409   2
   4   7   7 433.191 225.822   2
  -7   4  -9 782.989 165.280   1
   4   7   9-357.379 216.108   2
  -7  -4   9 259.177 108.771   5
  -7  -4   9-594.924 226.759   6
   7   4   9-728.966 334.575   2
  -7  -4  11 1935.88 244.313   5
   4   7  11 1882.40 426.007   2
   7   4  11 1991.49 493.834   2
  -7  -4  13 5762.70 427.179   5
  -4  -7  13 5932.71 452.954   5
  -4  -7  15 1373.20 235.533   5
  -7  -4  15 1575.14 241.479   5
  -7  -4  17 988.045 195.307   5
  -4  -7  17 940.825 181.008   5
  -4  -7  19 1443.33 192.242   5
  -7  -4  19 1569.94 204.797   5
   4  -7 -21 1296.41 204.762   4
  -7  -4  21 1167.72 141.461   5
  -7  -4  21 1431.94 145.635   3
  -4  -7  21 1202.35 138.685   5
   5  -7  20 4301.41 347.423   5
  -7   5  20 4424.28 285.967   3
   7  -5  20 4075.56 344.555   5
  -7   5  18 7806.38 464.484   3
   7  -5  12 11926.6 585.686   2
  -7  -5 -12 12120.0 626.941   1
   5  -7  12 13017.0 856.853   7
   7  -5  12 10589.2 771.082   7
  -5  -7 -12 13206.3 639.116   1
  -7   5  12 11732.8 625.737   5
   5  -7  10 27866.5 1230.48   7
   7  -5  10 26661.0 1199.31   7
  -5  -7 -10 30345.9 908.636   1
  -7  -5 -10 29332.5 924.962   1
   7  -5  10 27854.0 879.929   2
  -7   5   8 48697.7 1178.93   3
  -7  -5  -8 50497.4 1147.17   1
   5  -7   8 48206.5 1539.64   7
   5  -7   8 49404.5 1085.62   2
  -5  -7  -8 52374.0 1106.26   1
   7  -5   8 45595.5 1508.76   7
   7  -5   8 48739.9 1122.09   2
  -5  -7  -6 14173.6 528.816   1
   5  -7   6 13600.6 555.056   2
  -7  -5  -6 13477.7 558.758   1
   7  -5   6 13122.6 566.007   2
  -5  -7  -4 37405.3 802.486   1
  -7  -5  -4 37240.7 889.975   1
   7  -5   4 37436.3 922.729   2
   7  -5   2 25901.1 743.321   2
   7   5  -2 24331.2 937.882   2
   5   7  -2 23271.2 775.399   2
  -7  -5  -2 25458.3 693.544   1
   5   7   0 44457.2 1111.14   2
   7   5   0 41771.5 1269.64   2
   5   7   2 24153.7 884.569   2
   7   5   2 23226.8 1006.05   2
   5   7   4 35693.0 1171.71   2
   7   5   4 33827.1 1273.81   2
   5   7   6 12183.5 733.215   2
   7   5   6 12261.8 858.160   2
   5   7   8 48063.3 1616.37   2
   7   5   8 49934.0 1855.43   2
   7  -5  -8 45358.2 1347.73   4
  -7  -5   8 47450.0 1404.97   6
  -7  -5  10 28497.2 854.480   5
   5   7  10 28239.0 1366.90   2
   7   5  10 27975.1 1516.33   2
  -7  -5  10 26076.3 1041.61   6
  -5  -7  12 13098.4 620.980   5
   7   5  12 12165.8 1068.85   2
   5   7  12 11180.1 995.637   2
  -7  -5  12 12234.7 593.459   5
  -5  -7  14 2351.90 283.376   5
  -7  -5  14 2176.32 271.096   5
  -5  -7  16 43957.4 1122.00   5
  -7  -5  16 41897.8 1088.20   5
   7  -5 -18 7075.96 478.464   4
  -5  -7  18 7291.84 415.735   5
  -7  -5  18 7617.88 429.099   5
   5  -7 -20 4756.75 370.683   4
  -5  -7  20 4176.89 263.446   5
  -7  -5  20 4217.91 271.621   5
   6  -7  21 7267.72 340.776   5
   6  -7  19 7473.84 492.883   5
  -7   6  19 8482.00 392.841   3
  -7   6  17 10268.0 528.170   3
  -7   6  15 16869.1 731.108   3
  -7   6  13 17621.6 767.089   3
  -7   6  11 29295.6 964.252   3
   7  -6  11 30273.7 942.848   2
  -6  -7 -11 31463.0 969.520   1
   6  -7  11 28004.4 1259.08   7
   7  -6  11 27550.2 1258.52   7
  -7  -6 -11 30733.8 988.721   1
   7  -6   9 32836.6 959.045   2
  -7  -6  -9 33080.3 986.868   1
   6  -7   9 31985.1 931.051   2
   6  -7   9 31527.0 1312.59   7
   7  -6   9 29813.9 1278.45   7
  -6  -7  -9 33472.7 960.139   1
  -7   6   9 31396.7 961.919   3
  -6  -7  -7 17238.5 652.351   1
   7  -6   7 15925.9 647.907   2
   6  -7   7 16494.8 652.390   2
  -7  -6  -7 16935.4 662.121   1
   6  -7   7 15781.9 882.829   4
   6  -7   7 15529.5 888.182   7
   7  -6   5 29242.5 855.194   2
   6  -7   5 28550.1 830.520   2
  -6  -7  -5 29697.5 791.023   1
  -7  -6  -5 30531.5 837.587   1
  -7  -6  -3 50316.3 1006.17   1
   7  -6   3 49116.6 1078.86   2
  -6  -7  -3 50949.8 960.688   1
   6   7  -1 54557.7 1336.61   2
   7   6  -1 49667.7 1382.19   2
   7   6   1 55432.4 1527.19   2
   6   7   1 55579.7 1417.10   2
   6   7   3 46608.3 1389.41   2
   7   6   3 45684.9 1475.58   2
   6   7   5 26924.1 1153.05   2
   7   6   5 27536.8 1234.85   2
   6   7   7 16089.3 965.464   2
   7   6   7 15177.1 1000.55   2
   7  -6  -7 15544.2 816.483   4
  -7  -6   7 14745.6 799.579   6
  -6  -7   7 15182.6 775.665   6
   6  -7  -7 15141.0 821.862   4
   7  -6  -9 30265.6 1184.91   4
  -6  -7   9 30275.3 1078.50   6
   6   7   9 31470.8 1492.60   2
   7   6   9 32073.1 1598.49   2
  -7  -6   9 30338.1 1136.06   6
   6   7  11 28642.9 1544.71   2
   7   6  11 26852.8 1575.75   2
  -6  -7  13 17944.1 699.433   5
  -7  -6  13 17962.8 704.967   5
  -6  -7  15 17443.7 685.060   5
   7  -6 -15 15947.1 860.605   4
  -7  -6  15 16725.5 677.046   5
   6  -7 -17 10452.2 665.128   4
   7  -6 -17 9532.29 602.436   4
  -7  -6  17 10378.1 498.181   5
  -6  -7  17 10384.8 494.005   5
   6  -7 -19 9400.85 527.579   4
   7  -6 -19 7758.71 424.709   4
  -7  -6  19 8531.53 389.545   5
  -6  -7  19 8501.13 379.841   5
   7  -7  20 138.354 87.5241   5
   7  -7  12 9088.59 733.235   7
  -7  -7 -10 236.513 125.682   1
   7  -7  10 347.485 142.101   2
   7  -7   8 11372.8 814.950   7
   7  -7   8 12254.2 595.915   2
  -7  -7  -8 11386.0 581.073   1
   7  -7   6 305.578 187.812   4
   7  -7   6 497.546 148.314   2
  -7  -7  -6 254.291 121.393   6
  -7  -7  -6 66.4167 89.2011   1
  -7  -7  -4 659.460 152.738   1
   7  -7   4 335.166 122.187   2
  -7  -7  -4 398.880 190.308   6
   7  -7   2 1691.34 314.080   4
   7   7   0 26380.4 1049.19   2
   7   7   2 1174.24 279.724   2
   7  -7  -2 1665.53 286.369   4
  -7  -7   2 1860.72 326.708   6
   7   7   4 856.581 256.619   2
   7  -7  -4 522.693 191.375   4
  -7  -7   4 692.160 195.541   6
   7  -7  -6 560.449 198.646   4
  -7  -7   6 121.238 138.451   6
   7   7   6 445.095 235.294   2
   7   7   8 10522.1 909.859   2
   7  -7  -8 12109.1 763.717   4
  -7  -7   8 10692.0 686.458   6
   7  -7 -10 214.305 189.123   4
  -7  -7  10 189.978 135.430   6
   7  -7 -12 9890.70 716.141   4
   7  -7 -14 1249.35 290.246   4
  -7  -7  16 1116.02 167.828   5
   7  -7 -16 794.054 235.318   4
  -7  -7  18 289.646 87.6450   5
   7  -7 -18 139.048 119.515   4
   8   0   0 1572.65 189.214   2
   8   0   2 1497.21 222.563   2
   8   0  -2 1749.87 183.775   2
  -8   0  -4 19363.6 662.270   1
   8   0   4 19802.2 807.616   2
  -8   0  -6 15981.1 624.824   1
   8   0   6 16654.8 772.399   2
   0  -8  -6 16914.2 524.015   1
   8   0   8 22897.0 940.041   2
  -8   0  -8 23958.2 814.083   1
   0  -8  -8 23423.5 692.041   1
   0   8  10 53494.1 1531.20   2
  -8   0 -10 58051.8 1339.29   1
   0  -8 -10 58940.9 1212.83   1
   8   0  10 59598.5 1538.21   2
  -8   0  10 64671.9 1809.61   6
  -8   0  10 59083.4 1346.07   5
  -8   0 -12 45864.7 1230.63   1
   0  -8 -12 46406.8 1182.23   1
   8   0  12 44198.7 1310.18   2
  -8   0  12 47294.2 1255.59   5
  -8   0  14 3506.49 368.982   5
  -8   0  16 2666.89 317.518   5
   0  -8  16 2256.38 332.063   5
   0  -8  18 6037.15 454.423   5
  -8   0  18 6326.67 437.884   5
  -8   0  20 184.855 99.2717   5
   0  -8  20 248.107 100.603   5
  -8   0  20 102.606 78.2164   3
  -8   0  22 2939.84 194.631   3
  -8   1  21 181.939 87.2593   3
   1  -8  21 308.866 96.3107   5
   1  -8  19 298.555 112.570   5
  -8   1  19 255.180 107.093   5
  -8   1  17 1098.29 218.609   5
   1  -8  17 672.299 194.872   5
  -8   1  15 1468.85 255.117   5
  -8   1  13 19569.5 835.347   5
  -1  -8 -11 6856.16 442.684   1
  -1   8  11 4979.81 502.630   2
  -8  -1 -11 6332.17 455.783   1
  -8   1  11 6750.09 624.448   6
   8  -1  11 5691.58 459.951   2
  -8   1  11 6710.92 485.558   5
  -1  -8  -9 3393.18 290.936   1
  -8  -1  -9 2965.25 308.993   1
  -8   1   9 3246.81 326.253   5
  -8   1   9 4390.69 517.222   6
   8  -1   9 3266.48 343.031   2
   1  -8   9 4157.68 422.619   7
   8  -1   7 809.700 203.796   2
  -8  -1  -7 788.365 171.896   1
  -1  -8  -7 540.644 115.184   1
  -8  -1  -5 780.078 160.468   1
   8  -1   5 583.111 172.338   2
   8   1  -3 296.441 93.2539   2
  -8  -1  -3 174.793 96.3888   1
   8   1  -1 30121.3 808.692   2
   8  -1   1 29947.7 811.156   2
   8  -1  -1 30120.1 743.898   2
   8   1   1 30228.9 949.856   2
   8   1   3 328.009 162.696   2
   8  -1  -3 980.737 133.782   2
   1  -8  -5 278.635 86.1538   1
   8   1   5 480.847 212.472   2
  -8   1  -5 182.913 111.103   1
   1  -8  -7 607.796 117.290   1
  -8   1  -7 572.846 132.084   1
   8   1   7 258.520 193.115   2
  -8  -1   9 3853.40 464.277   6
   1   8   9 4014.57 434.747   2
   8   1   9 3288.35 416.045   2
  -8   1  -9 3437.68 340.767   1
   1  -8  -9 3560.92 296.308   1
  -8  -1   9 3687.99 333.157   5
   8   1  11 6101.34 565.565   2
   1   8  11 5479.13 582.567   2
   1  -8 -11 6396.34 427.165   1
  -8   1 -11 6604.55 472.665   1
  -8  -1  11 6336.71 575.418   6
  -8  -1  11 6634.38 459.687   5
  -1  -8  13 21381.2 944.001   5
  -8  -1  13 18457.7 786.711   5
  -8  -1  15 1185.94 227.889   5
  -1  -8  15 872.186 238.400   5
  -8  -1  17 913.069 200.864   5
  -1  -8  17 814.010 206.122   5
  -1  -8  19 303.745 121.047   5
  -8  -1  19 376.463 114.362   5
  -8  -1  21 112.403 77.8121   3
  -1  -8  21 125.852 70.1885   5
  -8   2  20 7100.83 395.726   3
   2  -8  20 6683.50 407.058   5
   2  -8  18 26641.4 994.153   5
  -8   2  18 28381.7 910.043   5
  -8   2  16 45641.6 1254.68   5
  -8   2  14 64285.4 1514.53   5
  -2  -8 -12 7971.50 491.791   1
  -8  -2 -12 6619.21 484.339   1
  -8   2  12 7791.66 679.741   6
   8  -2  12 6980.28 484.133   2
  -8   2  12 7078.31 503.095   5
  -2  -8 -10 103314. 1614.23   1
  -8  -2 -10 97786.1 1713.13   1
   8  -2  10 95631.3 1719.89   2
   2  -8  10 104378. 2158.01   7
  -8   2  10 101450. 1791.57   5
  -2  -8  -8 44849.5 970.606   1
  -8  -2  -8 41738.2 1068.28   1
   8  -2   8 41193.5 1113.38   2
  -8   2   8 43043.1 1124.64   5
  -2  -8  -6 29481.6 709.604   1
  -8  -2  -6 27995.9 834.539   1
   8  -2   6 27538.6 870.974   2
  -8  -2  -4 48251.6 1024.11   1
   8  -2   4 49120.8 1096.73   2
   8   2  -2 155161. 1822.52   2
   8  -2   2 163751. 1894.23   2
   8   2   0 36567.8 1083.36   2
   8  -2   0 38654.1 873.874   2
   8   2   2 162279. 2561.99   2
   8  -2  -2 163930. 1686.12   2
   8  -2  -4 45029.6 816.336   2
   8   2   4 48526.1 1558.16   2
  -8   2  -6 27409.3 835.123   1
   2  -8  -6 28000.9 699.835   1
   8   2   6 28153.7 1249.34   2
   8   2   8 43405.2 1589.10   2
  -8   2  -8 40162.5 1056.02   1
   2   8   8 40340.7 1284.59   2
   2  -8  -8 42912.2 964.604   1
  -8   2 -10 97569.3 1702.55   1
   2   8  10 95971.8 2226.84   2
  -8  -2  10 99593.0 1694.25   5
  -8  -2  10 102745. 2225.41   6
   8   2  10 101665. 2412.07   2
   2   8  12 6754.40 689.544   2
   8   2  12 7507.60 670.814   2
   2  -8 -12 6944.76 479.504   1
  -8   2 -12 5802.32 455.703   1
  -8  -2  12 7109.31 483.113   5
  -2  -8  14 66086.0 1587.36   5
  -8  -2  14 60432.7 1415.80   5
  -2  -8  16 46771.3 1269.86   5
  -8  -2  16 44420.6 1180.48   5
  -2  -8  18 26577.5 870.274   5
  -8  -2  18 27696.0 870.985   5
  -8  -2  20 7459.08 392.187   3
  -2  -8  20 6475.76 357.758   5
  -8  -2  20 7073.11 377.815   5
   3  -8  21 20702.5 603.235   5
  -8   3  21 23185.0 592.870   3
  -8   3  19 22912.8 752.834   3
   3  -8  19 22098.1 836.772   5
  -8   3  17 51159.3 1271.70   5
  -8   3  15 77573.3 1648.75   5
  -8   3  13 23118.1 908.554   5
   3  -8  11 48749.5 1567.07   7
  -8  -3 -11 47801.4 1241.51   1
  -3  -8 -11 48395.3 1154.15   1
   8  -3  11 46392.1 1194.26   2
  -8   3  11 48441.6 1287.11   5
  -3  -8  -9 134969. 1799.56   1
  -8  -3  -9 125675. 1901.84   1
   3  -8   9 132846. 2480.43   7
   8  -3   9 121620. 1897.42   2
  -8   3   9 131488. 2030.63   5
  -8  -3  -7 59731.3 1256.16   1
   8  -3   7 60309.8 1297.56   2
  -8  -3  -5 83017.1 1399.34   1
   8  -3   5 84406.5 1451.78   2
  -8  -3  -3 115230. 1569.28   1
   8  -3   3 117685. 1669.86   2
   8   3  -1 78301.1 1652.00   2
   8  -3   1 88912.3 1378.56   2
   8   3   1 78304.0 1860.35   2
   8  -3  -1 86550.0 1304.00   2
   8  -3  -3 114972. 1426.20   2
   8   3   3 112735. 2412.78   2
   8   3   5 78103.5 2149.34   2
   3   8   7 61046.7 1577.46   2
   8   3   7 61473.1 1962.04   2
   3   8   9 124563. 2520.21   2
   3  -8  -9 132611. 1809.67   1
  -8  -3   9 126412. 1822.63   5
   8   3   9 126785. 2924.67   2
  -8   3  -9 124746. 1873.80   1
  -8  -3   9 131289. 2482.30   6
   3   8  11 44950.9 1678.48   2
  -8  -3  11 48571.6 1505.47   6
  -8   3 -11 46086.6 1180.33   1
   3  -8 -11 50932.0 1213.88   1
   8   3  11 48283.6 1804.62   2
  -8  -3  11 45894.8 1161.09   5
  -3  -8  13 22853.7 887.451   5
  -8  -3  13 21777.0 830.750   5
  -3  -8  15 76255.8 1598.45   5
  -8  -3  15 74916.4 1524.45   5
  -3  -8  17 47862.9 1177.73   5
  -8  -3  17 47582.3 1148.48   5
  -8  -3  19 23421.4 728.083   3
  -8  -3  19 21846.3 701.630   5
  -3  -8  19 21250.8 675.003   5
  -8  -3  21 22848.3 566.985   5
  -8  -3  21 22893.8 552.081   3
   4  -8  20 13019.3 548.780   5
   8  -4  20 11842.9 521.713   5
   4  -8  18 7018.10 515.477   5
  -8   4  18 7511.52 456.035   3
  -8   4  16 8716.69 548.918   3
  -8   4  12 28163.4 1000.02   5
   4  -8  12 28252.4 1240.07   7
  -8   4  10 11642.1 635.244   3
  -8  -4 -10 10720.1 579.510   1
   8  -4  10 10533.6 736.289   7
   4  -8  10 11067.2 767.067   7
  -4  -8 -10 11389.8 550.948   1
   8  -4  10 11416.1 587.696   2
  -8   4   8 35222.6 1053.15   3
   4  -8   8 35089.8 1310.72   7
  -8  -4  -8 36192.8 1005.37   1
  -4  -8  -8 37783.3 933.927   1
   8  -4   8 35101.7 1006.39   2
   8  -4   6 56913.6 1238.05   2
  -8  -4  -6 58076.6 1219.43   1
  -8  -4  -4 22787.0 728.615   1
   8  -4   4 24286.8 781.088   2
   8  -4   2 13767.5 568.383   2
   8  -4   0 6262.26 373.132   2
   8   4   0 5103.14 533.529   2
   8  -4  -2 12862.0 508.221   2
   8   4   2 11721.2 816.964   2
   4   8   4 22095.9 892.377   2
   8   4   4 23836.3 1203.42   2
   4   8   6 57450.4 1560.08   2
   8   4   6 56851.4 1955.32   2
  -8  -4   8 36101.0 985.184   3
   4   8   8 35306.6 1360.09   2
   8  -4  -8 30909.9 1067.46   4
   8   4   8 34435.6 1622.22   2
  -8  -4   8 35630.1 1289.34   6
  -8  -4  10 11010.1 723.692   6
   4   8  10 10683.8 845.586   2
   8  -4 -10 10419.2 650.690   4
   8   4  10 10916.3 952.984   2
  -8  -4  10 11831.3 567.117   5
   8  -4 -12 24581.7 1000.16   4
  -8  -4  12 27636.4 905.805   5
  -4  -8  14 2150.96 273.107   5
  -8  -4  14 2611.03 294.988   5
  -4  -8  16 6998.22 446.801   5
  -8  -4  16 8024.53 481.600   5
  -8  -4  18 8149.98 445.042   3
  -4  -8  18 7409.25 408.480   5
  -8  -4  18 7278.08 416.816   5
  -8  -4  20 13479.6 469.772   5
  -8  -4  20 14498.2 466.862   3
  -4  -8  20 13608.5 435.930   5
   5  -8  19 1862.09 248.408   5
  -8   5  19 2018.67 207.648   3
  -8   5  17 2507.54 276.240   3
  -8   5  15 12884.9 664.807   3
  -8   5  13 261.108 130.370   3
  -8   5  11 424.666 148.529   3
   8  -5  11 788.755 242.461   7
   5  -8  11 474.532 206.769   7
  -8   5   9 1090.13 222.761   3
  -5  -8  -9 1110.61 201.344   1
   8  -5   9 1143.89 206.856   2
   8  -5   9 1135.21 280.740   7
   5  -8   9 1204.11 287.411   7
  -8  -5  -9 845.971 172.689   1
   5  -8   7 12453.0 781.005   4
  -8  -5  -7 13971.6 633.174   1
   8  -5   7 12139.9 789.959   7
   5  -8   7 12733.9 808.507   7
   8  -5   7 13753.3 625.409   2
  -8   5   7 13199.2 636.648   3
   5  -8   5 1682.86 290.473   4
   8  -5   5 2059.27 311.765   4
   8  -5   5 2313.67 266.664   2
  -8  -5  -5 1848.49 236.620   1
  -8  -5  -3 14893.7 589.727   1
   8  -5   3 15948.7 635.312   2
   8  -5   1 8764.72 465.882   2
   8   5  -1 7808.87 616.958   2
   8  -5  -1 8361.84 441.341   2
   5   8   1 7153.28 508.256   2
   8   5   1 6471.35 630.043   2
   5   8   3 14300.8 747.164   2
   8   5   3 14904.8 955.278   2
   8   5   5 1630.73 399.927   2
   5  -8  -5 2116.46 318.143   4
   5   8   5 2282.14 344.175   2
  -5  -8   5 1852.68 293.983   6
  -8  -5   5 1948.54 316.893   6
   5   8   7 12034.9 821.586   2
   5  -8  -7 14117.2 804.874   4
   8   5   7 12517.1 1008.81   2
   8  -5  -7 12516.8 703.305   4
  -5  -8   7 12394.9 703.333   6
  -8  -5   7 13537.8 800.869   6
   5   8   9 1544.95 372.298   2
   8   5   9 1449.67 444.669   2
   8  -5  -9 1004.11 237.263   4
  -8  -5   9 1034.00 259.832   6
  -8  -5  11 666.471 155.489   5
   8  -5 -11 539.973 194.906   4
  -8  -5  11 480.490 180.356   6
  -8  -5  13 84.7126 102.667   3
  -8  -5  13 209.772 114.795   5
   8  -5 -13 349.440 174.327   4
  -5  -8  15 13660.7 595.722   5
  -8  -5  15 13499.4 626.085   3
   8  -5 -15 11620.0 669.632   4
  -8  -5  15 12754.7 596.663   5
  -5  -8  17 2277.06 228.869   5
  -8  -5  17 2801.22 267.970   5
  -8  -5  17 3134.03 278.246   3
  -8  -5  19 1926.94 189.512   5
   5  -8 -19 2266.50 288.848   4
  -5  -8  19 2052.62 181.285   5
   6  -8  20 327.638 99.6177   5
   8  -6  20 408.055 105.013   5
  -8   6  18 246.206 98.9757   3
  -8   6  16 1977.83 240.023   3
  -8   6  14 11467.1 608.146   3
  -8   6  12 952.156 205.413   3
   6  -8  12 820.177 251.911   7
   8  -6  12 641.018 229.455   7
   6  -8  10 2310.72 383.578   7
   8  -6  10 2221.45 385.197   7
  -8   6  10 1850.37 255.662   3
   8  -6   8 4533.39 376.329   2
   6  -8   8 4257.14 511.973   7
   8  -6   8 3941.08 485.312   7
  -8   6   8 4588.64 392.538   3
  -8  -6  -8 4209.57 366.567   1
   8  -6   6 3462.05 321.439   2
   8  -6   6 3301.74 413.922   4
   6  -8   6 3697.08 452.859   4
  -6  -8  -6 3041.96 398.738   6
  -8   6   6 3741.67 349.216   3
  -8  -6  -6 3299.63 324.245   1
   8  -6   4 3250.49 314.123   2
   8  -6   4 3087.67 391.984   4
  -8  -6  -4 2680.93 269.764   1
   6  -8   4 2336.29 362.006   4
  -8  -6  -4 2599.40 346.222   6
  -6  -8  -4 2134.92 331.781   6
   8  -6   2 25441.7 815.035   2
  -8  -6  -2 25007.1 1046.48   6
   6  -8   2 23583.3 1024.70   4
   8  -6   2 23138.7 992.464   4
  -6  -8  -2 26262.2 1071.87   6
   6   8   0 1588.86 260.336   2
   8   6   0 1217.96 301.713   2
   6  -8   0 1015.79 259.295   4
  -6  -8   0 1125.07 252.077   6
  -8  -6   0 1132.23 256.876   6
  -6  -8   2 24891.1 1027.40   6
   6   8   2 20765.7 937.512   2
   8  -6  -2 22212.1 942.977   4
   6  -8  -2 23733.0 990.261   4
   8   6   2 23252.1 1151.07   2
  -8  -6   2 24058.3 1052.73   6
  -6  -8   4 2690.82 350.736   6
   6   8   4 2505.50 372.717   2
   8   6   4 3020.92 452.841   2
   8  -6  -4 2356.61 314.423   4
   6  -8  -4 2788.70 353.019   4
  -8  -6   4 2623.30 376.342   6
  -8   6  -4 2742.87 296.532   3
  -6  -8   6 3527.75 400.474   6
   8   6   6 3501.34 553.734   2
   6   8   6 3169.79 450.008   2
   8  -6  -6 2603.80 335.642   4
   6  -8  -6 3448.71 414.315   4
  -8  -6   6 3415.50 427.670   6
   8   6   8 3122.83 558.627   2
   6   8   8 5308.27 603.374   2
   8  -6  -8 3412.59 411.085   4
   6  -8  -8 4981.72 507.757   4
  -8  -6   8 3606.67 437.331   6
  -6  -8   8 3504.09 406.615   6
   6  -8 -10 2524.73 386.866   4
   8  -6 -10 1715.90 311.931   4
  -8  -6  10 1641.05 289.048   6
   6  -8 -12 660.938 256.927   4
   8  -6 -12 618.281 211.988   4
   6  -8 -14 12412.6 787.776   4
   8  -6 -14 10920.0 683.020   4
  -8  -6  14 11535.6 546.956   5
   6  -8 -16 1977.52 320.450   4
   8  -6 -16 1882.18 287.930   4
  -8  -6  16 2419.27 242.554   5
  -8  -6  18 52.1969 56.7268   5
   8  -6 -18 191.868 96.2142   4
   6  -8 -18 68.0361 126.506   4
   7  -8  19 4427.87 315.413   5
   8  -7  19 4264.07 319.197   5
  -8   7  13 158.990 104.878   3
   7  -8  11 4517.60 538.227   7
   8  -7  11 4314.44 518.909   7
  -8   7  11 4659.53 395.208   3
   8  -7   9 23007.3 1163.92   7
   7  -8   9 22681.6 1164.56   7
   7  -8   7 15934.3 966.109   7
   8  -7   7 18093.5 738.530   2
   8  -7   7 16108.7 974.346   7
  -8  -7  -7 18010.1 741.327   1
   8  -7   5 11822.1 600.994   2
   8  -7   5 10516.6 740.748   4
   7  -8   5 11072.5 766.610   4
  -8  -7  -5 10388.5 710.340   6
  -7  -8  -5 11886.5 775.543   6
  -7  -8  -3 21800.6 1014.07   6
   8  -7   3 20132.7 987.535   4
   7  -8   3 20077.1 994.687   4
  -8  -7  -3 20323.9 964.156   6
   8  -7   1 3515.76 429.407   4
  -8  -7  -1 4165.00 460.604   6
  -7  -8  -1 3827.35 442.625   6
   7  -8   1 3737.80 437.899   4
  -7  -8   1 4559.58 472.770   6
   8   7   1 3654.06 468.284   2
   7   8   1 4035.27 454.636   2
   8  -7  -1 4259.16 455.879   4
   7  -8  -1 3907.94 440.766   4
  -8  -7   1 3629.80 425.358   6
   7   8   3 17838.4 993.925   2
   8  -7  -3 19239.8 909.261   4
   8   7   3 18078.3 1075.01   2
   7  -8  -3 19151.2 915.671   4
  -7  -8   3 20673.3 965.662   6
  -8  -7   3 20986.9 1001.93   6
   7   8   5 10687.2 801.309   2
   8   7   5 10915.2 918.156   2
   8  -7  -5 10805.2 683.158   4
   7  -8  -5 10743.3 692.666   4
  -8  -7   5 10721.1 731.130   6
  -7  -8   5 10974.7 706.204   6
   7   8   7 16072.9 1073.97   2
   8   7   7 15507.9 1136.78   2
   8  -7  -7 16591.4 853.287   4
   7  -8  -7 16841.9 894.962   4
  -8  -7   7 15784.2 866.395   6
  -7  -8   7 15975.4 840.988   6
   8  -7  -9 23109.8 1024.98   4
   7  -8  -9 24334.3 1103.27   4
  -8  -7   9 23191.5 1014.78   6
  -7  -8   9 21605.6 959.059   6
   8  -7 -11 3973.76 474.346   4
   7  -8 -11 4850.98 522.313   4
  -8  -7  11 3683.05 396.435   6
   8  -7 -13 313.341 179.930   4
   7  -8 -13 396.404 200.150   4
   8  -7 -15 7879.99 544.304   4
   7  -8 -15 8585.59 618.974   4
   8  -7 -17 9281.00 489.298   4
   7  -8 -17 10094.3 568.813   4
   7  -8 -19 4216.22 273.560   4
   8  -8  12 25994.5 1198.97   7
   8  -8  10 34244.6 1415.93   7
   8  -8   8 24066.7 1196.26   7
   8  -8   6 36318.1 1413.61   4
   8  -8   6 33384.9 1383.96   7
  -8  -8  -6 34768.7 1324.93   6
   8  -8   4 54398.2 1695.71   4
  -8  -8  -4 57845.9 1689.60   6
   8  -8   2 102316. 2252.01   4
  -8  -8  -2 106345. 2261.13   6
   8  -8   0 5760.31 540.806   4
  -8  -8   0 6029.92 556.095   6
  -8  -8   2 104769. 2260.30   6
   8  -8  -2 104088. 2189.40   4
   8  -8  -4 52146.1 1546.45   4
   8   8   4 49626.7 1817.68   2
  -8  -8   4 55325.5 1610.37   6
   8   8   6 32604.3 1572.89   2
   8  -8  -6 33778.2 1235.66   4
  -8  -8   6 35445.1 1286.18   6
   8  -8  -8 24342.9 1054.07   4
  -8  -8   8 23965.6 1043.46   6
  -8  -8  10 33330.1 1180.70   6
   8  -8 -10 34049.4 1244.36   4
   8  -8 -12 26590.7 1092.23   4
   8  -8 -14 34750.1 1145.47   4
   8  -8 -16 34411.2 981.343   4
   8  -8 -18 17153.2 532.068   4
   9   0  -1 47631.2 999.690   2
   9   0   1 48796.3 1128.21   2
   9   0   3 6000.13 442.290   2
  -9   0  -5 13930.3 621.985   1
   9   0   5 13975.9 713.383   2
  -9   0   7 12902.4 616.023   5
  -9   0  -7 12925.9 633.277   1
   9   0   7 12054.0 711.474   2
  -9   0   7 14577.7 904.777   6
  -9   0   7 13082.6 640.681   3
  -9   0   9 35467.8 1093.78   3
  -9   0  -9 35578.4 1074.67   1
  -9   0   9 39106.6 1471.55   6
   9   0   9 36998.8 1222.59   2
  -9   0   9 36755.7 1073.42   5
   0   9  11 5752.03 577.059   2
  -9   0 -11 5171.22 433.866   1
   9   0  11 5785.59 489.709   2
  -9   0  11 6521.52 625.861   6
  -9   0  11 6257.53 468.558   5
  -9   0  13 21975.6 872.347   5
   0  -9  15 10025.9 639.125   5
  -9   0  15 9567.05 575.653   5
  -9   0  17 19955.6 776.369   3
   0  -9  17 20166.6 803.881   5
  -9   0  17 21217.1 795.942   5
   0  -9  19 875.979 158.481   5
  -9   0  19 807.896 156.030   3
  -9   0  21 1324.01 145.464   3
   0  -9 -21 1137.40 167.272   4
   1  -9  20 1126.96 151.403   5
  -9   1  20 1230.18 165.985   3
  -9   1  18 3.00608 118.584   3
   1  -9  18 97.6984 94.3107   5
  -9   1  16 872.434 204.981   5
  -9   1  16 860.845 195.079   3
   1  -9  16 599.204 198.521   5
  -9   1  14 88.1099 135.211   5
  -9   1  12 1063.61 222.461   5
  -9   1  12 2458.96 398.295   6
  -9   1  10 1114.51 217.103   5
  -9   1  10 1203.29 227.023   3
   9  -1  10 1487.28 252.409   2
  -9   1  10 1141.68 332.981   6
  -9  -1 -10 1080.43 213.455   1
  -9   1   8 2075.49 281.837   3
  -9  -1  -8 2086.12 275.016   1
   1  -9   8 2483.30 334.111   7
   9  -1   8 1790.75 270.397   2
  -9   1   8 1722.24 249.330   5
  -9   1   8 2910.69 446.137   6
  -9  -1  -6 385.725 140.601   1
  -9   1   6 606.090 178.040   3
  -9   1   6 693.420 270.669   6
   9  -1   6 806.489 192.061   2
  -9  -1  -6 722.913 193.540   3
   9  -1   4 1330.88 220.224   2
   9   1  -2 3259.28 256.550   2
   9  -1   2 3390.49 304.034   2
   9  -1   0 3560.04 294.307   2
   9   1   0 3534.77 317.444   2
   9  -1  -2 3483.22 263.371   2
   9   1   2 2944.00 334.312   2
   9   1   4 1149.96 229.376   2
  -9   1  -6 447.721 157.359   3
  -9  -1   6 595.408 160.002   3
   9   1   6 244.864 186.189   2
  -9  -1   6 189.276 178.136   6
  -9  -1   8 2437.66 287.185   3
  -9   1  -8 1813.75 243.014   1
   9   1   8 2273.60 365.083   2
  -9  -1   8 2551.44 421.592   6
  -9  -1   8 2008.82 257.641   5
   1   9  10 1065.19 291.965   2
   9   1  10 1379.16 298.506   2
  -9   1 -10 1299.92 232.884   1
  -9  -1  10 1399.11 231.813   5
  -9  -1  10 1439.87 329.759   6
  -9  -1  12 1190.87 224.819   5
  -1  -9  12 1537.07 266.163   5
  -9  -1  12 1855.71 338.769   6
  -9  -1  14 213.601 140.997   5
  -1  -9  14 181.272 134.704   5
  -9  -1  16 794.897 184.255   5
  -9  -1  16 429.251 165.843   3
  -1  -9  16 511.036 148.153   5
  -9  -1  18 310.935 121.892   5
  -1  -9  18 221.234 98.6991   5
  -1  -9  20 1201.11 141.435   5
  -9  -1  20 1114.73 157.015   3
  -9   2  21 3162.03 210.796   3
   2  -9  19 10698.9 513.567   5
  -9   2  19 11737.6 512.031   3
  -9   2  17 27110.9 905.466   3
   2  -9  17 27228.7 991.865   5
  -9   2  15 22769.5 905.331   3
  -9   2  15 23544.7 905.032   5
  -9   2  13 54799.0 1409.19   5
  -9   2  13 55000.0 1703.92   6
  -9   2  11 2697.62 324.408   3
  -9   2  11 2378.95 304.276   5
   9  -2  11 1783.96 272.544   2
  -9   2  11 2569.74 433.264   6
  -9  -2 -11 2871.68 324.433   1
  -9   2   9 45343.9 1246.16   3
   2  -9   9 48290.8 1484.06   7
  -9   2   9 48748.4 1729.12   6
   9  -2   9 44784.3 1215.77   2
  -9  -2  -9 46677.5 1247.05   1
  -9   2   9 46348.3 1257.54   5
  -9  -2  -7 18835.3 744.069   1
   2  -9   7 19362.6 911.652   7
   9  -2   7 17922.7 749.705   2
  -9   2   7 19903.1 803.479   3
  -9  -2  -5 17648.1 691.693   1
   9  -2   5 17949.0 725.257   2
   9  -2   3 40444.2 1042.44   2
   9   2  -1 61171.0 1258.69   2
   9  -2   1 63435.1 1236.94   2
   9   2   1 60147.2 1468.77   2
   9  -2  -1 61595.8 1148.68   2
   9  -2  -3 39297.2 854.097   2
   9   2   3 38519.0 1321.73   2
   9   2   5 16851.4 938.675   2
   9   2   7 16828.8 988.551   2
  -9  -2   7 19398.4 1023.40   6
  -9  -2   7 18426.8 704.820   5
  -9  -2   7 19539.6 760.001   3
  -9  -2   9 44962.7 1185.18   3
   2   9   9 42063.5 1456.49   2
   9   2   9 45992.6 1628.03   2
  -9  -2   9 48775.6 1616.97   6
  -9   2  -9 44675.2 1196.70   1
  -9  -2   9 45386.9 1148.71   5
   2   9  11 1747.97 390.502   2
  -9   2 -11 2866.72 326.997   1
  -9  -2  11 2329.91 382.443   6
  -9  -2  11 2564.34 299.736   5
  -9  -2  13 51459.9 1292.27   5
  -9  -2  15 22883.8 866.286   3
  -2  -9  15 23688.3 873.997   5
  -9  -2  15 22487.7 836.815   5
  -9  -2  17 27050.4 871.238   3
  -2  -9  17 27116.7 846.098   5
  -9  -2  17 26669.7 856.584   5
  -2  -9  19 10879.4 446.121   5
  -9  -2  19 11553.6 486.830   5
  -9  -2  19 11340.9 490.669   3
   2  -9 -21 2490.13 233.107   4
   3  -9  20 7437.29 366.455   5
  -9   3  20 8462.59 381.155   3
   3  -9  18 27056.7 917.345   5
  -9   3  18 28166.8 848.835   3
  -9   3  16 45858.1 1220.44   3
  -9   3  14 60115.4 1472.35   3
  -9   3  12 22159.7 916.453   3
  -9   3  12 23108.8 1172.40   6
  -9   3  10 20016.5 846.923   3
   9  -3  10 16688.5 875.140   7
  -9  -3 -10 19703.6 822.019   1
   3  -9  10 19583.0 997.557   7
   9  -3  10 19015.3 794.903   2
  -9  -3  -8 50713.9 1278.29   1
   9  -3   8 47701.6 1221.98   2
   3  -9   8 49485.0 1531.79   7
  -9   3   8 47632.4 1275.02   3
  -9  -3  -6 32381.0 947.828   1
   3  -9   6 32507.5 1157.52   4
   3  -9   6 33874.6 1232.98   7
   9  -3   6 33532.8 998.582   2
  -9   3   6 33668.3 1042.70   3
   9  -3   4 50020.0 1190.71   2
  -9  -3  -4 47875.4 1126.65   1
   9  -3   2 46583.1 1109.34   2
   9   3   0 93254.0 1903.32   2
   9  -3   0 105782. 1573.79   2
   9  -3  -2 46218.8 998.518   2
   9   3   2 43964.1 1464.86   2
  -9  -3   4 51003.2 1565.03   6
   9   3   4 45176.8 1601.72   2
   3   9   6 29188.4 1123.12   2
   3  -9  -6 32059.4 1153.09   4
  -3  -9   6 29488.4 1124.89   6
   9   3   6 30671.0 1399.15   2
  -9   3  -6 31987.5 1092.85   3
  -9  -3   6 35084.6 1322.19   6
  -9  -3   6 35219.1 1002.10   3
   3   9   8 46191.9 1534.68   2
  -9  -3   8 50491.3 1624.31   6
   9   3   8 44532.5 1718.12   2
  -9  -3   8 48788.5 1141.09   5
  -9  -3   8 47999.2 1193.72   3
  -9  -3  10 19274.0 781.634   3
   3   9  10 17918.7 1058.84   2
  -9  -3  10 19822.7 1018.77   6
   9   3  10 17817.8 1082.56   2
  -9  -3  10 19974.7 762.358   5
  -9  -3  12 21768.6 845.983   3
  -9  -3  12 21345.8 1012.30   6
  -9  -3  12 21796.2 821.125   5
  -9  -3  14 59782.5 1387.19   3
  -9  -3  14 58080.8 1332.05   5
  -9  -3  16 46314.0 1166.14   3
  -3  -9  16 46405.2 1106.17   5
  -9  -3  16 46395.2 1128.03   5
  -3  -9  18 27720.8 731.186   5
  -9  -3  18 27009.3 776.858   5
  -9  -3  18 29550.3 819.192   3
   3  -9 -20 9176.16 488.887   4
  -9  -3  20 8819.77 358.375   3
   4  -9  19 2439.34 249.517   5
   9  -4  19 2090.68 235.697   5
  -9   4  19 2810.30 243.234   3
  -9   4  17 6860.46 442.623   3
  -9   4  15 7193.66 497.133   3
  -9   4  13 1951.24 368.317   6
  -9   4  13 2218.95 301.072   3
   9  -4  11 8343.30 647.218   7
   4  -9  11 9074.60 707.112   7
  -9   4  11 9186.87 591.259   3
  -9  -4  -9 2972.98 338.245   1
   9  -4   9 2217.39 334.458   7
   4  -9   9 3177.86 430.585   7
   9  -4   9 3304.50 336.050   2
  -9   4   9 3359.31 350.752   3
  -9  -4  -7 22209.0 817.728   1
   4  -9   7 22661.5 1073.57   7
   4  -9   7 20784.0 984.592   4
   9  -4   7 19395.7 974.622   7
   9  -4   7 21884.1 822.022   2
  -9   4   7 22341.5 869.753   3
   4  -9   5 11486.7 720.568   4
  -9  -4  -5 11328.8 563.987   1
   9  -4   5 11942.6 592.444   2
   4  -9   3 11100.3 698.061   4
  -4  -9  -3 10609.1 739.706   6
   9  -4   3 12087.6 576.565   2
  -9   4   3 11217.6 594.440   3
   9  -4   1 2713.11 269.047   2
   9  -4  -1 2972.65 280.187   2
   9   4   1 2544.41 399.886   2
   4   9   3 10061.4 634.388   2
   4  -9  -3 10904.9 653.636   4
  -9  -4   3 11790.5 757.228   6
  -4  -9   3 10980.4 704.903   6
  -9   4  -3 10736.3 601.952   3
   9   4   3 9224.95 772.815   2
   4   9   5 11504.6 712.791   2
   4  -9  -5 11805.3 716.090   4
  -9  -4   5 12863.8 803.505   6
   9   4   5 9470.78 841.525   2
  -4  -9   5 11546.1 720.822   6
  -9   4  -5 11739.1 650.218   3
   4   9   7 19507.0 1000.28   2
   4  -9  -7 23318.4 1027.91   4
   9   4   7 19961.4 1229.94   2
  -4  -9   7 18686.2 907.451   6
  -9  -4   7 21360.9 1054.21   6
  -9  -4   7 23726.7 824.606   3
   4   9   9 2450.19 413.968   2
   9   4   9 2617.60 515.854   2
  -9  -4   9 2805.87 399.659   6
  -9  -4   9 3152.62 302.252   5
  -9  -4   9 3116.93 317.673   3
  -9  -4  11 9502.39 687.423   6
  -9  -4  11 8450.46 496.030   5
  -9  -4  11 9188.72 537.328   3
  -9  -4  13 2002.54 267.749   3
  -9  -4  13 2780.66 292.901   5
  -9  -4  15 6860.81 439.540   5
  -9  -4  15 5624.74 410.329   3
   4  -9 -17 7194.98 574.509   4
  -9  -4  17 6415.91 386.442   5
  -9  -4  17 7945.78 435.731   3
   4  -9 -19 2403.17 282.272   4
  -9  -4  19 2736.76 216.012   3
  -9   5  18 412.481 120.331   3
   5  -9  18 433.179 144.390   5
  -9   5  16 6104.04 424.267   3
  -9   5  14 4869.94 484.315   6
  -9   5  14 8590.31 541.809   3
   5  -9  12 6860.81 635.149   7
  -9   5  12 8194.73 549.696   3
  -9   5  10 124.150 124.554   3
   9  -5  10-68.3866 183.010   7
   5  -9  10 315.670 225.404   7
  -9  -5  -8 99.4570 113.301   1
  -9   5   8 327.026 152.428   3
   9  -5   8 217.522 130.677   2
   9  -5   8 229.333 148.536   7
   5  -9   8 341.810 212.141   7
  -9   5   6 699.411 186.023   3
   9  -5   6 608.962 202.322   7
   9  -5   6 634.309 166.782   2
  -9  -5  -6 92.9818 103.937   1
   5  -9   6 344.920 216.182   7
   5  -9   6 1000.02 260.463   4
   9  -5   4 4818.81 479.221   4
   5  -9   4 4441.86 483.346   4
  -9  -5  -4 4931.97 486.275   6
  -5  -9  -4 4369.94 484.999   6
  -9   5   4 4922.70 406.608   3
   9  -5   4 5395.33 413.752   2
   9  -5   2 6794.12 440.202   2
   5   9  -2 4827.36 418.389   2
   9  -5   2 5932.86 501.295   4
   5  -9   2 6181.20 537.195   4
  -9   5   2 6428.84 446.384   3
  -5  -9  -2 6824.89 592.735   6
  -9  -5  -2 5843.88 531.249   6
   9  -5   0 33604.5 935.314   2
   5   9   0 27829.1 1030.27   2
  -9   5   0 29707.5 953.275   3
   9  -5   0 30263.7 1090.90   4
   5  -9   0 32945.3 1190.70   4
   9   5   0 26933.6 1189.71   2
  -9  -5   0 32472.0 1235.01   6
  -5  -9   0 33809.6 1268.14   6
   5   9   2 5830.10 503.070   2
  -5  -9   2 5795.54 539.028   6
  -9  -5   2 6285.36 575.264   6
   9  -5  -2 5954.21 495.231   4
   5  -9  -2 5970.65 510.981   4
   9   5   2 5185.08 610.485   2
  -9   5  -2 5959.43 438.209   3
   5   9   4 4076.31 448.801   2
   9  -5  -4 3641.33 376.064   4
   5  -9  -4 4904.90 477.733   4
   9   5   4 5257.86 635.731   2
  -5  -9   4 4776.12 471.979   6
  -9   5  -4 4443.22 401.598   3
  -9  -5   4 4610.38 506.275   6
   9  -5  -6 788.998 199.968   4
   5   9   6 378.089 202.384   2
   9   5   6 473.911 282.924   2
  -9  -5   6 641.965 227.187   6
   5  -9  -6 692.185 233.287   4
  -5  -9   6 332.235 196.573   6
   5   9   8 126.031 197.349   2
   9   5   8 156.076 276.516   2
  -5  -9   8 813.579 216.644   6
  -9  -5   8 819.212 244.428   6
   9  -5  -8 424.641 180.062   4
   5  -9  -8 217.875 225.167   4
   9  -5 -10 200.829 158.506   4
   5  -9 -10 483.226 236.126   4
  -9  -5  10 612.696 208.896   6
   5  -9 -12 8067.14 671.665   4
  -9  -5  12 6492.14 531.976   6
   9  -5 -12 5780.24 476.084   4
  -9  -5  12 7594.81 457.281   5
  -9  -5  12 7684.66 476.142   3
   5  -9 -14 9058.93 685.998   4
  -9  -5  14 7718.40 454.485   5
  -9  -5  14 7998.80 479.414   3
   5  -9 -16 6731.49 558.091   4
  -9  -5  16 5956.29 369.837   5
  -9  -5  16 6905.29 403.877   3
  -9  -5  18 708.529 122.854   5
   5  -9 -18 768.235 205.193   4
   6  -9  19 56.9517 65.3554   5
   9  -6  19 12.0338 76.4085   5
  -9   6  17 2668.10 259.373   3
  -9   6  15 8875.75 505.221   3
  -9   6  13 15057.5 698.988   3
   9  -6  11 1822.09 354.774   7
   6  -9  11 1286.91 313.233   7
  -9   6  11 1677.17 263.642   3
  -9   6   9 346.716 144.247   3
   6  -9   9-60.1832 163.181   7
   9  -6   9-12.4757 145.232   7
  -9  -6  -7 1559.82 237.816   1
   6  -9   7 1658.45 347.933   4
   6  -9   7 2021.32 369.948   7
   9  -6   7 1832.20 255.920   2
   9  -6   7 1757.90 334.984   7
  -9   6   7 2579.34 316.190   3
   9  -6   5 4913.02 407.358   2
   9  -6   5 4576.94 493.784   4
   6  -9   5 3727.29 458.218   4
  -9  -6  -5 3843.28 349.711   1
  -9  -6  -5 3292.00 394.134   6
  -6  -9  -5 4391.43 505.641   6
  -9   6   5 4114.21 367.098   3
  -6  -9  -3 26137.6 1157.80   6
   9  -6   3 25832.9 876.117   2
   9  -6   3 24712.6 1075.83   4
   6  -9   3 24398.5 1090.92   4
  -9  -6  -3 24533.5 1066.60   6
  -9   6   3 23476.5 836.763   3
  -9   6   1 9173.06 528.476   3
   9  -6   1 10554.3 556.805   2
   6   9  -1 6408.98 532.044   2
   9  -6   1 7887.05 598.598   4
   6  -9   1 8686.45 646.589   4
  -6  -9  -1 9655.83 697.169   6
  -9  -6  -1 8839.92 661.966   6
   6   9   1 7583.41 594.701   2
   9  -6  -1 8286.60 606.696   4
   6  -9  -1 9329.53 663.672   4
   9   6   1 8185.44 732.764   2
  -6  -9   1 9560.10 677.514   6
  -9  -6   1 9336.57 680.204   6
  -9   6  -1 8088.78 508.013   3
  -9   6  -3 23164.9 872.104   3
   6   9   3 22125.8 1048.41   2
   9  -6  -3 22874.3 966.278   4
   6  -9  -3 23370.1 1018.90   4
   9   6   3 22004.9 1277.71   2
  -6  -9   3 25406.3 1081.70   6
  -9  -6   3 24697.8 1107.65   6
  -9  -6   5 3820.87 458.022   6
   6   9   5 4081.19 502.273   2
   9  -6  -5 3549.63 399.977   4
   6  -9  -5 4350.70 465.404   4
   9   6   5 4170.36 636.583   2
  -6  -9   5 4110.45 452.422   6
   6   9   7 2416.44 416.688   2
   9   6   7 2048.59 496.011   2
  -6  -9   7 1660.01 319.691   6
   6  -9  -7 1813.30 314.359   4
   9  -6  -7 1975.91 297.611   4
  -9  -6   7 1786.92 335.443   6
   9  -6  -9 306.274 157.917   4
  -9  -6   9 334.752 181.635   6
   6  -9  -9 197.621 200.063   4
  -6  -9   9 365.766 168.569   6
   6  -9 -11 1551.21 317.509   4
   9  -6 -11 1483.70 266.174   4
  -9  -6  11 1180.31 258.014   6
   9  -6 -13 11827.2 657.428   4
   6  -9 -13 16186.3 893.337   4
   6  -9 -15 7852.13 601.435   4
  -9  -6  15 8840.95 437.651   5
   6  -9 -17 2490.90 307.254   4
   6  -9 -19 164.713 100.592   4
   7  -9  18 1869.52 211.313   5
  -9   7  14 2846.15 367.811   6
  -9   7  14 3387.37 310.313   3
   7  -9  12 1859.16 350.356   7
  -9   7  12 2489.60 295.346   3
  -9   7  10 5113.13 410.178   3
   9  -7  10 4066.31 493.137   7
   7  -9  10 4251.82 517.731   7
   9  -7   8 3948.51 489.569   7
   7  -9   8 3739.23 493.075   7
  -9   7   8 4329.89 368.979   3
   9  -7   6 419.699 186.331   7
   7  -9   6 25.9504 147.406   4
   7  -9   6 537.252 219.699   7
  -7  -9  -6 477.772 200.459   6
   9  -7   4 5581.19 426.693   2
   9  -7   4 5351.35 534.274   4
   7  -9   4 5267.77 543.782   4
  -7  -9  -4 5350.92 541.909   6
  -9  -7  -4 5388.31 508.239   6
   9  -7   2 302.204 160.185   4
   7  -9   2 518.590 224.765   4
  -9  -7  -2 398.888 180.809   6
  -7  -9  -2 400.474 211.021   6
   9  -7   0 31956.7 1215.63   4
   7  -9   0 32524.7 1268.18   4
  -7  -9   0 33786.5 1305.41   6
  -9  -7   0 33212.0 1278.90   6
   9  -7  -2 486.199 210.577   4
   7   9   2 517.396 204.589   2
   9   7   2 930.478 293.816   2
   7  -9  -2 376.827 191.593   4
  -7  -9   2 211.830 192.196   6
  -9  -7   2 381.335 182.243   6
   9   7   4 4414.05 631.047   2
   7   9   4 4673.42 544.285   2
   9  -7  -4 4530.33 459.674   4
   7  -9  -4 5087.60 500.784   4
  -7  -9   4 5330.47 518.343   6
  -9  -7   4 5035.50 529.665   6
   7  -9  -6 633.582 224.866   4
  -7  -9   6 475.189 209.472   6
  -9  -7   6 513.517 210.660   6
   9  -7  -6 364.057 197.186   4
   9  -7  -8 3464.35 409.955   4
   7  -9  -8 3641.26 445.166   4
  -7  -9   8 3464.25 412.473   6
  -9  -7   8 3372.19 428.954   6
   9  -7 -10 3912.08 436.167   4
   7  -9 -10 4475.39 490.865   4
  -9  -7  10 4192.60 444.838   6
  -7  -9  10 3641.62 410.177   6
   9  -7 -12 2261.60 317.086   4
   7  -9 -12 1993.45 353.139   4
   9  -7 -14 2611.83 310.984   4
   7  -9 -14 3146.70 400.890   4
   9  -7 -16 2643.61 263.821   4
   7  -9 -16 3075.05 326.998   4
   7  -9 -18 1860.20 206.490   4
   9  -8  11 24242.0 1124.43   7
   8  -9  11 24321.3 1141.90   7
   8  -9   9 7555.23 670.452   7
   9  -8   9 8059.23 685.174   7
   8  -9   7 10874.5 809.935   7
   9  -8   7 10914.7 814.738   7
   9  -8   5 25722.0 1192.65   4
   8  -9   5 25795.0 1192.79   4
  -9  -8  -5 25287.0 1127.39   6
  -8  -9  -5 24412.8 1153.63   6
   9  -8   3 43552.8 1506.40   4
   8  -9   3 42270.9 1494.60   4
  -8  -9  -3 42574.0 1509.81   6
  -9  -8  -3 40878.0 1420.81   6
   9  -8   1 36111.3 1342.24   4
   8  -9   1 36335.0 1363.93   4
  -8  -9  -1 37869.5 1396.38   6
  -9  -8  -1 37567.2 1369.39   6
   9  -8  -1 35395.5 1313.99   4
   8  -9  -1 36357.7 1348.18   4
  -8  -9   1 36575.1 1366.63   6
  -9  -8   1 37113.1 1358.81   6
   9  -8  -3 40839.1 1396.05   4
   8  -9  -3 40278.4 1401.79   4
  -8  -9   3 43283.8 1465.30   6
  -9  -8   3 43158.4 1463.39   6
  -9  -8   5 25711.5 1129.97   6
   9  -8  -5 25315.0 1080.18   4
   8  -9  -5 24218.9 1082.36   4
  -8  -9   5 25854.4 1122.75   6
   9  -8  -7 9917.06 683.878   4
   8  -9  -7 10718.4 720.350   4
  -9  -8   7 10410.1 709.566   6
  -8  -9   7 10537.0 704.620   6
   9  -8  -9 7098.15 564.822   4
   8  -9  -9 7886.39 615.725   4
  -8  -9   9 7819.48 592.310   6
  -9  -8   9 6845.02 566.018   6
   9  -8 -11 22752.5 957.547   4
   8  -9 -11 23026.7 993.881   4
  -9  -8  11 21749.2 912.185   6
   9  -8 -13 40991.9 1184.64   4
   8  -9 -13 41412.3 1254.50   4
   9  -8 -15 21323.8 753.843   4
   8  -9 -15 22460.1 823.291   4
   8  -9 -17 14228.5 527.026   4
  -9   9  14 26046.5 897.043   6
   9  -9  10 5580.21 551.968   7
   9  -9   8 1298.73 303.309   7
  -9  -9  -6 8545.29 673.376   6
   9  -9   6 8179.55 699.293   7
  -9  -9  -4 20887.5 1054.62   6
   9  -9   4 21958.8 1087.38   4
   9  -9   2 33455.4 1326.75   4
  -9  -9  -2 33515.3 1318.85   6
   9  -9   0 1892.53 344.958   4
  -9  -9   0 1787.03 344.376   6
   9  -9  -2 32714.0 1282.31   4
  -9  -9   2 31739.8 1281.62   6
   9  -9  -4 20219.1 995.936   4
  -9  -9   4 21648.6 1040.44   6
   9  -9  -6 9013.84 664.684   4
  -9  -9   6 8965.97 675.417   6
  -9  -9   8 983.839 238.177   6
   9  -9  -8 1332.59 284.945   4
   9  -9 -10 5534.87 495.229   4
  -9  -9  10 3777.25 406.964   6
   9  -9 -12 21997.8 885.340   4
   9  -9 -14 28779.2 896.864   4
   9  -9 -16 9168.25 406.443   4
  10   0   0 365500. 3039.56   2
 -10   0   0 383957. 3500.36   3
  10   0   2 73097.4 1491.98   2
 -10   0  -2 73412.1 1583.75   3
 -10   0   2 73895.7 1922.74   6
 -10   0   2 74866.2 1557.29   3
 -10   0  -4 55316.3 1437.26   3
  10   0   4 53394.8 1351.91   2
 -10   0   4 60321.2 1796.04   6
 -10   0   4 61863.6 1476.76   3
   0 -10  -6 46972.1 1352.45   4
 -10   0  -6 49657.7 1409.36   3
  10   0   6 45039.8 1307.95   2
 -10   0   6 51743.8 1713.07   6
 -10   0   6 49679.4 1306.97   3
 -10   0   8 26626.8 1261.81   6
  10   0   8 24602.3 984.341   2
 -10   0   8 23654.1 909.920   3
 -10   0  -8 24346.6 920.052   1
 -10   0  10 1163.31 239.898   3
 -10   0  10 1071.00 321.317   6
 -10   0  10 1406.32 244.072   5
 -10   0  12 140597. 2197.77   5
 -10   0  12 140606. 2798.24   6
   0 -10  14 70743.1 1589.58   5
 -10   0  14 67687.2 1506.15   5
   0 -10  16 55834.0 1266.01   5
 -10   0  16 54102.6 1263.59   3
   0 -10  18 19810.8 627.105   5
 -10   0  18 20322.1 684.994   3
   0 -10 -20 4885.60 314.959   4
 -10   0  20 4621.36 272.079   3
   1 -10  19 3503.36 239.372   5
  -1 -10 -19 4031.53 318.518   4
 -10   1  19 3935.37 284.961   3
   1 -10  17 10315.4 524.495   5
 -10   1  17 10270.8 525.739   3
   1 -10  15 23891.3 928.920   5
 -10   1  15 23090.5 887.280   3
 -10   1  13 33318.4 1317.81   6
 -10   1  13 32761.4 1103.97   3
 -10   1  11 20070.9 1099.94   6
 -10   1  11 19978.4 859.671   3
 -10  -1  -9 2115.41 280.549   1
   1 -10   9 2394.20 343.223   7
 -10   1   9 2093.84 419.258   6
  10  -1   9 2403.71 335.364   2
 -10   1   9 2433.35 315.248   3
   1 -10   7 12797.7 730.115   7
  10  -1   7 11459.9 655.461   2
 -10   1   7 13111.4 910.122   6
 -10  -1  -7 11626.4 629.344   1
 -10   1   7 12145.9 659.869   3
 -10  -1  -5 18119.5 832.419   3
  10  -1   5 17582.6 775.009   2
 -10   1   5 18479.0 1048.73   6
 -10   1   5 19072.3 845.807   3
 -10  -1  -3 24044.0 915.681   3
  10  -1   3 22606.6 831.950   2
 -10   1   3 23700.2 1145.40   6
 -10   1   3 24466.6 907.263   3
 -10  -1  -1 66768.6 1474.85   3
 -10   1   1 64536.1 1810.04   6
  10  -1   1 63587.9 1308.49   2
 -10   1   1 65779.1 1470.20   3
 -10  -1   1 65243.7 1767.90   6
 -10   1  -1 64399.0 1478.40   3
 -10  -1   1 66012.5 1439.81   3
  10  -1  -1 63305.1 1222.10   2
  10   1   3 21984.5 887.498   2
 -10   1  -3 22708.5 905.472   3
 -10  -1   3 23291.0 1099.94   6
 -10  -1   3 23673.1 876.838   3
  10   1   5 16550.7 849.686   2
 -10   1  -5 17605.0 836.835   3
   1 -10  -5 17177.1 829.098   4
 -10  -1   5 19019.9 1030.30   6
 -10  -1   5 19885.5 840.908   3
  10   1   7 12213.3 749.138   2
 -10  -1   7 12832.8 886.032   6
 -10  -1   7 11755.4 630.935   3
   1  10   9 1133.78 265.289   2
  10   1   9 1442.11 299.890   2
 -10  -1   9 2225.72 426.039   6
 -10  -1   9 1991.89 265.507   5
 -10  -1   9 1948.57 281.502   3
 -10  -1  11 20065.3 1074.84   6
 -10  -1  11 19440.8 802.827   5
 -10  -1  11 18933.9 818.757   3
 -10  -1  13 32540.3 1265.37   6
 -10  -1  13 32804.4 1039.16   5
 -10  -1  13 33453.3 1085.24   3
  -1 -10  15 25000.4 852.049   5
 -10  -1  15 23306.4 843.269   5
 -10  -1  15 23225.3 862.529   3
  -1 -10  17 9801.20 467.047   5
 -10  -1  17 10224.4 516.834   3
   1 -10 -19 4301.68 356.386   4
 -10  -1  19 3725.55 271.334   3
 -10   2  20 127.770 67.8856   3
 -10   2  18 693.504 147.993   3
   2 -10  18 898.155 155.014   5
   2 -10  16 2173.36 281.663   5
 -10   2  16 1864.81 251.220   3
 -10   2  14 534.364 170.182   3
 -10   2  12 11519.9 818.580   6
 -10   2  12 11095.0 645.050   3
   2 -10  10 14651.5 841.243   7
 -10   2  10 15288.0 994.592   6
 -10   2  10 13662.1 710.609   3
  10  -2   8 1930.17 280.347   2
 -10  -2  -8 1514.70 238.699   1
   2 -10   8 1920.25 327.806   7
 -10   2   8 2232.35 420.286   6
 -10   2   8 2176.40 297.977   3
 -10   2   6 1493.19 252.135   3
  10  -2   6 1247.00 227.058   2
   2 -10   6 1086.09 243.311   7
 -10  -2  -6 965.566 204.022   1
 -10   2   6 999.994 308.089   6
   2 -10   4 2468.79 332.286   7
 -10  -2  -4 2425.68 311.061   3
  10  -2   4 2723.43 315.083   2
 -10   2   4 2383.59 310.413   3
 -10  -2  -2 5529.42 433.132   3
 -10  -2  -2 5428.98 512.061   6
  10  -2   2 5889.05 418.907   2
 -10   2   2 5716.54 441.547   3
 -10   2   0 3927.03 478.996   6
 -10  -2   0 2922.57 402.725   6
  10   2   0 3462.32 336.408   2
 -10  -2   0 4122.79 369.508   3
 -10   2   0 3460.48 354.456   3
  10  -2   0 3863.34 331.680   2
   2 -10  -2 5824.57 474.886   4
  10   2   2 4860.41 454.783   2
 -10   2  -2 5309.25 442.368   3
 -10  -2   2 5899.62 557.224   6
 -10  -2   2 6212.18 444.980   3
  10  -2  -2 5231.41 344.895   2
  10   2   4 1395.73 278.020   2
   2 -10  -4 2130.19 307.001   4
 -10   2  -4 1786.93 274.382   3
 -10  -2   4 1986.64 265.877   3
 -10  -2   4 1635.48 345.684   6
 -10  -2   6 1157.49 212.852   3
  10   2   6 801.071 241.838   2
   2 -10  -6 1026.88 257.407   4
 -10   2  -6 1141.29 220.621   3
 -10  -2   6 610.391 247.850   6
  10   2   8 1798.35 332.655   2
 -10  -2   8 2014.55 391.114   6
 -10  -2   8 2464.12 297.664   3
 -10  -2  10 13765.0 895.049   6
 -10  -2  10 13632.4 656.976   5
 -10  -2  10 13868.8 685.953   3
 -10  -2  12 11212.5 776.310   6
 -10  -2  12 11046.7 594.404   5
 -10  -2  12 10989.3 617.679   3
 -10  -2  14 331.373 140.396   3
 -10  -2  14 158.677 118.400   5
 -10  -2  16 1952.76 242.448   5
 -10  -2  16 1769.28 241.749   3
 -10  -2  18 842.330 148.683   3
   2 -10 -18 1065.27 215.580   4
   2 -10 -20 152.368 90.0944   4
   3 -10  19 1317.53 154.691   5
 -10   3  19 1419.43 174.390   3
   3 -10  17 3981.99 343.028   5
 -10   3  17 3865.08 322.583   3
 -10   3  15 10743.9 597.297   3
 -10   3  13 18772.1 984.227   6
 -10   3  13 20163.5 856.344   3
 -10   3  11 2193.05 414.763   6
 -10   3  11 2428.42 315.587   3
   3 -10   9 5528.95 532.766   7
 -10   3   9 4872.54 609.131   6
 -10   3   9 6041.52 479.369   3
   3 -10   7 4375.34 480.302   7
 -10  -3  -7 3756.63 355.575   1
  10  -3   7 4129.97 375.330   2
 -10   3   7 4343.78 417.231   3
   3 -10   5 2788.22 363.055   4
   3 -10   5 3234.78 404.279   7
  10  -3   5 2882.53 319.782   2
 -10   3   5 3431.94 377.600   3
 -10  -3  -3 1781.37 279.422   3
   3 -10   3 2081.49 299.984   4
 -10   3   3 2149.90 279.617   3
 -10  -3  -3 1515.74 296.604   6
  10  -3   3 1724.29 239.611   2
 -10  -3  -1 22787.8 1052.40   6
   3 -10   1 23283.8 976.174   4
 -10  -3  -1 24654.7 874.442   3
 -10   3   1 23640.9 889.307   3
  10  -3   1 24508.9 832.446   2
  10  -3  -1 23535.0 772.946   2
   3 -10  -1 21265.6 922.821   4
  -3 -10   1 23281.4 1094.41   6
  10   3   1 22278.8 944.300   2
 -10  -3   1 23913.6 1091.89   6
 -10   3  -1 23303.0 903.824   3
 -10  -3   1 24857.5 855.646   3
 -10   3  -3 1642.45 260.321   3
  10   3   3 1613.48 350.927   2
   3 -10  -3 2168.83 326.239   4
  -3 -10   3 1752.00 335.769   6
 -10  -3   3 2474.96 279.951   3
 -10  -3   3 2125.36 351.892   6
  10   3   5 2824.72 446.471   2
   3 -10  -5 3233.70 396.235   4
  -3 -10   5 1858.63 350.820   6
 -10   3  -5 2619.78 335.089   3
 -10  -3   5 2715.61 428.160   6
 -10  -3   5 3178.14 333.310   3
   3  10   7 3870.17 490.102   2
  10   3   7 2880.40 453.697   2
   3 -10  -7 4232.43 460.638   4
 -10  -3   7 3927.41 503.107   6
 -10  -3   7 4924.30 411.945   3
   3 -10  -9 5293.21 531.891   4
 -10  -3   9 5020.68 562.898   6
 -10  -3   9 5324.26 396.731   5
 -10  -3   9 5749.10 439.750   3
 -10  -3  11 2366.42 377.096   6
 -10  -3  11 2226.61 272.788   5
 -10  -3  11 2227.63 287.169   3
 -10  -3  13 19986.3 770.949   5
 -10  -3  13 19767.5 794.337   3
 -10  -3  15 10892.5 546.572   5
 -10  -3  15 10649.4 554.984   3
   3 -10 -17 4637.64 431.294   4
 -10  -3  17 3958.27 309.073   3
   3 -10 -19 1722.62 233.195   4
 -10  -3  19 1321.86 146.422   3
   4 -10  18 1641.39 203.444   5
 -10   4  18 2074.92 224.420   3
 -10   4  16 48.0603 108.221   3
 -10   4  14 192.613 128.927   3
 -10   4  14 488.369 172.358   6
 -10   4  12 873.162 213.391   3
 -10   4  12 1030.12 311.853   6
  10  -4  10 1461.15 282.739   7
   4 -10  10 1275.17 310.706   7
 -10   4  10 1945.83 295.976   3
  10  -4   8 6978.49 590.372   7
   4 -10   8 7675.39 644.529   7
 -10   4   8 8960.61 593.438   3
 -10  -4  -6 3032.30 322.568   1
   4 -10   6 2762.74 392.397   4
  10  -4   6 3141.75 408.233   7
   4 -10   6 3254.33 447.386   7
 -10   4   6 3708.38 394.613   3
  10  -4   6 3720.28 356.185   2
 -10   4   4 71.3859 134.029   3
  10  -4   4 148.135 116.846   2
   4 -10   4 394.433 140.719   4
 -10  -4  -4 165.402 157.149   6
 -10   4   2 676.965 185.737   3
  10  -4   2 652.542 158.927   2
  10  -4   2 341.094 150.515   4
   4 -10   2 830.010 233.243   4
 -10  -4  -2 360.602 173.600   6
  10  -4   0 3967.55 345.684   2
   4 -10   0 4814.54 471.625   4
  -4 -10   0 3222.83 443.390   6
 -10  -4   0 4238.12 482.639   6
 -10   4   0 4062.05 382.038   3
  10  -4   0 2962.42 330.472   4
 -10   4  -2 722.030 185.402   3
 -10  -4   2 1071.90 193.941   3
   4  10   2 1083.06 277.675   2
  10   4   2 581.544 236.983   2
  10  -4  -2 1024.04 180.541   2
   4 -10  -2 568.735 193.968   4
  -4 -10   2 963.370 280.113   6
 -10  -4   2 627.670 218.990   6
 -10   4  -4 365.218 147.125   3
 -10  -4   4 331.842 121.244   3
   4  10   4 306.013 165.004   2
  10   4   4 409.309 298.077   2
   4 -10  -4 375.273 172.510   4
  -4 -10   4 179.582 149.333   6
 -10  -4   4-7.50702 184.525   6
   4  10   6 2868.23 400.526   2
  10   4   6 3917.88 550.996   2
   4 -10  -6 3530.08 434.248   4
 -10  -4   6 2975.21 438.795   6
  -4 -10   6 2923.63 408.394   6
 -10  -4   6 3677.86 355.382   3
   4 -10  -8 7479.65 620.241   4
 -10  -4   8 6781.84 634.269   6
  -4 -10   8 6649.34 577.614   6
 -10  -4   8 8506.89 534.472   3
   4 -10 -10 1601.59 330.174   4
 -10  -4  10 2050.41 369.504   6
 -10  -4  10 1912.23 247.642   5
 -10  -4  10 2012.09 267.430   3
 -10  -4  12 891.895 185.027   3
 -10  -4  12 742.091 160.171   5
   4 -10 -12 800.931 283.150   4
 -10  -4  12 625.581 211.133   6
 -10  -4  14 218.099 109.040   3
 -10  -4  14 279.479 116.489   5
   4 -10 -14 56.3571 211.247   4
 -10  -4  16 99.2084 86.6180   3
   4 -10 -16-80.1882 209.925   4
   4 -10 -18 2151.91 273.242   4
 -10  -4  18 1406.50 158.975   3
   5 -10  17 15168.7 642.328   5
 -10   5  17 16978.9 607.147   3
 -10   5  15 21589.8 807.417   3
 -10   5  13 29098.5 1198.57   6
 -10   5  13 36913.1 1131.35   3
   5 -10  11 34176.9 1353.06   7
 -10   5  11 34901.8 1140.41   3
  10  -5   9 5892.66 559.768   7
   5 -10   9 5776.53 571.906   7
 -10   5   9 7224.31 544.034   3
   5 -10   7 53019.0 1692.42   7
 -10   5   7 56232.5 1438.42   3
  10  -5   5 52110.6 1295.47   2
   5 -10   5 49455.9 1560.64   4
   5 -10   5 49678.7 1597.23   7
 -10   5   5 49429.5 1292.90   3
  10  -5   3 10863.8 589.362   2
  -5 -10  -3 9263.38 742.653   6
  10  -5   3 8750.97 629.800   4
   5 -10   3 10037.1 705.415   4
 -10  -5  -3 8615.42 660.725   6
 -10   5   3 9331.70 564.242   3
  10  -5   1 82391.6 1575.78   2
   5  10  -1 65322.5 1605.81   2
  10  -5   1 69206.6 1686.71   4
   5 -10   1 76446.1 1879.86   4
  -5 -10  -1 79934.1 2090.12   6
 -10  -5  -1 76145.4 1946.39   6
 -10   5   1 71396.4 1544.47   3
   5  10   1 65994.2 1694.48   2
  10   5   1 68270.1 1904.47   2
  10  -5  -1 68982.7 1643.67   4
   5 -10  -1 75151.4 1830.28   4
 -10  -5   1 76777.4 1977.11   6
  -5 -10   1 76652.2 2007.89   6
 -10   5  -1 73301.3 1586.80   3
  10   5   3 8652.56 758.158   2
   5  10   3 7994.31 633.093   2
  10  -5  -3 7802.69 550.100   4
 -10   5  -3 8783.83 572.985   3
   5 -10  -3 8800.80 634.127   4
  -5 -10   3 8759.35 683.316   6
 -10  -5   3 9388.39 716.935   6
   5  10   5 43731.1 1546.73   2
  10  -5  -5 41657.1 1252.13   4
   5 -10  -5 49095.9 1469.43   4
  10   5   5 42728.7 1775.36   2
  -5 -10   5 46168.7 1507.15   6
 -10  -5   5 52724.3 1686.28   6
   5 -10  -7 53629.9 1576.46   4
 -10  -5   7 50615.7 1654.11   6
   5 -10  -9 6380.55 590.957   4
  -5 -10   9 5251.82 509.647   6
 -10  -5   9 5872.77 575.749   6
   5 -10 -11 34060.6 1307.80   4
 -10  -5  11 29097.5 1181.62   6
   5 -10 -13 36431.6 1333.09   4
 -10  -5  13 34670.5 919.484   5
 -10  -5  13 37689.2 1016.74   3
   5 -10 -15 22240.2 967.891   4
   5 -10 -17 17948.7 743.792   4
   5 -10 -19 19258.5 578.009   4
   6 -10  18 13004.7 472.877   5
 -10   6  16 21801.6 658.972   3
 -10   6  14 26993.5 1017.89   6
 -10   6  14 28068.3 889.905   3
 -10   6  12 24514.8 1154.27   6
 -10   6  12 29837.1 1003.25   3
  10  -6  10 16414.5 924.210   7
   6 -10  10 17432.1 983.408   7
 -10   6  10 18719.1 808.550   3
   6 -10   8 24295.9 1171.67   7
  10  -6   8 21470.0 1088.81   7
 -10   6   8 24176.8 906.711   3
   6 -10   6 43682.6 1521.32   4
   6 -10   6 45876.7 1596.37   7
 -10   6   6 42877.9 1187.65   3
  10  -6   6 40883.7 1487.22   7
  10  -6   4 66105.3 1454.65   2
  10  -6   4 55915.2 1643.66   4
   6 -10   4 62134.9 1781.57   4
 -10   6   4 58124.8 1364.63   3
 -10  -6  -4 60490.7 1663.18   6
  10  -6   2 16741.6 737.002   2
  10  -6   2 15081.9 838.087   4
   6 -10   2 14610.4 863.845   4
  -6 -10  -2 15298.2 937.275   6
 -10  -6  -2 14497.2 854.885   6
 -10   6   2 13078.4 651.284   3
  10  -6   0 71675.3 1767.75   4
   6 -10   0 75073.6 1906.26   4
  -6 -10   0 77476.1 2049.25   6
 -10  -6   0 75229.4 1951.23   6
 -10   6   0 70167.5 1521.16   3
   6  10   2 11393.8 774.125   2
  10   6   2 12956.8 946.528   2
  10  -6  -2 14259.3 793.576   4
   6 -10  -2 14965.4 846.239   4
  -6 -10   2 15481.1 909.662   6
 -10   6  -2 13021.2 677.368   3
 -10  -6   2 13672.6 860.451   6
   6  10   4 51864.4 1704.89   2
  10  -6  -4 54655.5 1512.03   4
   6 -10  -4 60894.1 1677.40   4
  10   6   4 54232.3 1997.24   2
 -10  -6   4 63831.3 1844.15   6
  -6 -10   4 59769.2 1731.93   6
  -6 -10   6 42164.7 1427.84   6
  10  -6  -6 39820.2 1266.42   4
   6 -10  -6 44765.0 1451.17   4
 -10  -6   6 42770.5 1520.96   6
  10  -6  -8 18873.5 869.680   4
  -6 -10   8 21027.6 993.017   6
 -10  -6   8 21125.4 1053.64   6
  10  -6 -10 14315.9 736.510   4
 -10  -6  10 15558.8 862.637   6
  10  -6 -12 19274.4 799.636   4
 -10  -6  12 23897.4 952.156   6
   6 -10 -14 28476.5 1075.23   4
   6 -10 -16 23367.0 858.638   4
   6 -10 -18 15681.7 553.952   4
   7 -10  17 2666.44 238.050   5
 -10   7  13 180.318 103.829   3
 -10   7  13 370.101 192.891   6
 -10   7  11 639.844 157.737   3
  10  -7  11 772.620 240.066   7
   7 -10  11 811.650 269.713   7
  10  -7   9 5112.35 548.652   7
   7 -10   9 6104.85 609.266   7
 -10   7   9 5665.48 419.179   3
 -10   7   7 3769.77 343.346   3
  10  -7   7 3600.47 478.672   7
   7 -10   7 4451.20 524.971   7
   7 -10   5 10968.4 776.766   4
 -10  -7  -5 10830.5 718.286   6
   7 -10   5 9699.34 743.769   7
 -10   7   5 9769.64 540.150   3
  10  -7   3 7514.87 621.687   4
   7 -10   3 7373.14 633.192   4
 -10  -7  -3 6789.37 594.359   6
  -7 -10  -3 8115.01 692.481   6
 -10   7   3 7266.37 474.120   3
 -10   7   1 985.883 195.441   3
  10  -7   1 1492.07 296.750   4
   7 -10   1 1437.80 322.646   4
  -7 -10  -1 979.816 277.278   6
 -10  -7  -1 1376.98 311.557   6
 -10   7  -1 900.074 189.530   3
   7 -10  -1 1112.25 290.084   4
  10  -7  -1 649.672 200.640   4
  -7 -10   1 1018.88 291.619   6
 -10  -7   1 997.943 280.798   6
  10  -7  -3 6786.02 573.308   4
   7 -10  -3 8222.42 646.556   4
  -7 -10   3 7532.66 638.073   6
 -10  -7   3 7477.57 654.321   6
  10  -7  -5 10037.0 671.118   4
   7 -10  -5 10387.6 726.533   4
  -7 -10   5 9523.48 707.892   6
 -10  -7   5 10360.6 745.502   6
  10  -7  -7 3566.47 407.488   4
   7 -10  -7 3978.26 459.362   4
  -7 -10   7 3492.73 436.648   6
 -10  -7   7 3369.70 448.523   6
  10  -7  -9 4346.99 427.928   4
   7 -10  -9 5103.79 523.560   4
  -7 -10   9 4364.12 453.658   6
 -10  -7   9 4907.11 493.656   6
  10  -7 -11 542.376 177.763   4
   7 -10 -11 857.734 249.548   4
 -10  -7  11 388.045 189.261   6
   7 -10 -13 6.42479 162.091   4
  10  -7 -13 294.696 146.213   4
   7 -10 -15 1005.16 208.768   4
   7 -10 -17 3092.33 267.988   4
 -10   8  14 2958.17 310.397   6
  10  -8  10 351.741 193.446   7
   8 -10  10 487.356 207.219   7
   8 -10   8 447.928 228.364   7
  10  -8   8 695.218 239.770   7
   8 -10   6 629.568 253.714   7
  10  -8   6 451.456 223.259   7
 -10  -8  -6 376.654 173.509   6
 -10  -8  -4 575.688 211.102   6
  10  -8   4 916.735 260.975   4
  -8 -10  -4 1101.59 308.491   6
   8 -10   4 650.104 239.439   4
  -8 -10  -2 276.685 176.764   6
  10  -8   2 453.942 213.929   4
   8 -10   2 554.565 233.889   4
 -10  -8  -2 252.955 163.070   6
  10  -8   0 32552.6 1257.56   4
   8 -10   0 33131.3 1308.12   4
  -8 -10   0 34241.6 1373.62   6
 -10  -8   0 33758.8 1306.57   6
  10  -8  -2 259.545 182.008   4
   8 -10  -2 490.513 210.774   4
  -8 -10   2 392.040 204.792   6
 -10  -8   2 708.388 215.738   6
   8 -10  -4 605.108 235.638   4
  10  -8  -4 596.623 210.922   4
  -8 -10   4 469.611 223.452   6
 -10  -8   4 494.464 221.794   6
  10  -8  -6 751.419 233.511   4
   8 -10  -6 357.686 194.508   4
  -8 -10   6 435.166 211.430   6
 -10  -8   6 605.750 227.889   6
   8 -10  -8 722.825 253.758   4
  10  -8  -8 609.975 208.590   4
  -8 -10   8 400.340 201.691   6
 -10  -8   8 334.916 175.612   6
  10  -8 -10-57.0892 125.749   4
   8 -10 -10-66.2337 171.392   4
  -8 -10  10 42.8939 116.119   6
 -10  -8  10 42.6007 130.026   6
  10  -8 -12 10475.3 579.410   4
   8 -10 -12 11791.0 674.779   4
  10  -8 -14 2919.29 274.496   4
   8 -10 -14 3373.05 339.273   4
   8 -10 -16 1398.67 186.950   4
 -10   9  13 688.002 202.471   6
  10  -9  11 207.270 162.078   7
   9 -10  11 125.380 151.327   7
  10  -9   9 23.4174 151.136   7
   9 -10   9 119.660 164.089   7
   9 -10   7 0.73252 154.818   7
  10  -9   7 311.569 195.902   7
   9 -10   5 415.474 204.264   4
 -10  -9  -5 159.607 149.768   6
   9 -10   5 553.621 214.477   7
  10  -9   5 484.237 208.699   7
  -9 -10  -3 954.874 261.682   6
   9 -10   3 1228.31 284.572   4
 -10  -9  -3 891.565 258.254   6
  10  -9   1 411.601 236.173   4
  -9 -10  -1 171.864 170.913   6
 -10  -9  -1 173.063 169.773   6
   9 -10   1 277.445 181.784   4
  10  -9  -1 341.461 181.021   4
   9 -10  -1 115.964 158.041   4
  -9 -10   1 209.098 188.279   6
 -10  -9   1-188.388 160.164   6
 -10  -9   3 1290.97 302.168   6
   9 -10  -3 1255.54 296.922   4
  -9 -10   3 850.434 268.681   6
  10  -9  -3 1242.25 281.170   4
  10  -9  -5 88.0286 124.684   4
   9 -10  -5 540.070 220.481   4
  -9 -10   5 256.608 201.104   6
 -10  -9   5 263.695 167.064   6
  10  -9  -7 202.556 181.324   4
   9 -10  -7 167.423 170.309   4
  -9 -10   7 177.457 171.345   6
 -10  -9   7 196.810 163.911   6
  -9 -10   9 150.134 125.544   6
  10  -9  -9 226.612 155.948   4
   9 -10  -9 14.2542 161.344   4
  10  -9 -11 455.756 183.946   4
   9 -10 -11 224.278 159.836   4
 -10  -9  11 123.951 120.027   6
  10  -9 -13 822.203 180.066   4
   9 -10 -13 847.204 195.018   4
   9 -10 -15 592.177 135.377   4
 -10  10  12 9239.67 561.634   6
  10 -10  10 2513.78 338.890   7
  10 -10   8 2118.21 343.709   7
  10 -10   6 5759.41 550.056   7
  10 -10   4 3006.30 405.968   4
 -10 -10  -4 2985.34 413.596   6
  10 -10   4 3223.69 434.937   7
  10 -10   2 1606.67 325.858   4
 -10 -10  -2 1684.18 339.964   6
  10 -10   0 65091.5 1753.82   4
 -10 -10   0 63745.6 1802.76   6
  10 -10  -2 1525.34 304.250   4
 -10 -10   2 1805.10 350.991   6
  10 -10  -4 2957.93 389.927   4
 -10 -10   4 2640.17 385.717   6
  10 -10  -6 4772.05 468.603   4
 -10 -10   6 4502.76 469.737   6
  10 -10  -8 1769.97 286.533   4
 -10 -10   8 1478.47 272.899   6
  10 -10 -10 2221.44 294.762   4
 -10 -10  10 2255.96 292.115   6
  10 -10 -12 11143.6 539.959   4
 -11   0  -1 202489. 2723.37   3
 -11   0  -1 192334. 3079.26   6
 -11   0   1 198939. 3204.19   6
 -11   0   1 199892. 2640.78   3
  11   0   1 194650. 2390.14   2
 -11   0  -3 139822. 2341.03   3
  11   0   3 138285. 2160.87   2
 -11   0   3 144434. 2829.56   6
 -11   0   3 138257. 2203.98   3
 -11   0  -5 83399.5 1874.80   3
  11   0   5 82376.8 1748.55   2
 -11   0   5 88211.2 2275.80   6
 -11   0   5 87929.2 1782.98   3
   0 -11  -7 57736.8 1515.25   4
  11   0   7 56108.8 1496.55   2
 -11   0   7 61434.9 1957.74   6
   0 -11  -9 12330.6 726.494   4
 -11   0   9 12431.7 907.815   6
 -11   0   9 12596.9 697.494   3
 -11   0  11 166417. 3109.01   6
 -11   0  11 158633. 2386.31   3
 -11   0  13 122914. 2422.72   6
 -11   0  13 125644. 2064.88   3
   0 -11 -15 88500.9 1777.45   4
 -11   0  15 90813.3 1645.58   3
   0 -11 -17 39510.5 1051.74   4
 -11   0  17 38471.2 957.368   3
 -11   0  19 23266.4 566.416   3
  -1 -11 -18 16910.7 584.353   4
 -11   1  18 17911.6 609.531   3
  -1 -11 -16 28335.6 920.478   4
 -11   1  16 27491.7 856.143   3
 -11   1  14 54125.5 1497.11   6
 -11   1  14 55554.4 1344.42   3
 -11   1  12 63174.8 1862.69   6
 -11   1  12 63832.0 1506.53   3
 -11   1  10 43719.1 1645.05   6
 -11   1  10 41784.0 1252.05   3
   1 -11   8 18683.0 899.237   7
 -11   1   8 17492.3 1071.83   6
 -11   1   8 19528.7 888.272   3
 -11   1   6 40780.7 1588.36   6
 -11   1   6 40467.4 1248.99   3
 -11  -1  -4 44435.2 1332.74   3
 -11   1   4 45905.9 1654.90   6
  11  -1   4 43306.0 1220.21   2
 -11   1   4 44515.4 1274.04   3
 -11  -1  -2 117831. 2091.68   3
 -11  -1  -2 112846. 2338.76   6
 -11   1   2 120385. 2557.19   6
 -11   1   2 116166. 2037.58   3
  11  -1   2 115137. 1893.32   2
 -11  -1   0 50003.6 1610.90   6
 -11  -1   0 50972.7 1339.38   3
 -11   1   0 51861.8 1381.21   3
 -11   1   0 48380.3 1569.88   6
  11  -1   0 49255.3 1169.35   2
 -11   1  -2 113288. 2090.00   3
  11   1   2 113628. 1953.11   2
 -11  -1   2 117849. 2531.67   6
 -11   1  -2 110146. 2289.61   6
 -11  -1   2 118064. 2002.34   3
   1 -11  -4 43466.3 1267.86   4
 -11   1  -4 42648.0 1336.86   3
  11   1   4 43369.9 1291.87   2
 -11  -1   4 45909.0 1632.90   6
 -11  -1   4 43971.3 1234.21   3
   1 -11  -6 37827.5 1242.11   4
 -11  -1   6 41032.3 1583.07   6
 -11  -1   6 40525.8 1215.75   3
   1 -11  -8 16642.4 851.710   4
 -11  -1   8 17957.2 1069.29   6
 -11  -1   8 18794.0 850.525   3
   1 -11 -10 41345.3 1350.21   4
 -11  -1  10 42821.1 1607.97   6
 -11  -1  10 41271.1 1213.52   3
   1 -11 -12 60964.4 1629.71   4
 -11  -1  12 62804.5 1812.69   6
 -11  -1  12 61756.9 1448.85   3
   1 -11 -14 56490.6 1534.32   4
 -11  -1  14 55510.0 1312.71   3
   1 -11 -16 27992.2 982.647   4
 -11  -1  16 26874.7 835.667   3
   1 -11 -18 18278.3 664.660   4
 -11  -1  18 17096.3 565.787   3
 -11   2  19 2560.02 188.189   3
   2 -11  17 2393.18 214.812   5
  -2 -11 -17 2529.21 249.590   4
 -11   2  17 2602.12 263.180   3
   2 -11  15 1678.50 226.317   5
 -11   2  15 1953.74 259.344   3
 -11   2  13 1363.73 240.608   3
 -11   2  13 173.242 190.409   6
 -11   2  11 157.871 141.352   3
 -11   2  11 41.1802 231.187   6
   2 -11   9 38105.0 1331.59   7
 -11   2   9 37219.2 1542.32   6
 -11   2   9 37381.8 1208.18   3
 -11   2   7 1401.56 282.509   3
   2 -11   7 1479.25 289.938   7
 -11   2   7 1071.43 328.537   6
   2 -11   5 11794.4 724.440   7
 -11   2   5 10816.9 846.401   6
  11  -2   5 11153.5 628.241   2
 -11   2   5 11774.8 673.185   3
 -11  -2  -3 7855.46 553.967   3
 -11  -2  -3 6782.58 581.336   6
 -11   2   3 6752.22 664.889   6
 -11   2   3 7057.55 520.369   3
  11  -2   3 6689.25 484.727   2
 -11  -2  -1 628.849 181.961   3
 -11   2   1 1311.04 241.898   3
  11  -2   1 630.712 149.004   2
   2 -11   1 471.674 175.824   4
 -11  -2  -1 1029.67 273.104   6
 -11   2   1 919.008 273.036   6
 -11   2  -1 779.125 195.796   3
 -11  -2   1 928.421 207.014   3
  11   2   1 449.649 173.377   2
  11  -2  -1 789.637 169.240   2
   2 -11  -1 1355.26 258.855   4
 -11  -2   1 873.893 272.726   6
 -11   2  -1 1049.33 284.853   6
   2 -11  -3 6655.48 518.350   4
 -11   2  -3 6647.43 535.609   3
 -11  -2   3 7274.23 674.289   6
  11   2   3 6349.48 523.378   2
 -11  -2   3 7580.58 510.314   3
 -11  -2   5 11263.2 846.834   6
   2 -11  -5 10248.8 654.949   4
  11   2   5 9131.34 654.883   2
 -11   2  -5 10168.1 674.375   3
 -11  -2   5 10751.6 608.933   3
 -11  -2   7 1535.51 259.347   3
   2 -11  -7 1301.56 276.830   4
 -11  -2   7 944.379 311.787   6
   2 -11  -9 34569.1 1247.64   4
 -11  -2   9 36490.8 1488.82   6
 -11  -2   9 37552.7 1169.38   3
 -11  -2  11 98.1636 100.683   3
   2 -11 -11 415.965 216.685   4
 -11  -2  11 52.6958 156.515   6
 -11  -2  13 1107.02 217.980   3
   2 -11 -13 902.052 263.421   4
 -11  -2  13 855.212 222.305   6
   2 -11 -15 1670.85 294.172   4
 -11  -2  15 2207.41 260.636   3
   2 -11 -17 2769.00 308.890   4
 -11  -2  17 2758.73 256.449   3
   2 -11 -19 2878.47 229.326   4
 -11   3  18 325.432 96.2182   3
   3 -11  16 873.096 162.495   5
 -11   3  16 1217.44 203.554   3
 -11   3  14 1594.10 279.203   6
 -11   3  14 2638.36 304.936   3
 -11   3  12 1135.35 221.165   3
 -11   3  12 1017.76 287.781   6
   3 -11  10 1360.07 288.156   7
 -11   3  10 938.174 310.767   6
 -11   3  10 1672.76 292.914   3
   3 -11   8 28154.1 1174.76   7
 -11   3   8 27106.7 1374.87   6
 -11   3   8 31518.7 1161.76   3
   3 -11   6 1636.32 296.672   4
   3 -11   6 1817.63 304.260   7
 -11   3   6 1508.93 268.345   3
 -11   3   6 1192.93 349.571   6
   3 -11   4 3085.73 386.339   4
 -11  -3  -4 3131.97 365.221   3
   3 -11   4 3652.08 428.224   7
 -11   3   4 3468.55 373.717   3
 -11  -3  -4 2867.37 384.331   6
  11  -3   4 2789.44 325.787   2
 -11  -3  -2 879.414 197.522   3
   3 -11   2 1201.32 254.616   4
 -11   3   2 816.008 194.084   3
  11  -3   2 1121.57 207.568   2
 -11  -3  -2 960.944 245.674   6
  11  -3   0 5420.64 408.964   2
   3 -11   0 4871.32 474.687   4
 -11  -3   0 5469.93 548.740   6
 -11  -3   0 5680.33 437.550   3
 -11   3   0 5202.81 449.931   3
 -11   3   0 5455.94 580.164   6
 -11   3  -2 881.292 199.792   3
 -11  -3   2 1110.34 201.828   3
  11   3   2 571.691 215.824   2
   3 -11  -2 992.153 248.928   4
 -11  -3   2 739.813 270.556   6
 -11   3  -2 1150.54 253.870   6
  11   3   4 2282.78 348.042   2
   3 -11  -4 2743.82 362.273   4
 -11   3  -4 3023.76 382.911   3
 -11  -3   4 3437.81 480.895   6
 -11  -3   4 3154.97 333.216   3
   3 -11  -6 1558.91 305.975   4
 -11  -3   6 1528.73 241.761   3
 -11  -3   6 1258.82 345.058   6
   3 -11  -8 25727.9 1092.51   4
 -11  -3   8 27557.4 1290.89   6
 -11  -3   8 29230.4 1012.68   3
 -11  -3  10 1286.79 246.137   3
   3 -11 -10 1168.44 294.455   4
 -11  -3  10 1130.21 300.623   6
 -11  -3  12 959.057 210.810   3
   3 -11 -12 756.198 254.569   4
 -11  -3  12 706.879 245.358   6
   3 -11 -14 2186.93 331.290   4
 -11  -3  14 2702.50 290.282   3
 -11  -3  16 1165.25 180.264   3
   3 -11 -16 1077.31 235.164   4
 -11  -3  18 362.692 82.4372   3
   3 -11 -18 235.173 117.136   4
   4 -11  17 9872.46 422.843   5
 -11   4  17 10711.8 447.132   3
 -11   4  15 7420.91 464.589   3
 -11   4  13 5596.66 522.581   6
 -11   4  13 5687.93 459.170   3
 -11   4  11 12145.7 857.583   6
 -11   4  11 14594.4 773.964   3
   4 -11   9 18087.0 961.591   7
 -11   4   9 16022.0 1041.77   6
 -11   4   9 19045.0 873.018   3
   4 -11   7 56377.2 1698.71   7
 -11   4   7 52721.9 1405.20   3
   4 -11   5 8700.50 654.046   4
   4 -11   5 7880.54 645.502   7
  11  -4   5 6704.57 557.624   7
 -11   4   5 7592.62 536.789   3
   4 -11   3 25882.3 1100.33   4
 -11  -4  -3 28253.7 978.945   3
 -11   4   3 25498.3 959.255   3
  11  -4   3 26958.5 943.842   2
  11  -4   1 11154.7 597.421   2
   4  11  -1 8382.64 607.838   2
   4 -11   1 9787.08 674.607   4
 -11  -4  -1 10902.3 597.774   3
 -11  -4  -1 9123.15 693.875   6
 -11   4   1 10732.8 629.928   3
  11  -4  -1 10351.6 553.068   2
   4  11   1 8053.24 625.342   2
   4 -11  -1 10672.1 703.492   4
 -11  -4   1 9988.64 756.875   6
 -11  -4   1 10929.1 583.584   3
 -11   4  -1 9655.92 611.597   3
   4  11   3 20688.7 1014.71   2
   4 -11  -3 25119.7 1055.58   4
  11   4   3 23243.3 1065.58   2
 -11   4  -3 23519.6 977.962   3
 -11  -4   3 27443.8 1247.80   6
 -11  -4   3 27083.1 898.443   3
   4 -11  -5 7793.30 596.292   4
 -11  -4   5 7093.88 672.170   6
 -11  -4   5 7701.66 484.955   3
   4 -11  -7 50483.6 1501.14   4
 -11  -4   7 51905.3 1737.65   6
 -11  -4   7 53010.0 1273.05   3
   4 -11  -9 16824.3 896.865   4
 -11  -4   9 16668.8 976.798   6
 -11  -4   9 18606.0 769.195   3
   4 -11 -11 12621.5 784.653   4
 -11  -4  11 12090.0 776.948   6
 -11  -4  11 14213.9 675.679   3
   4 -11 -13 5165.53 499.988   4
 -11  -4  13 4802.72 436.442   6
   4 -11 -15 7618.85 543.027   4
 -11  -4  15 7549.65 413.801   3
   4 -11 -17 11267.5 545.247   4
 -11  -4  17 10505.3 375.958   3
   5 -11  16 28411.5 796.650   5
 -11   5  16 30180.7 758.400   3
 -11   5  14 41644.7 1211.73   6
 -11   5  14 46205.6 1115.80   3
 -11   5  12 51932.3 1605.56   6
 -11   5  12 52093.6 1300.42   3
  11  -5  10 49365.5 1460.68   7
   5 -11  10 56563.9 1689.43   7
 -11   5  10 50065.4 1747.84   6
 -11   5  10 57303.5 1420.87   3
   5 -11   8 49742.9 1620.23   7
 -11   5   8 46323.0 1285.64   3
   5 -11   6 98288.6 2191.07   4
 -11   5   6 96399.7 1841.59   3
   5 -11   4 34432.4 1308.37   4
 -11  -5  -4 30620.6 1192.86   6
 -11   5   4 31931.2 1057.78   3
  11  -5   2 106991. 1862.23   2
  11  -5   2 90958.0 1951.82   4
   5 -11   2 104720. 2238.48   4
 -11  -5  -2 96075.6 2197.85   6
 -11   5   2 97486.3 1854.06   3
  11  -5   0 72404.2 1505.83   2
   5  11   0 57239.1 1637.03   2
  11  -5   0 60851.1 1556.13   4
   5 -11   0 68365.3 1801.87   4
  -5 -11   0 70915.1 2028.82   6
 -11  -5   0 67602.0 1884.33   6
 -11   5   0 65842.8 1543.75   3
   5  11   2 84706.9 2060.90   2
  11  -5  -2 86833.9 1810.26   4
   5 -11  -2 102019. 2155.10   4
  -5 -11   2 100775. 2370.52   6
 -11   5  -2 97817.4 1929.41   3
 -11  -5   2 102490. 2359.17   6
   5 -11  -4 32595.7 1220.76   4
  -5 -11   4 32668.9 1325.00   6
 -11   5  -4 29444.4 1083.56   3
 -11  -5   4 32070.2 1355.24   6
   5 -11  -6 95927.7 2066.70   4
 -11  -5   6 96793.3 2328.62   6
   5 -11  -8 44238.1 1421.54   4
 -11  -5   8 46607.8 1594.63   6
   5 -11 -10 54704.0 1581.77   4
 -11  -5  10 51584.4 1602.81   6
   5 -11 -12 52111.2 1489.70   4
 -11  -5  12 50018.5 1405.52   6
   5 -11 -14 47509.6 1339.09   4
   5 -11 -16 33965.4 970.924   4
   5 -11 -18 34874.2 769.478   4
 -11   6  15 38475.9 842.993   3
 -11   6  13 36101.2 1186.89   6
 -11   6  13 38357.7 981.515   3
   6 -11  11 47059.0 1502.17   7
 -11   6  11 47158.6 1182.26   3
  11  -6   9 60476.7 1689.35   7
 -11   6   9 63527.0 1422.40   3
  11  -6   7 51003.0 1606.29   7
 -11   6   7 52264.5 1306.42   3
   6 -11   5 78360.2 1996.18   4
  11  -6   5 69245.3 1884.73   7
 -11  -6  -5 70974.0 1758.62   6
   6 -11   5 78717.1 2044.04   7
 -11   6   5 72100.8 1534.65   3
   6 -11   3 54725.4 1651.75   4
 -11  -6  -3 53205.0 1585.80   6
 -11   6   3 51211.8 1308.69   3
  11  -6   1 72298.2 1775.91   4
   6 -11   1 76120.2 1937.75   4
  -6 -11  -1 78627.4 2152.70   6
 -11  -6  -1 72544.4 1924.76   6
 -11   6   1 71737.5 1573.47   3
  11  -6  -1 71279.5 1726.98   4
   6 -11  -1 76163.7 1926.12   4
  -6 -11   1 77613.5 2094.54   6
 -11  -6   1 74189.7 1983.46   6
 -11   6  -1 72561.1 1610.16   3
   6 -11  -3 53200.3 1583.12   4
  -6 -11   3 53417.5 1708.92   6
 -11   6  -3 51116.1 1372.00   3
 -11  -6   3 52484.4 1710.28   6
  11  -6  -5 67677.1 1612.63   4
   6 -11  -5 77575.4 1887.92   4
  -6 -11   5 70202.0 1912.31   6
 -11  -6   5 75006.3 2057.71   6
   6 -11  -7 52475.5 1543.44   4
  -6 -11   7 48294.6 1523.67   6
 -11  -6   7 51975.7 1682.91   6
   6 -11  -9 67081.6 1712.58   4
 -11  -6   9 62328.0 1753.45   6
   6 -11 -11 49427.4 1442.48   4
 -11  -6  11 46491.4 1365.87   6
   6 -11 -13 40228.0 1214.05   4
   6 -11 -15 44498.0 1132.84   4
   6 -11 -17 27318.9 726.370   4
   7 -11  16 9192.81 386.785   5
 -11   7  14 3930.46 337.333   6
 -11   7  12 9177.72 639.300   6
 -11   7  12 8564.77 439.841   3
  11  -7  10 14061.9 790.036   7
   7 -11  10 13454.6 802.335   7
 -11   7  10 13125.9 592.929   3
  11  -7   8 24342.6 1096.52   7
 -11   7   8 22423.9 800.148   3
   7 -11   6 17398.4 984.507   7
 -11   7   6 16183.4 694.609   3
  11  -7   6 17043.5 955.499   7
   7 -11   4 36351.2 1367.72   4
 -11  -7  -4 33664.6 1245.16   6
 -11   7   4 32628.4 1001.07   3
  11  -7   2 8041.02 620.784   4
   7 -11   2 7613.09 642.184   4
  -7 -11  -2 9144.30 751.317   6
 -11  -7  -2 7906.54 629.288   6
 -11   7   2 8546.04 524.982   3
  11  -7   0 11180.3 722.627   4
   7 -11   0 11859.0 779.551   4
 -11  -7   0 11492.2 774.958   6
  -7 -11   0 11482.8 832.646   6
 -11   7   0 10805.7 597.866   3
  11  -7  -2 7438.59 585.913   4
   7 -11  -2 8296.51 656.440   4
  -7 -11   2 8812.01 721.833   6
 -11   7  -2 6996.28 490.445   3
 -11  -7   2 8956.13 695.446   6
  11  -7  -4 31530.6 1150.82   4
   7 -11  -4 36439.4 1325.70   4
  -7 -11   4 32817.6 1333.31   6
 -11  -7   4 37060.5 1401.11   6
  11  -7  -6 15179.2 782.216   4
   7 -11  -6 16733.9 891.941   4
  -7 -11   6 15123.1 868.263   6
 -11  -7   6 17528.3 956.865   6
  11  -7  -8 20016.0 865.515   4
   7 -11  -8 24846.6 1058.76   4
  -7 -11   8 21866.2 988.966   6
 -11  -7   8 25013.2 1087.21   6
   7 -11 -10 14778.1 790.645   4
 -11  -7  10 14268.6 765.527   6
   7 -11 -12 10008.7 613.747   4
 -11  -7  12 8484.70 514.505   6
   7 -11 -14 4655.44 391.354   4
   7 -11 -16 11377.6 482.756   4
 -11   8  13 257.734 119.255   6
 -11   8  11 353.403 193.045   6
  11  -8   9 1401.94 298.273   7
   8 -11   9 1481.60 286.454   7
   8 -11   7 1520.60 321.589   7
  11  -8   7 1566.23 316.661   7
   8 -11   5 1795.82 338.739   4
   8 -11   5 1287.32 306.617   7
  11  -8   5 1666.31 324.142   7
 -11  -8  -5 1319.79 292.468   6
  11  -8   3 11040.5 730.242   4
   8 -11   3 11214.6 764.939   4
 -11  -8  -3 10672.1 720.363   6
   8 -11   1 1482.43 299.127   4
  11  -8   1 1522.44 293.241   4
  -8 -11  -1 1427.80 325.569   6
 -11  -8  -1 1513.30 306.030   6
 -11  -8   1 1545.65 306.204   6
  11  -8  -1 1240.96 271.452   4
   8 -11  -1 1639.64 322.644   4
  -8 -11   1 1261.74 302.927   6
  11  -8  -3 11315.2 704.323   4
   8 -11  -3 11715.4 757.523   4
  -8 -11   3 10451.5 765.860   6
 -11  -8   3 11270.9 764.435   6
  11  -8  -5 1507.72 273.590   4
   8 -11  -5 1790.32 338.842   4
  -8 -11   5 1390.86 310.748   6
 -11  -8   5 1452.72 305.585   6
  11  -8  -7 1587.54 272.704   4
   8 -11  -7 1497.60 314.186   4
  -8 -11   7 1457.26 290.424   6
 -11  -8   7 1281.30 279.123   6
  11  -8  -9 1372.42 243.906   4
   8 -11  -9 1276.51 286.287   4
 -11  -8   9 1315.73 265.256   6
   8 -11 -11 496.117 198.413   4
  11  -8 -11 750.516 172.442   4
 -11  -8  11 286.863 133.595   6
   8 -11 -13 400.914 138.286   4
   8 -11 -15 464.197 121.406   4
 -11   9  12 4670.00 396.445   6
  11  -9  10 380.233 152.545   7
   9 -11  10 576.554 187.687   7
   9 -11   8 360.399 198.793   7
  11  -9   8 427.383 178.628   7
   9 -11   6 3223.13 418.349   7
  11  -9   6 2015.57 330.938   7
   9 -11   4 1650.70 320.715   4
   9 -11   4 2156.84 371.335   7
  11  -9   4 2065.86 346.450   7
 -11  -9  -4 1828.87 314.055   6
  11  -9   2 17453.7 905.282   4
   9 -11   2 18244.1 947.811   4
  -9 -11  -2 18714.3 1004.98   6
 -11  -9  -2 16614.8 898.690   6
   9 -11   0 1157.22 293.065   4
  11  -9   0 1070.64 262.155   4
  -9 -11   0 624.338 230.254   6
 -11  -9   0 864.928 234.864   6
  11  -9  -2 16291.4 850.875   4
   9 -11  -2 17822.5 916.893   4
  -9 -11   2 16842.1 941.436   6
 -11  -9   2 17501.4 927.963   6
   9 -11  -4 2067.36 344.478   4
  11  -9  -4 1808.17 296.780   4
  -9 -11   4 1411.44 318.311   6
 -11  -9   4 1795.30 343.640   6
  11  -9  -6 2542.85 342.528   4
   9 -11  -6 2712.77 374.669   4
  -9 -11   6 1751.03 320.536   6
 -11  -9   6 1534.11 310.476   6
   9 -11  -8 298.955 190.552   4
  11  -9  -8 212.058 164.046   4
  -9 -11   8 274.330 155.086   6
 -11  -9   8 282.788 162.259   6
   9 -11 -10 719.633 196.351   4
 -11  -9  10 363.166 145.599   6
  11  -9 -10 714.324 163.950   4
  11  -9 -12 4439.94 310.234   4
   9 -11 -12 5463.64 399.677   4
   9 -11 -14 3074.83 251.796   4
 -11  10  11 17276.6 741.180   6
  11 -10   9 7933.76 526.956   7
  10 -11   9 7546.19 519.974   7
  11 -10   7 10162.3 648.378   7
  10 -11   7 9691.23 636.840   7
  10 -11   5 17795.6 887.277   7
  11 -10   5 17120.1 873.413   7
  10 -11   3 17787.4 908.002   7
  10 -11   3 18975.0 917.073   4
  11 -10   3 17541.6 891.355   7
 -11 -10  -3 17567.3 893.642   6
  11 -10   1 40840.9 1319.69   4
  10 -11   1 42244.1 1360.48   4
 -10 -11  -1 41129.7 1416.04   6
 -11 -10  -1 40572.7 1372.33   6
  11 -10  -1 40836.9 1302.45   4
  10 -11  -1 43694.9 1366.71   4
 -10 -11   1 40938.6 1412.63   6
 -11 -10   1 41161.8 1391.24   6
  11 -10  -3 16638.0 826.511   4
  10 -11  -3 17328.2 863.663   4
 -10 -11   3 17299.5 916.422   6
 -11 -10   3 18139.3 921.648   6
  11 -10  -5 13791.8 726.783   4
  10 -11  -5 16582.1 813.160   4
 -10 -11   5 15207.5 836.297   6
 -11 -10   5 15435.3 827.148   6
  11 -10  -7 8757.96 553.358   4
  10 -11  -7 8545.40 571.662   4
 -10 -11   7 8544.45 591.311   6
 -11 -10   7 8583.56 585.556   6
  11 -10  -9 7273.87 466.815   4
  10 -11  -9 7557.12 496.339   4
 -11 -10   9 7909.81 516.712   6
  11 -10 -11 17192.1 601.779   4
  10 -11 -11 18990.1 677.942   4
 -11  11  10 26032.3 871.746   6
  11 -11   8 28355.6 922.055   7
  11 -11   6 26882.8 965.974   7
  11 -11   4 24563.5 971.179   7
  11 -11   2 51126.7 1422.82   7
  11 -11   0 59183.7 1493.49   4
 -11 -11   0 58275.5 1579.00   6
  11 -11  -2 49872.2 1345.16   4
 -11 -11   2 49576.1 1449.25   6
  11 -11  -4 22904.1 886.392   4
 -11 -11   4 22435.5 960.289   6
  11 -11  -6 25818.0 896.647   4
 -11 -11   6 26244.8 975.913   6
  11 -11  -8 26634.7 837.654   4
  11 -11 -10 27855.3 739.889   4
 -12   0   0 137602. 2279.39   3
 -12   0   0 131636. 2657.25   6
 -12   0  -2 73907.3 1725.79   3
 -12   0  -2 67317.4 1834.00   6
 -12   0   2 70520.2 2024.03   6
 -12   0   2 71252.7 1613.48   3
  12   0   2 69461.2 1507.67   2
 -12   0  -4 113319. 2188.71   3
 -12   0   4 113439. 2614.14   6
 -12   0   4 108644. 1990.24   3
 -12   0   6 35186.2 1500.78   6
 -12   0   6 33137.0 1104.66   3
   0 -12  -8 24975.2 964.770   4
 -12   0   8 27857.1 1336.09   6
 -12   0   8 25827.5 980.625   3
   0 -12 -10 91392.5 1877.26   4
 -12   0  10 96221.4 2376.47   6
   0 -12 -12 50860.2 1355.57   4
 -12   0  12 52687.2 1608.23   6
   0 -12 -14 43882.6 1161.90   4
 -12   0  14 46026.0 1161.10   3
   0 -12 -16 24066.1 736.097   4
 -12   0  16 23615.9 705.670   3
 -12   0  18 13566.4 406.999   3
 -12   1  17 9337.34 400.390   3
  -1 -12 -15 11092.1 524.950   4
 -12   1  15 11519.7 546.114   3
  -1 -12 -13 23211.1 852.577   4
 -12   1  13 22181.4 972.043   6
 -12   1  13 23457.2 887.227   3
 -12   1  11 25631.6 1192.51   6
 -12   1  11 26424.2 994.956   3
 -12   1   9 32501.3 1434.12   6
 -12   1   9 32811.2 1119.70   3
 -12   1   7 18542.6 1106.60   6
 -12   1   7 19093.6 851.657   3
 -12   1   5 31375.5 1402.80   6
 -12   1   5 30215.4 1062.03   3
 -12  -1  -3 38840.5 1254.84   3
 -12  -1  -3 33811.1 1284.88   6
 -12   1   3 37100.0 1483.03   6
 -12   1   3 37181.1 1176.91   3
  12  -1   3 36031.2 1113.40   2
 -12  -1  -1 48160.8 1354.60   3
 -12  -1  -1 45149.3 1545.34   6
 -12   1   1 47018.2 1342.45   3
 -12   1   1 47862.4 1625.00   6
  12  -1   1 46068.1 1189.93   2
 -12   1  -1 48755.0 1395.93   3
 -12  -1   1 46012.9 1601.57   6
 -12   1  -1 47044.6 1560.71   6
 -12  -1   1 48172.3 1326.93   3
 -12   1  -3 37448.9 1266.83   3
 -12   1  -3 34452.9 1282.08   6
 -12  -1   3 37201.7 1493.86   6
  12   1   3 33852.3 1089.78   2
 -12  -1   3 36050.5 1129.73   3
   1 -12  -5 28386.6 1043.24   4
 -12   1  -5 30954.4 1170.86   3
 -12  -1   5 31739.1 1404.90   6
 -12  -1   5 29908.8 1027.74   3
   1 -12  -7 18572.2 847.698   4
 -12  -1   7 20163.2 1146.63   6
 -12  -1   7 18722.2 817.326   3
   1 -12  -9 30202.4 1091.16   4
 -12  -1   9 31881.5 1395.86   6
 -12  -1   9 30436.6 1045.29   3
   1 -12 -11 23932.2 971.814   4
 -12  -1  11 24393.3 1151.34   6
 -12  -1  11 26171.6 957.675   3
   1 -12 -13 21754.9 882.805   4
 -12  -1  13 22027.2 947.113   6
 -12  -1  13 24489.2 880.506   3
   1 -12 -15 11225.0 573.100   4
 -12  -1  15 11061.8 515.713   3
   1 -12 -17 10371.7 447.094   4
 -12  -1  17 9312.76 385.108   3
 -12   2  16 63.2272 81.8218   3
 -12   2  14 102.673 96.5705   3
 -12   2  14 164.873 124.645   6
 -12   2  12 38.1092 115.779   3
 -12   2  12-509.261 222.473   6
 -12   2  10 282.239 164.385   3
 -12   2  10-25.5484 217.991   6
   2 -12   8 7150.45 567.125   7
 -12   2   8 6685.01 672.486   6
 -12   2   8 6248.22 494.830   3
 -12   2   6 10915.2 853.354   6
 -12   2   6 11236.7 658.873   3
 -12   2   4 848.182 208.781   3
 -12  -2  -4 790.848 216.935   3
 -12   2   4 663.203 305.659   6
 -12  -2  -2 1070.74 225.095   3
 -12   2   2 648.493 185.154   3
  12  -2   2 590.680 153.861   2
 -12  -2  -2 504.449 214.839   6
 -12   2   2 881.622 302.134   6
   2 -12   0 9980.74 642.606   4
 -12  -2   0 9502.68 730.003   6
 -12  -2   0 10205.9 607.251   3
 -12   2   0 9869.35 627.447   3
 -12   2   0 9736.38 731.492   6
 -12   2  -2 496.087 183.353   3
 -12  -2   2 1022.15 214.387   3
 -12  -2   2 670.138 257.507   6
 -12   2  -2 705.750 227.942   6
 -12   2  -4 724.247 209.248   3
 -12  -2   4 730.411 191.999   3
   2 -12  -4 381.761 166.206   4
 -12  -2   4 942.492 294.238   6
   2 -12  -6 10614.9 663.882   4
 -12  -2   6 9948.72 809.271   6
 -12  -2   6 10951.3 611.814   3
   2 -12  -8 5320.87 480.624   4
 -12  -2   8 6112.86 641.067   6
 -12  -2   8 6294.97 468.371   3
 -12  -2  10 336.648 154.217   3
   2 -12 -10 357.818 184.271   4
 -12  -2  10 395.248 210.320   6
 -12  -2  12 22.8273 112.690   3
   2 -12 -12-316.556 179.991   4
 -12  -2  12-12.8192 139.633   6
 -12  -2  14 103.346 112.052   3
   2 -12 -14-56.5870 132.776   4
 -12  -2  16 84.9739 57.1086   3
   2 -12 -16 106.585 95.8398   4
 -12   3  17 198.099 79.7519   3
 -12   3  15 95.6217 100.738   3
 -12   3  13 2358.73 335.105   6
 -12   3  13 3080.69 316.285   3
 -12   3  11 777.217 196.430   3
 -12   3  11 212.596 213.076   6
   3 -12   9 4303.73 453.636   7
 -12   3   9 4027.56 535.429   6
 -12   3   9 4429.42 418.373   3
   3 -12   7 11467.0 740.312   7
 -12   3   7 10257.9 835.330   6
 -12   3   7 9957.21 616.185   3
   3 -12   5 3306.06 397.115   4
   3 -12   5 3513.86 424.218   7
 -12   3   5 3900.99 538.016   6
 -12   3   5 3799.47 389.668   3
   3 -12   3 4917.69 481.408   4
   3 -12   3 6502.72 556.399   7
 -12  -3  -3 5516.96 461.326   3
 -12  -3  -3 5382.98 515.195   6
 -12   3   3 5179.87 452.354   3
 -12   3   3 5330.89 599.003   6
 -12  -3  -1 384.351 164.679   3
 -12   3   1 93.6896 115.763   3
   3 -12   1 223.183 168.792   4
 -12  -3  -1 302.572 181.928   6
 -12   3   1 437.788 247.260   6
 -12   3  -1 261.049 153.697   3
 -12  -3   1 84.7466 110.634   3
   3 -12  -1 186.691 142.718   4
 -12  -3   1 53.0782 188.214   6
 -12   3  -1 35.2039 172.392   6
   3 -12  -3 5842.26 507.514   4
 -12   3  -3 5731.82 511.256   3
 -12  -3   3 5530.63 592.752   6
 -12  -3   3 5669.29 439.969   3
   3 -12  -5 3149.73 382.480   4
 -12  -3   5 2985.66 467.707   6
 -12  -3   5 3705.05 352.120   3
   3 -12  -7 9213.78 628.868   4
 -12  -3   7 9687.99 787.129   6
 -12  -3   7 10212.7 571.382   3
   3 -12  -9 4008.28 430.688   4
 -12  -3   9 3708.88 474.479   6
 -12  -3   9 4676.78 389.372   3
 -12  -3  11 519.307 153.183   3
   3 -12 -11 708.970 232.366   4
 -12  -3  11 133.676 162.185   6
   3 -12 -13 2995.45 348.033   4
 -12  -3  13 2428.31 317.429   6
 -12  -3  13 2859.33 278.887   3
 -12  -3  15 165.929 80.8477   3
   3 -12 -15 98.6234 110.619   4
   3 -12 -17 14.1111 69.2041   4
 -12   4  16 4108.47 269.170   3
 -12   4  14 4381.90 376.299   6
 -12   4  14 4078.75 324.615   3
 -12   4  12 4276.15 463.319   6
 -12   4  12 4119.57 361.902   3
 -12   4  10 3118.79 447.838   6
 -12   4  10 3646.41 363.934   3
   4 -12   8 3088.69 404.126   7
 -12   4   8 3002.64 340.653   3
 -12   4   8 2599.92 455.937   6
   4 -12   6 10108.6 707.513   7
 -12   4   6 8916.29 784.398   6
 -12   4   6 8415.64 566.817   3
   4 -12   4 23629.9 1079.09   7
   4 -12   4 22350.8 1008.84   4
 -12  -4  -4 18740.6 926.266   6
 -12   4   4 20966.6 878.327   3
 -12   4   4 20519.8 1155.21   6
 -12  -4  -2 1169.98 217.630   3
   4 -12   2 1044.70 246.105   4
 -12   4   2 1751.85 271.435   3
 -12  -4  -2 1138.19 284.005   6
 -12   4   2 1425.31 350.323   6
   4 -12   0 12336.2 751.204   4
 -12  -4   0 12493.1 636.813   3
 -12  -4   0 10249.4 753.932   6
 -12   4   0 11457.1 673.942   3
 -12   4   0 11438.7 817.412   6
 -12   4  -2 1029.48 226.265   3
 -12  -4   2 1206.51 210.864   3
   4 -12  -2 841.727 240.509   4
 -12  -4   2 1392.22 310.260   6
 -12   4  -2 1167.48 288.553   6
   4 -12  -4 20139.3 939.528   4
 -12   4  -4 20533.5 933.054   3
 -12  -4   4 20906.6 1114.33   6
 -12  -4   4 22168.2 813.209   3
   4 -12  -6 8618.12 621.570   4
 -12  -4   6 9154.78 744.475   6
 -12  -4   6 8991.32 518.118   3
   4 -12  -8 2578.59 359.783   4
 -12  -4   8 2509.73 414.723   6
 -12  -4   8 2369.28 274.455   3
   4 -12 -10 2955.96 373.813   4
 -12  -4  10 2838.22 416.380   6
 -12  -4  10 2622.55 272.979   3
   4 -12 -12 4422.71 424.869   4
 -12  -4  12 4602.89 434.174   6
 -12  -4  12 4566.02 340.841   3
   4 -12 -14 4241.44 378.803   4
 -12  -4  14 4124.07 282.318   3
   4 -12 -16 4028.03 312.911   4
 -12   5  15 17485.1 550.375   3
 -12   5  13 33661.5 1091.11   6
 -12   5  13 34315.1 905.991   3
 -12   5  11 28348.3 1163.70   6
 -12   5  11 28951.6 923.882   3
 -12   5   9 38865.6 1507.01   6
 -12   5   9 39242.8 1129.58   3
  12  -5   7 12908.0 733.571   7
   5 -12   7 16037.3 891.784   7
 -12   5   7 14697.2 989.660   6
 -12   5   7 14225.1 702.210   3
  12  -5   5 31406.6 1189.32   7
 -12   5   5 33086.9 1070.48   3
   5 -12   3 55122.5 1610.27   4
 -12  -5  -3 52864.2 1570.57   6
 -12   5   3 52658.4 1376.60   3
   5 -12   1 51093.2 1546.51   4
 -12  -5  -1 47608.1 1554.38   6
 -12   5   1 48158.5 1336.32   3
   5 -12  -1 49819.2 1516.49   4
 -12  -5   1 46167.4 1576.96   6
 -12   5  -1 46462.4 1332.76   3
 -12   5  -1 48049.6 1615.51   6
   5 -12  -3 55596.2 1590.72   4
 -12   5  -3 52176.3 1438.73   3
 -12  -5   3 54831.4 1741.46   6
   5 -12  -5 33372.3 1218.83   4
 -12  -5   5 34857.1 1401.63   6
   5 -12  -7 14099.6 781.870   4
 -12  -5   7 14444.5 904.686   6
   5 -12  -9 37652.7 1242.10   4
 -12  -5   9 38057.2 1382.96   6
   5 -12 -11 29061.7 1049.46   4
 -12  -5  11 28855.8 1081.91   6
   5 -12 -13 36916.1 1086.15   4
   5 -12 -15 20318.8 713.310   4
 -12   6  14 22118.3 721.833   6
 -12   6  14 22583.9 607.714   3
 -12   6  12 19284.6 861.294   6
 -12   6  12 19296.7 664.968   3
   6 -12  10 51388.8 1479.67   7
 -12   6  10 50459.2 1592.22   6
 -12   6  10 46508.3 1121.12   3
  12  -6   8 34527.9 1180.80   7
 -12   6   8 37324.3 1053.19   3
 -12   6   8 38025.9 1501.10   6
  12  -6   6 20923.9 974.201   7
 -12   6   6 21490.5 827.831   3
   6 -12   4 26928.6 1135.28   4
  12  -6   4 24332.9 1070.47   7
 -12  -6  -4 24612.0 1033.56   6
 -12   6   4 25431.8 920.119   3
 -12  -6  -2 53234.0 1585.98   6
 -12   6   2 52785.0 1342.68   3
  12  -6   0 53927.6 1456.09   4
 -12  -6   0 57563.7 1712.47   6
 -12   6   0 55015.1 1397.63   3
   6 -12  -2 56247.2 1620.26   4
 -12   6  -2 52912.9 1390.00   3
 -12  -6   2 53145.5 1688.57   6
 -12   6  -2 53827.6 1654.86   6
   6 -12  -4 26252.0 1095.53   4
 -12  -6   4 26504.6 1209.43   6
   6 -12  -6 22631.7 999.511   4
 -12  -6   6 23503.5 1120.75   6
   6 -12  -8 37944.3 1250.53   4
 -12  -6   8 37348.1 1348.51   6
   6 -12 -10 47671.7 1355.75   4
 -12  -6  10 48412.7 1396.78   6
   6 -12 -12 20683.1 833.958   4
 -12  -6  12 18974.3 756.355   6
   6 -12 -14 26299.5 839.309   4
   6 -12 -16 14727.4 507.616   4
 -12   7  13 2237.69 261.422   6
 -12   7  11 6376.09 364.224   3
 -12   7  11 6938.51 542.740   6
  12  -7   9 4294.81 415.234   7
   7 -12   9 4809.66 463.728   7
 -12   7   9 4183.32 323.589   3
 -12   7   9 4391.60 501.689   6
  12  -7   7 12296.7 742.183   7
   7 -12   7 12985.4 780.681   7
 -12   7   7 10743.0 543.082   3
   7 -12   5 6791.84 595.742   7
  12  -7   5 6938.59 583.261   7
 -12  -7  -5 5277.40 470.432   6
 -12   7   5 5655.21 406.220   3
 -12   7   3 583.289 155.146   3
   7 -12   3 605.872 239.684   4
   7 -12   3 626.537 240.593   7
 -12  -7  -3 552.351 188.401   6
  12  -7   1 17950.8 866.969   4
   7 -12   1 19085.8 954.310   4
 -12  -7  -1 18722.8 937.990   6
 -12   7   1 17846.0 752.508   3
  12  -7  -1 18282.8 854.077   4
   7 -12  -1 20141.2 976.327   4
 -12   7  -1 18709.8 775.605   3
 -12  -7   1 19824.4 984.567   6
   7 -12  -3 638.736 239.166   4
 -12  -7   3 800.887 239.724   6
  12  -7  -3 358.836 175.956   4
  12  -7  -5 5519.26 446.704   4
   7 -12  -5 6741.95 557.722   4
 -12  -7   5 6269.54 581.576   6
   7 -12  -7 12804.4 738.949   4
 -12  -7   7 11627.6 743.960   6
   7 -12  -9 4996.30 454.271   4
 -12  -7   9 4816.77 447.155   6
   7 -12 -11 6891.16 489.786   4
 -12  -7  11 6877.14 461.384   6
   7 -12 -13 2564.62 285.322   4
   7 -12 -15 1904.30 203.500   4
 -12   8  12 217.745 117.465   6
 -12   8  10 831.499 224.039   6
  12  -8   8 401.194 174.379   7
   8 -12   8 719.373 218.867   7
  12  -8   6 722.532 221.067   7
   8 -12   6 744.410 206.006   7
   8 -12   4 121.728 163.619   4
   8 -12   4 230.369 164.086   7
  12  -8   4 441.109 185.914   7
 -12  -8  -4 26.2993 136.342   6
   8 -12   2 2560.91 379.114   4
 -12  -8  -2 2761.80 374.540   6
  12  -8   0 2739.71 350.932   4
   8 -12   0 2489.74 379.479   4
 -12  -8   0 2497.25 372.326   6
  12  -8  -2 3005.70 361.222   4
   8 -12  -2 3265.78 414.480   4
 -12  -8   2 2682.93 384.532   6
 -12   8  -2 2064.76 341.913   6
  12  -8  -4 149.686 153.271   4
   8 -12  -4 500.785 219.997   4
 -12  -8   4 400.078 195.916   6
  12  -8  -6 495.342 169.315   4
   8 -12  -6 437.929 196.314   4
 -12  -8   6 464.205 185.272   6
   8 -12  -8 563.599 216.888   4
  12  -8  -8 630.879 167.206   4
 -12  -8   8 517.430 191.104   6
   8 -12 -10 888.520 214.600   4
 -12  -8  10 759.280 186.081   6
   8 -12 -12 57.1678 109.681   4
   8 -12 -14 177.936 100.313   4
 -12   9  11-112.356 120.742   6
  12  -9   9 191.918 128.835   7
   9 -12   9 531.327 173.785   7
 -12   9   9 451.992 180.460   6
  12  -9   7 439.042 167.564   7
   9 -12   7 334.413 149.461   7
   9 -12   5 2168.89 325.808   7
  12  -9   5 2145.83 312.599   7
   9 -12   3 1520.33 276.078   4
   9 -12   3 1981.65 320.871   7
  12  -9   3 1910.14 311.589   7
 -12  -9  -3 1280.11 262.676   6
  12  -9   1 262.102 183.864   4
   9 -12   1 313.425 203.746   4
 -12  -9  -1 89.4764 147.912   6
  12  -9  -1 309.636 153.781   4
   9 -12  -1 332.152 196.906   4
 -12  -9   1 172.404 152.721   6
  12  -9  -3 1237.71 243.130   4
   9 -12  -3 1768.66 306.393   4
 -12  -9   3 1665.96 312.696   6
   9 -12  -5 1999.23 306.938   4
  12  -9  -5 1475.08 239.981   4
 -12  -9   5 2138.21 326.944   6
  12  -9  -7 325.079 139.374   4
   9 -12  -7 252.629 167.206   4
 -12  -9   7 556.457 182.692   6
  12  -9  -9 440.640 127.652   4
   9 -12  -9 500.524 177.487   4
 -12  -9   9 473.457 142.011   6
   9 -12 -11 270.649 137.533   4
 -12  -9  11 220.916 89.5474   6
 -12  10  10 8811.63 496.991   6
  12 -10   8 4394.84 358.806   7
  10 -12   8 4570.60 376.489   7
 -12  10   8 3902.53 396.150   6
  12 -10   6 3615.37 362.337   7
  10 -12   6 3848.62 379.859   7
  10 -12   4 18169.5 822.200   7
  12 -10   4 17668.8 813.696   7
  10 -12   2 8680.97 579.919   4
  10 -12   2 9240.19 605.319   7
  12 -10   2 9042.70 595.989   7
 -12 -10  -2 8053.50 571.004   6
  12 -10   0 13430.9 693.423   4
  10 -12   0 14122.9 736.102   4
 -12 -10   0 13085.1 741.279   6
  12 -10  -2 8218.48 536.282   4
  10 -12  -2 8683.88 580.118   4
 -12 -10   2 8403.26 606.410   6
  12 -10  -4 15248.8 696.507   4
  10 -12  -4 17573.6 785.848   4
 -12 -10   4 17193.5 824.283   6
  12 -10  -6 2814.29 292.658   4
  10 -12  -6 3319.00 339.857   4
 -12 -10   6 3130.63 349.371   6
  12 -10  -8 3445.60 289.614   4
  10 -12  -8 4002.84 348.987   4
 -12 -10   8 4105.56 366.192   6
  10 -12 -10 9739.91 459.362   4
 -12  11   9 19980.9 692.525   6
 -11  12   9 19088.3 690.523   6
  12 -11   7 20437.6 698.286   7
  11 -12   7 19507.9 693.613   7
 -12  11   7 18459.5 771.748   6
  12 -11   5 15392.2 668.625   7
  11 -12   5 15094.9 666.548   7
  11 -12   3 21862.3 831.755   7
  12 -11   3 21042.9 814.407   7
  11 -12   1 23252.5 868.932   7
  12 -11   1 22254.1 854.023   7
  12 -11  -1 22278.9 810.862   4
  11 -12  -1 23598.4 857.364   4
 -12 -11   1 22630.8 897.394   6
  12 -11  -3 18802.6 728.690   4
  11 -12  -3 20577.2 778.898   4
 -12 -11   3 21038.4 858.246   6
  12 -11  -5 13298.7 576.083   4
  11 -12  -5 14120.0 615.408   4
 -12 -11   5 14019.2 676.260   6
  12 -11  -7 18321.9 607.379   4
  11 -12  -7 19190.5 658.730   4
  11 -12  -9 21479.3 598.198   4
  12 -12   6 16702.1 560.857   7
 -12  12   6 15247.1 624.829   6
  12 -12   4 6769.87 398.088   7
 -12  12   4 6060.59 419.757   6
  12 -12   2 7107.87 428.074   7
 -12  12   2 6524.72 431.982   6
  12 -12   0 11382.7 545.575   7
  12 -12  -2 6700.13 415.184   7
  12 -12  -4 6209.58 362.358   4
 -13   0  -1 1362.81 259.924   3
 -13   0   1 1386.07 252.338   3
 -13   0  -1 1642.52 337.531   6
 -13   0   1 1077.34 289.962   6
 -13   0  -3 11945.7 714.594   3
 -13   0  -3 10938.5 728.238   6
 -13   0   3 11879.5 856.377   6
 -13   0   3 10634.9 631.412   3
 -13   0   5 5319.16 612.394   6
 -13   0   5 5728.93 463.639   3
 -13   0   7 323.628 155.675   3
 -13   0   7 151.759 210.697   6
 -13   0   9 39651.7 1507.23   6
 -13   0   9 39478.5 1132.03   3
   0 -13 -11 5385.45 391.503   4
 -13   0  11 5554.62 536.888   6
 -13   0  11 5449.58 411.208   3
 -13   0  13 487.369 139.357   3
   0 -13 -13 514.066 126.813   4
 -13   0  13 277.607 140.584   6
 -13   0  15 2002.11 199.425   3
 -13   1  16 105.634 62.9038   3
 -13   1  14 867.946 151.693   3
 -13   1  14 421.455 124.450   6
 -13   1  12 184.910 108.058   3
 -13   1  12 174.739 153.905   6
 -13   1  10 768.501 186.683   3
 -13   1  10 1003.58 281.046   6
 -13   1   8 4853.06 582.998   6
 -13   1   8 6034.81 469.419   3
 -13   1   6 226.383 151.674   3
 -13   1   6 222.756 237.525   6
 -13   1   4 64.8099 118.511   3
 -13   1   4 113.921 204.470   6
 -13  -1  -2 1737.44 278.821   3
 -13   1   2 1734.40 279.307   3
 -13  -1  -2 1729.91 318.646   6
 -13   1   2 1519.71 338.525   6
 -13  -1   0 4281.06 416.634   3
 -13   1   0 4942.33 456.876   3
 -13  -1   0 3712.82 467.414   6
 -13   1   0 4305.97 512.238   6
 -13   1  -2 1586.24 292.645   3
 -13  -1   2 1304.61 236.116   3
 -13  -1   2 1288.42 314.609   6
 -13   1  -2 1646.67 297.978   6
 -13  -1   4 80.8381 102.178   3
 -13   1  -4 188.507 143.328   3
 -13  -1   4 160.222 203.539   6
 -13  -1   6 117.731 141.682   3
   1 -13  -6-3.47804 118.550   4
 -13  -1   6 199.286 239.899   6
   1 -13  -8 4927.54 431.062   4
 -13  -1   8 5335.01 594.000   6
 -13  -1   8 5469.93 429.120   3
 -13  -1  10 1065.27 208.330   3
   1 -13 -10 679.579 187.776   4
 -13  -1  10 1271.06 313.409   6
 -13  -1  12 268.419 121.322   3
 -13  -1  12 250.776 164.031   6
 -13  -1  14 824.694 140.224   3
   1 -13 -14 715.426 146.565   4
 -13  -1  16 40.3924 48.2578   3
 -13   2  15 8375.28 394.006   3
 -13   2  13 9236.44 563.531   6
 -13   2  13 9237.36 480.372   3
 -13   2  11 14207.5 829.565   6
 -13   2  11 13671.0 647.082   3
 -13   2   9 19424.2 1068.57   6
 -13   2   9 19791.7 816.899   3
 -13   2   7 745.079 201.650   3
 -13   2   7 367.976 251.805   6
 -13   2   5 18355.7 1069.98   6
 -13   2   5 16592.8 785.394   3
 -13  -2  -3 18999.0 856.647   3
 -13  -2  -3 16219.5 870.648   6
 -13   2   3 18577.5 1046.97   6
 -13   2   3 17885.6 833.865   3
 -13  -2  -1 16898.0 797.944   3
 -13  -2  -1 14408.8 877.990   6
 -13   2   1 15172.1 776.388   3
 -13   2   1 15325.4 930.218   6
 -13   2  -1 16339.3 825.263   3
 -13  -2   1 15038.6 913.665   6
 -13  -2   1 15910.9 754.783   3
 -13   2  -1 14856.4 882.513   6
   2 -13  -3 18176.2 844.818   4
 -13   2  -3 18871.7 905.368   3
 -13  -2   3 18550.6 1054.03   6
 -13  -2   3 17528.8 779.186   3
   2 -13  -5 16675.7 796.217   4
 -13  -2   5 17144.1 1036.36   6
 -13  -2   5 17030.5 749.977   3
 -13  -2   7 767.485 198.522   3
   2 -13  -7 252.816 154.971   4
 -13  -2   7 745.629 295.642   6
   2 -13  -9 16716.3 759.998   4
 -13  -2   9 19713.4 1042.75   6
 -13  -2   9 18898.5 751.593   3
   2 -13 -11 13739.3 656.881   4
 -13  -2  11 14064.8 797.764   6
 -13  -2  11 13531.0 599.896   3
   2 -13 -13 9267.71 508.457   4
 -13  -2  13 9632.21 545.439   6
 -13  -2  13 8995.21 446.340   3
   2 -13 -15 8961.48 422.582   4
 -13  -2  15 7439.35 341.957   3
 -13   3  16 8273.34 322.733   3
 -13   3  14 6062.03 386.826   6
 -13   3  14 6004.33 351.960   3
 -13   3  12 14520.5 758.921   6
 -13   3  12 14648.1 626.503   3
 -13   3  10 29967.8 1241.66   6
 -13   3  10 29861.4 963.708   3
 -13   3   8 38905.1 1493.70   6
 -13   3   8 37391.2 1129.46   3
   3 -13   6 2793.25 368.320   7
 -13   3   6 2843.50 453.894   6
 -13   3   6 2825.97 329.782   3
 -13   3   4 32717.7 1393.57   6
 -13   3   4 33138.3 1107.40   3
   3 -13   2 16376.3 814.822   4
 -13  -3  -2 17047.6 779.471   3
 -13  -3  -2 14364.4 841.348   6
 -13   3   2 15596.6 776.254   3
 -13   3   2 16005.0 954.012   6
 -13  -3   0 33891.3 1080.45   3
 -13  -3   0 30650.1 1273.79   6
 -13   3   0 31873.0 1129.45   3
 -13   3   0 31360.8 1281.05   6
   3 -13  -2 16764.3 825.921   4
 -13   3  -2 16206.0 828.326   3
 -13  -3   2 16101.7 960.233   6
 -13  -3   2 16521.7 740.211   3
 -13   3  -2 15378.2 866.598   6
   3 -13  -4 32432.4 1134.20   4
 -13  -3   4 33280.1 1395.35   6
 -13  -3   4 31970.4 998.571   3
   3 -13  -6 2241.49 335.693   4
 -13  -3   6 2763.61 442.143   6
 -13  -3   6 2935.41 312.622   3
   3 -13  -8 36949.5 1157.66   4
 -13  -3   8 40022.2 1478.24   6
 -13  -3   8 37961.0 1031.75   3
   3 -13 -10 29055.1 987.232   4
 -13  -3  10 29307.6 1177.13   6
 -13  -3  10 29456.0 868.500   3
   3 -13 -12 14386.3 658.865   4
 -13  -3  12 14548.8 722.887   6
 -13  -3  12 14341.3 560.181   3
   3 -13 -14 6635.79 403.327   4
 -13  -3  14 6101.69 316.016   3
 -13   4  15 171.579 74.2070   3
 -13   4  13 154.132 79.9042   3
 -13   4  13 434.404 140.299   6
 -13   4  11 1680.20 227.548   3
 -13   4  11 1275.53 268.180   6
 -13   4   9 6206.97 585.190   6
 -13   4   9 5931.76 439.724   3
   4 -13   7 21002.5 931.258   7
 -13   4   7 19802.8 1069.97   6
 -13   4   7 18590.1 789.647   3
 -13   4   5 213.276 134.589   3
   4 -13   5 419.808 180.246   7
 -13   4   5 210.299 212.381   6
 -13   4   3 321.615 154.833   3
   4 -13   3 244.413 166.644   4
   4 -13   3 231.143 168.806   7
 -13  -4  -3 365.384 185.701   6
 -13   4   3 367.176 234.929   6
   4 -13   1 7027.04 559.552   4
   4 -13   1 8120.76 591.821   7
 -13  -4  -1 7252.06 489.079   3
 -13  -4  -1 6370.79 577.490   6
 -13   4   1 6586.30 509.722   3
 -13   4   1 6870.00 623.060   6
   4 -13  -1 6664.90 542.181   4
 -13   4  -1 6476.72 518.301   3
 -13  -4   1 7479.17 486.987   3
 -13  -4   1 6533.12 609.997   6
 -13   4  -1 6331.16 565.126   6
 -13   4  -3 172.256 134.246   3
 -13  -4   3 472.759 149.559   3
   4 -13  -3 100.954 151.406   4
 -13  -4   3 241.473 190.994   6
 -13  -4   5 246.940 124.860   3
   4 -13  -5 528.776 198.858   4
 -13  -4   5 146.316 192.509   6
   4 -13  -7 18118.6 841.428   4
 -13  -4   7 19019.3 1019.04   6
 -13  -4   7 18195.0 698.440   3
   4 -13  -9 6130.13 483.284   4
 -13  -4   9 6444.03 578.514   6
 -13  -4   9 6170.14 387.354   3
   4 -13 -11 1676.57 256.408   4
 -13  -4  11 1764.00 283.833   6
 -13  -4  11 1374.63 176.581   3
 -13  -4  13 399.808 93.1889   3
   4 -13 -13 209.724 128.056   4
 -13  -4  13 153.494 77.6703   6
   4 -13 -15 366.897 110.540   4
 -13   5  14 2074.31 181.393   3
 -13   5  12 7369.81 505.368   6
 -13   5  12 7441.60 403.431   3
 -13   5  10 4386.24 460.964   6
 -13   5  10 3981.13 331.980   3
 -13   5   8 1241.54 216.228   3
   5 -13   8 1534.28 272.861   7
 -13   5   8 1712.68 333.014   6
   5 -13   6 1525.26 304.672   7
 -13   5   6 1871.03 264.579   3
 -13   5   6 1715.78 389.481   6
   5 -13   4 14685.8 790.019   4
   5 -13   4 16100.2 850.143   7
 -13  -5  -4 12400.3 697.119   6
 -13   5   4 13220.7 676.415   3
 -13   5   4 15232.1 957.064   6
   5 -13   2 7849.36 589.688   4
   5 -13   2 8695.12 632.234   7
 -13  -5  -2 6792.16 566.119   6
 -13   5   2 6980.60 506.224   3
 -13   5   2 8276.90 690.448   6
 -13   5   0-11.9155 153.011   3
   5 -13   0 41.6155 122.071   4
 -13  -5   0 206.082 163.922   6
 -13   5   0 297.166 222.823   6
   5 -13  -2 7791.23 594.427   4
 -13   5  -2 7250.84 534.826   3
 -13  -5   2 7628.86 647.511   6
 -13   5  -2 7391.09 589.454   6
   5 -13  -4 14327.3 783.693   4
 -13  -5   4 14297.2 889.043   6
   5 -13  -6 1541.92 296.556   4
 -13  -5   6 1628.47 352.388   6
   5 -13  -8 1583.11 272.050   4
 -13  -5   8 1020.82 263.148   6
   5 -13 -10 4923.98 419.271   4
 -13  -5  10 3950.37 408.639   6
   5 -13 -12 8149.56 488.527   4
 -13  -5  12 7843.72 463.277   6
   5 -13 -14 2265.12 233.813   4
 -13   6  13 1572.81 209.583   6
 -13   6  13 1556.19 158.155   3
 -13   6  11 4470.50 412.298   6
 -13   6  11 4592.96 311.263   3
   6 -13   9 9893.10 605.092   7
 -13   6   9 8225.46 453.968   3
 -13   6   9 8510.66 636.075   6
   6 -13   7 3160.38 370.976   7
 -13   6   7 2536.29 280.298   3
 -13   6   7 2925.70 419.381   6
 -13   6   5 416.388 148.797   3
   6 -13   5 373.527 185.548   7
  13  -6   5 707.931 209.084   7
 -13   6   5 549.156 252.295   6
   6 -13   3 11685.6 712.051   4
   6 -13   3 12548.7 752.631   7
  13  -6   3 10620.2 651.661   7
 -13  -6  -3 10793.4 666.001   6
 -13   6   3 11415.1 606.998   3
 -13   6   3 11634.1 817.226   6
   6 -13   1 4268.76 447.954   4
 -13  -6  -1 4374.23 458.555   6
 -13   6   1 4303.42 392.095   3
 -13   6   1 4212.16 499.354   6
   6 -13  -1 4451.19 455.377   4
 -13   6  -1 4168.85 387.865   3
 -13  -6   1 4483.76 481.927   6
 -13   6  -1 4276.49 473.874   6
   6 -13  -3 12027.3 712.776   4
 -13  -6   3 12032.7 789.930   6
   6 -13  -5 340.732 170.119   4
 -13  -6   5 418.125 226.953   6
   6 -13  -7 3038.97 355.485   4
 -13  -6   7 2935.00 382.690   6
   6 -13  -9 8488.16 550.017   4
 -13  -6   9 9096.55 602.517   6
   6 -13 -11 4436.32 368.275   4
 -13  -6  11 4492.77 370.203   6
   6 -13 -13 1950.28 227.473   4
 -13   7  12 310.016 128.183   6
 -13   7  10 700.925 121.106   3
 -13   7  10 761.057 210.083   6
 -13   7   8 129.527 96.3913   3
  13  -7   8 222.184 127.892   7
   7 -13   8 120.516 122.818   7
 -13   7   8 129.367 166.681   6
 -13   7   6 183.809 104.959   3
  13  -7   6 196.828 129.421   7
   7 -13   6 257.828 166.048   7
 -13   7   6 258.533 224.999   6
  13  -7   4 13268.4 726.306   7
 -13  -7  -4 12773.0 694.573   6
 -13   7   4 13776.3 615.690   3
 -13   7   4 14103.7 878.611   6
 -13   7   2 107.764 102.167   3
   7 -13   2 279.085 171.729   4
   7 -13   2 89.5671 142.161   7
  13  -7   2 74.6908 140.668   7
 -13  -7  -2 186.430 149.253   6
 -13   7   2 330.857 214.338   6
   7 -13   0 263.850 172.541   4
 -13   7   0 297.329 133.026   3
 -13  -7   0 169.700 147.105   6
 -13   7   0 406.091 227.000   6
  13  -7  -2 354.801 145.437   4
   7 -13  -2 99.4712 164.066   4
 -13  -7   2 10.5025 131.377   6
   7 -13  -4 16007.7 802.546   4
 -13  -7   4 15298.5 835.153   6
   7 -13  -6 100.222 152.126   4
 -13  -7   6 185.941 167.094   6
   7 -13  -8 0.95758 126.300   4
 -13  -7   8 132.000 141.322   6
   7 -13 -10 810.907 185.744   4
 -13  -7  10 759.315 172.754   6
   7 -13 -12 502.384 142.713   4
 -13   8  11 9765.58 498.723   6
 -13   8   9 11882.9 652.532   6
  13  -8   7 6639.37 451.517   7
   8 -13   7 8284.14 532.789   7
 -13   8   7 6901.89 567.746   6
   8 -13   5 8875.82 582.794   7
  13  -8   5 8108.54 539.233   7
 -13   8   5 8094.27 638.124   6
   8 -13   3 22766.4 925.859   4
   8 -13   3 23578.8 968.757   7
  13  -8   3 20254.1 882.835   7
 -13  -8  -3 19911.9 854.906   6
 -13   8   3 21299.0 1015.45   6
   8 -13   1 6195.91 506.652   4
   8 -13   1 6854.87 525.464   7
 -13  -8  -1 5502.65 480.641   6
 -13   8   1 5127.92 512.314   6
  13  -8  -1 5520.50 428.707   4
   8 -13  -1 6183.22 502.696   4
 -13  -8   1 6212.25 516.590   6
 -13   8  -1 5566.52 490.304   6
   8 -13  -3 22350.1 916.380   4
 -13  -8   3 21522.2 948.417   6
   8 -13  -5 8568.68 563.308   4
 -13  -8   5 8458.06 590.170   6
   8 -13  -7 7524.89 504.031   4
 -13  -8   7 7231.83 517.964   6
   8 -13  -9 13247.9 616.355   4
 -13  -8   9 12027.3 594.488   6
   8 -13 -11 11635.6 516.281   4
 -13   9  10 5860.23 381.096   6
   9 -13   8 8069.51 464.465   7
 -13   9   8 7428.18 506.047   6
  13  -9   6 5314.41 396.402   7
   9 -13   6 6096.64 438.967   7
 -13   9   6 5121.85 477.020   6
   9 -13   4 4351.60 399.996   7
  13  -9   4 3875.91 370.286   7
 -13   9   4 3909.86 437.564   6
   9 -13   2 4311.45 402.834   4
   9 -13   2 4318.27 401.555   7
  13  -9   2 3826.49 374.678   7
 -13  -9  -2 3539.71 374.647   6
 -13   9   2 3997.36 431.436   6
   9 -13   0 10882.0 622.725   4
   9 -13   0 10687.8 614.204   7
 -13  -9   0 9396.64 600.058   6
 -13   9   0 10575.3 638.154   6
  13  -9  -2 3467.16 325.981   4
   9 -13  -2 3927.90 385.530   4
 -13  -9   2 3723.74 392.991   6
  13  -9  -4 3436.30 313.747   4
   9 -13  -4 3980.41 372.284   4
 -13  -9   4 3561.09 382.857   6
  13  -9  -6 4470.88 316.821   4
 -13  -9   6 5359.33 440.508   6
   9 -13  -8 7313.37 443.997   4
 -13  -9   8 7372.36 468.152   6
   9 -13 -10 6298.17 368.375   4
 -13  10   9 281.222 113.113   6
  13 -10   7 30.8171 79.8169   7
  10 -13   7 266.491 101.441   7
 -13  10   7 12.2256 125.884   6
  13 -10   5 186.089 114.616   7
  10 -13   5 168.850 101.494   7
 -13  10   5 240.031 167.099   6
  10 -13   3 1661.62 236.824   7
  13 -10   3 1407.96 227.710   7
 -13  10   3 1524.32 267.342   6
  10 -13   1 149.908 115.375   7
  13 -10   1 451.065 165.678   7
 -13 -10  -1 418.927 151.386   6
 -13  10   1 336.235 165.293   6
  10 -13  -1 148.269 122.555   4
  10 -13  -1 511.310 154.241   7
 -13 -10   1 357.750 149.839   6
  10 -13  -3 1285.02 216.962   4
 -13 -10   3 1240.27 230.785   6
  13 -10  -5 118.880 94.8596   4
  10 -13  -5-332.693 138.068   4
  10 -13  -7-43.7869 102.761   4
 -13 -10   7 24.8773 95.9841   6
  10 -13  -9 318.114 101.782   4
  11 -13   6 3285.95 250.605   7
 -13  11   6 2771.35 265.412   6
  13 -11   4 2792.43 254.471   7
  11 -13   4 3213.03 270.050   7
 -13  11   4 2721.75 286.595   6
  11 -13   2 4803.56 344.089   7
  13 -11   2 4515.94 333.799   7
 -13  11   2 3911.45 327.269   6
  11 -13   0 100.892 90.0952   7
  13 -11   0 89.7442 95.2289   7
  11 -13  -2 4224.47 321.000   4
  11 -13  -2 4383.95 326.665   7
  13 -11  -2 4266.47 327.175   7
  11 -13  -4 2970.45 260.094   4
  11 -13  -6 2911.20 235.882   4
  12 -13   1 127.736 63.1188   7
  12 -13  -1 138.357 74.5090   7
 -14   0   0 4373.50 417.643   3
 -14   0   0 3122.04 432.024   6
 -14   0  -2 114.715 143.822   3
 -14   0   2 166.641 133.280   3
 -14   0  -2 142.274 152.217   6
 -14   0   2 182.034 163.036   6
 -14   0   4 2724.62 423.743   6
 -14   0   4 2884.32 330.095   3
 -14   0   6 10289.4 768.217   6
 -14   0   6 10300.1 581.960   3
 -14   0   8 5630.26 566.658   6
 -14   0   8 5917.70 422.230   3
 -14   0  10 6308.77 541.049   6
 -14   0  10 5862.97 394.609   3
 -14   0  12 137.388 83.8660   3
 -14   0  12 183.810 116.983   6
 -14   0  14 2.96704 48.0970   3
 -14   1  15 912.751 111.517   3
 -14   1  13 1710.97 188.244   3
 -14   1  13 1369.16 194.364   6
 -14   1  11 424.205 128.439   3
 -14   1  11 431.771 174.333   6
 -14   1   9 111.027 109.721   3
 -14   1   9 329.005 215.491   6
 -14   1   7 512.243 167.740   3
 -14   1   7 249.784 217.090   6
 -14   1   5 444.641 173.701   3
 -14   1   5-141.275 213.870   6
 -14   1   3 1278.59 248.316   3
 -14  -1  -3 944.953 224.421   6
 -14   1   3 1062.18 295.765   6
 -14  -1  -1 793.322 209.680   3
 -14   1   1 373.511 166.966   3
 -14  -1  -1 439.501 187.033   6
 -14   1   1 339.523 193.496   6
 -14   1  -1 432.113 171.569   3
 -14  -1   1 551.392 183.611   3
 -14  -1   1 476.302 209.217   6
 -14   1  -1 514.663 199.571   6
 -14  -1   3 1161.15 230.077   3
 -14   1  -3 1374.88 254.859   3
 -14  -1   3 1182.07 307.945   6
 -14  -1   5 257.282 130.779   3
 -14  -1   5 109.242 188.325   6
 -14  -1   7 911.760 197.110   3
 -14  -1   7 726.577 261.536   6
 -14  -1   9 213.509 116.115   3
 -14  -1   9 119.085 183.286   6
 -14  -1  11 379.048 114.768   3
 -14  -1  11 231.200 147.471   6
 -14  -1  13 1596.28 172.762   3
 -14  -1  13 1181.44 180.512   6
 -14   2  14 9565.32 381.670   3
 -14   2  12 10601.8 572.218   6
 -14   2  12 10894.7 480.142   3
 -14   2  10 19397.1 912.909   6
 -14   2  10 18850.4 700.038   3
 -14   2   8 15531.0 899.093   6
 -14   2   8 13838.8 647.457   3
 -14   2   6 19656.9 1048.67   6
 -14   2   6 19286.3 800.476   3
 -14   2   4 13292.0 692.045   3
 -14   2   4 12795.0 849.586   6
 -14  -2  -2 25108.6 933.060   3
 -14   2   2 23610.7 934.558   3
 -14   2   2 24076.5 1132.70   6
 -14  -2   0 3852.80 374.876   3
 -14   2   0 4407.68 422.876   3
 -14  -2   0 4025.62 467.027   6
 -14   2   0 4321.19 477.946   6
 -14   2  -2 24379.2 990.053   3
 -14  -2   2 24520.3 893.617   3
 -14  -2   2 23010.1 1103.91   6
 -14   2  -2 21927.4 981.861   6
 -14  -2   4 13903.1 883.099   6
 -14  -2   4 13302.9 642.810   3
   2 -14  -6 19836.8 797.665   4
 -14  -2   6 18560.0 1017.19   6
 -14  -2   6 18347.5 729.933   3
   2 -14  -8 14828.8 658.034   4
 -14  -2   8 14108.4 851.246   6
 -14  -2   8 13448.9 594.788   3
   2 -14 -10 19111.8 702.436   4
 -14  -2  10 19267.7 884.895   6
 -14  -2  10 18431.9 647.433   3
   2 -14 -12 11309.9 489.570   4
 -14  -2  12 10541.3 548.094   6
 -14  -2  12 10787.1 443.642   3
 -14  -2  14 9710.60 346.051   3
 -14   3  13 6872.40 389.792   6
 -14   3  13 7506.62 361.594   3
 -14   3  11 25012.5 936.094   6
 -14   3  11 24321.8 742.208   3
 -14   3   9 26682.1 1101.60   6
 -14   3   9 25705.0 834.068   3
 -14   3   7 37649.1 1389.56   6
 -14   3   7 35314.7 1044.34   3
 -14   3   5 23335.2 885.032   3
 -14   3   5 23528.5 1129.81   6
 -14   3   3 22186.4 887.485   3
 -14   3   3 21661.2 1082.46   6
 -14  -3  -1 14906.7 688.203   3
 -14  -3  -1 13102.8 775.090   6
 -14   3   1 14314.5 735.396   3
 -14   3   1 13780.7 842.777   6
   3 -14  -1 15152.4 730.131   4
 -14   3  -1 15005.6 761.892   3
 -14  -3   1 14511.8 673.127   3
 -14  -3   1 12889.7 804.457   6
 -14   3  -1 13711.1 798.093   6
   3 -14  -3 21295.8 867.263   4
 -14  -3   3 21272.9 1049.81   6
 -14  -3   3 22556.8 814.154   3
   3 -14  -5 23123.1 887.175   4
 -14  -3   5 23723.4 1127.47   6
 -14  -3   5 22732.6 789.598   3
   3 -14  -7 35817.2 1065.83   4
 -14  -3   7 37007.0 1348.63   6
 -14  -3   7 34677.8 936.233   3
   3 -14  -9 25180.8 852.162   4
 -14  -3   9 27043.4 1073.29   6
 -14  -3   9 24792.8 742.531   3
   3 -14 -11 24790.1 773.375   4
 -14  -3  11 24936.9 898.220   6
 -14  -3  11 23295.0 650.501   3
   3 -14 -13 7533.54 377.045   4
 -14  -3  13 7263.75 305.147   3
 -14   4  12 2927.48 292.702   6
 -14   4  12 2947.90 240.202   3
 -14   4  10 3475.89 380.895   6
 -14   4  10 3607.17 298.325   3
 -14   4   8 13932.4 805.806   6
 -14   4   8 13554.8 612.638   3
   4 -14   6 9166.02 552.905   7
 -14   4   6 7830.39 495.817   3
 -14   4   6 8376.93 672.031   6
 -14   4   4 3595.66 353.979   3
 -14   4   4 3731.46 467.952   6
   4 -14   2 4865.74 425.268   4
 -14  -4  -2 3719.68 397.033   6
 -14   4   2 5454.81 444.477   3
 -14   4   2 4930.08 522.940   6
 -14  -4   0 3172.48 310.951   3
 -14   4   0 3116.00 354.561   3
 -14  -4   0 2558.80 361.425   6
 -14   4   0 2946.58 392.467   6
   4 -14  -2 4720.86 423.142   4
 -14   4  -2 5984.18 480.724   3
 -14  -4   2 5262.55 383.194   3
 -14  -4   2 4947.75 512.228   6
 -14   4  -2 5291.35 485.364   6
   4 -14  -4 3413.16 359.048   4
 -14  -4   4 2872.63 408.011   6
 -14  -4   4 3426.08 308.159   3
   4 -14  -6 8323.85 540.374   4
 -14  -4   6 7703.34 625.504   6
 -14  -4   6 7460.63 419.059   3
   4 -14  -8 14180.1 658.934   4
 -14  -4   8 13568.1 770.336   6
 -14  -4   8 13810.9 530.797   3
   4 -14 -10 3708.37 324.410   4
 -14  -4  10 3967.28 376.562   6
   4 -14 -12 2769.58 254.500   4
 -14  -4  12 2776.75 253.626   6
 -14   5  11 3049.23 312.652   6
 -14   5  11 2860.38 236.838   3
 -14   5   9-34.0525 93.7182   3
 -14   5   9-35.3646 151.171   6
 -14   5   7 601.053 159.599   3
   5 -14   7 981.357 205.243   7
 -14   5   7 416.903 211.722   6
 -14   5   5 958.326 199.100   3
   5 -14   5 1287.65 243.587   7
 -14   5   5 785.785 271.529   6
 -14   5   3 128.620 111.378   3
   5 -14   3 147.597 133.230   4
   5 -14   3 141.582 117.705   7
 -14  -5  -3 175.000 138.122   6
 -14   5   3-2.00718 185.765   6
 -14   5   1 933.333 205.938   3
   5 -14   1 948.338 218.348   4
   5 -14   1 1359.35 239.647   7
 -14  -5  -1 1012.26 246.140   6
 -14   5   1 1021.89 272.654   6
   5 -14  -1 807.438 213.032   4
   5 -14  -1 1006.01 215.263   7
 -14   5  -1 722.271 196.645   3
 -14  -5   1 660.485 220.369   6
 -14   5  -1 1040.50 248.263   6
   5 -14  -3 65.3456 119.628   4
 -14  -5   3 45.0084 153.829   6
   5 -14  -5 1162.38 230.353   4
 -14  -5   5 674.591 235.225   6
   5 -14  -7 473.534 153.624   4
 -14  -5   7 607.222 198.862   6
   5 -14  -9 72.7297 104.505   4
 -14  -5   9-55.7564 117.775   6
   5 -14 -11 2943.73 278.014   4
 -14  -5  11 3122.57 283.876   6
   5 -14 -13 463.801 109.598   4
 -14   6  10 893.498 136.242   3
 -14   6  10 1129.61 208.845   6
 -14   6   8 1774.33 208.290   3
 -14   6   8 1831.55 302.672   6
 -14   6   6 666.918 152.654   3
   6 -14   6 891.019 187.433   7
 -14   6   6 683.191 233.472   6
   6 -14   4 1343.74 229.705   7
 -14   6   4 1290.04 207.233   3
 -14   6   4 1325.70 290.433   6
 -14   6   2 52.9808 104.523   3
   6 -14   2 133.414 120.363   4
   6 -14   2-56.1178 102.747   7
 -14  -6  -2 109.190 135.017   6
 -14   6   2 142.371 167.460   6
   6 -14   0 2350.53 309.614   4
   6 -14   0 2125.36 281.540   7
 -14   6   0 2057.86 260.840   3
 -14  -6   0 2001.55 298.695   6
 -14   6   0 1972.52 324.812   6
   6 -14  -2 179.999 140.860   4
 -14  -6   2 114.712 150.457   6
   6 -14  -4 1383.22 237.669   4
 -14  -6   4 1060.71 256.132   6
   6 -14  -6 726.541 188.871   4
 -14  -6   6 683.548 211.530   6
   6 -14  -8 1933.36 253.516   4
 -14  -6   8 2185.12 292.812   6
   6 -14 -10 1228.74 198.225   4
 -14  -6  10 1112.57 181.682   6
   6 -14 -12 207.523 88.2704   4
 -14   7  11 2660.80 241.543   6
 -14   7   9 1055.42 201.381   6
   7 -14   7 2163.34 257.036   7
 -14   7   7 1519.16 176.758   3
 -14   7   7 1626.93 280.287   6
   7 -14   5 2305.74 285.149   7
 -14   7   5 1682.76 201.657   3
 -14   7   5 2156.68 327.794   6
   7 -14   3 5505.07 427.833   7
  14  -7   3 4272.56 360.527   7
 -14  -7  -3 4508.89 382.094   6
 -14   7   3 3903.48 314.432   3
 -14   7   3 5026.30 476.644   6
   7 -14   1 2018.88 277.864   4
   7 -14   1 2074.10 275.007   7
  14  -7   1 1545.92 230.712   7
 -14  -7  -1 1981.17 281.794   6
 -14   7   1 2146.45 317.329   6
   7 -14  -1 2079.47 285.886   4
   7 -14  -1 2090.61 266.625   7
 -14  -7   1 1569.50 267.587   6
 -14   7  -1 1392.12 244.662   6
   7 -14  -3 5164.81 426.706   4
 -14  -7   3 4689.78 435.212   6
   7 -14  -5 2297.48 285.988   4
 -14  -7   5 1906.08 281.905   6
   7 -14  -7 1511.85 225.734   4
 -14  -7   7 1718.81 251.077   6
   7 -14  -9 1034.62 170.166   4
 -14  -7   9 1289.24 199.987   6
   7 -14 -11 3135.11 243.127   4
 -14   8  10 11288.8 475.309   6
 -14   8   8 12309.0 590.215   6
  14  -8   6 12497.7 498.268   7
   8 -14   6 14606.1 605.004   7
 -14   8   6 14397.5 692.688   6
  14  -8   4 10505.2 509.859   7
   8 -14   4 12185.0 590.757   7
 -14   8   4 10980.5 635.928   6
  14  -8   2 16243.5 669.688   7
 -14  -8  -2 15902.1 694.134   6
 -14   8   2 16997.5 769.371   6
   8 -14   0 8011.31 500.092   4
   8 -14   0 7901.61 487.907   7
  14  -8   0 6736.30 449.275   7
 -14  -8   0 7633.91 505.806   6
 -14   8   0 7072.08 478.526   6
   8 -14  -2 19165.3 760.250   4
   8 -14  -2 17778.0 706.178   7
   8 -14  -4 12325.0 593.887   4
 -14  -8   4 10963.9 604.343   6
   8 -14  -6 15208.0 632.125   4
 -14  -8   6 14746.8 665.152   6
   8 -14  -8 13244.4 542.954   4
 -14  -8   8 12332.8 555.073   6
   8 -14 -10 14319.5 494.352   4
 -14   9   7 7562.70 438.295   6
  14  -9   5 8339.85 396.451   7
   9 -14   5 9077.78 449.638   7
 -14   9   5 9085.02 513.688   6
  14  -9   3 7845.39 424.645   7
   9 -14   3 8561.04 465.762   7
 -14   9   3 8498.94 507.240   6
   9 -14   1 8315.93 467.769   7
  14  -9   1 7762.17 447.211   7
 -14  -9  -1 7582.49 463.393   6
 -14   9   1 7839.37 469.198   6
   9 -14  -1 8708.23 483.971   4
   9 -14  -1 8321.32 462.372   7
  14  -9  -1 7205.52 432.768   7
 -14  -9   1 8042.34 491.369   6
   9 -14  -3 8807.57 475.379   4
   9 -14  -3 7976.73 436.619   7
 -14  -9   3 8025.56 497.923   6
   9 -14  -5 9614.22 473.096   4
 -14  -9   5 8979.16 501.548   6
   9 -14  -7 8036.41 400.797   4
 -14  -9   7 7897.55 432.272   6
  10 -14   4 577.129 114.725   7
 -14  10   4 545.377 141.760   6
  14 -10   2 571.094 128.903   7
  10 -14   2 453.734 115.283   7
 -14  10   2 530.122 130.136   6
  10 -14   0 548.654 126.344   7
  14 -10   0 808.793 143.319   7
  10 -14  -2 566.122 131.394   4
  10 -14  -2 530.884 125.087   7
  14 -10  -2 683.955 140.447   7
 -14 -10   2 478.739 143.226   6
  10 -14  -4 640.570 130.237   4
  10 -14  -4 416.704 95.4358   7
  14 -10  -4 745.352 131.833   7
 -14 -10   4 494.918 130.069   6
 -15   0  -1 6051.26 459.362   3
 -15   0   1 5832.77 450.908   3
 -15   0  -1 5122.70 463.341   6
 -15   0   1 5279.23 511.530   6
 -15   0   3 6548.50 456.929   3
 -15   0   3 7225.19 601.220   6
 -15   0   5 22165.3 1020.15   6
 -15   0   5 21623.0 784.697   3
 -15   0   7 26603.6 1077.07   6
 -15   0   7 25000.9 797.245   3
 -15   0   9 4268.07 413.405   6
 -15   0   9 4697.78 325.444   3
 -15   0  11 5459.64 385.097   6
 -15   0  11 5133.87 303.164   3
 -15   1  12 1625.34 191.492   6
 -15   1  12 1929.31 178.417   3
 -15   1  10 935.657 158.056   3
 -15   1  10 904.894 200.011   6
 -15   1   8 1240.10 195.064   3
 -15   1   8 1145.69 256.777   6
 -15   1   6 7287.99 591.203   6
 -15   1   6 6980.31 449.566   3
 -15   1   4 2128.03 276.112   3
 -15   1   4 2438.32 377.001   6
 -15  -1  -2 3161.12 349.861   6
 -15   1   2 4014.56 376.535   3
 -15   1   2 3365.84 422.967   6
 -15  -1   0 27.2576 130.039   3
 -15   1   0 67.5081 113.014   3
 -15  -1   0 112.938 151.942   6
 -15   1   0 349.429 194.570   6
 -15  -1   2 3776.05 350.160   3
 -15   1  -2 3065.12 350.971   6
 -15  -1   2 3522.35 429.984   6
 -15  -1   4 2324.73 376.583   6
 -15  -1   4 2094.60 261.664   3
 -15  -1   6 7020.67 578.450   6
 -15  -1   6 6983.87 434.411   3
 -15  -1   8 1497.37 198.821   3
 -15  -1   8 1304.54 269.924   6
 -15  -1  10 938.689 145.282   3
 -15  -1  10 726.533 181.912   6
 -15  -1  12 1692.47 188.624   6
 -15  -1  12 1983.20 168.952   3
 -15   2  11 878.836 140.313   3
 -15   2  11 990.420 177.497   6
 -15   2   9 1413.40 195.256   3
 -15   2   9 1437.72 251.467   6
 -15   2   7 12727.0 740.124   6
 -15   2   7 11952.7 558.261   3
 -15   2   5 3124.81 313.394   3
 -15   2   5 3384.15 418.925   6
 -15   2   3 400.187 140.226   3
 -15   2   3 402.257 205.708   6
 -15   2   1 1629.30 250.604   3
 -15  -2  -1 1084.05 235.565   6
 -15   2   1 1705.88 309.479   6
 -15   2  -1 1450.85 236.769   3
 -15  -2   1 1512.94 226.597   3
 -15  -2   1 1232.76 269.531   6
 -15   2  -1 1328.79 261.855   6
 -15  -2   3 377.975 125.497   3
 -15  -2   3 428.900 195.471   6
 -15  -2   5 3200.42 405.318   6
 -15  -2   5 3203.71 289.141   3
 -15  -2   7 12108.1 713.672   6
 -15  -2   7 11579.2 511.647   3
 -15  -2   9 1465.08 174.350   3
 -15  -2   9 1548.97 256.742   6
 -15  -2  11 795.526 117.277   3
 -15  -2  11 874.947 157.282   6
 -15   3  12 3469.95 222.702   3
 -15   3  10 3143.19 315.675   6
 -15   3  10 3354.61 258.666   3
 -15   3   8 6654.71 507.890   6
 -15   3   8 6788.29 403.628   3
 -15   3   6 25251.7 824.505   3
 -15   3   6 25518.6 1044.79   6
 -15   3   4 6080.73 433.975   3
 -15   3   4 6066.55 535.626   6
 -15   3   2 416.455 157.658   3
 -15  -3  -2 551.833 178.252   6
 -15   3   2 470.056 200.633   6
 -15   3   0 4155.08 381.801   3
 -15  -3   0 3780.30 393.215   6
 -15   3   0 4633.21 443.797   6
 -15  -3   2 195.466 102.327   3
 -15  -3   2 331.613 187.383   6
 -15  -3   4 6005.93 378.387   3
 -15  -3   4 5405.35 500.249   6
   3 -15  -6 25441.0 783.360   4
 -15  -3   6 25280.1 1017.69   6
 -15  -3   6 24826.2 724.926   3
   3 -15  -8 6107.83 366.307   4
 -15  -3   8 6094.44 479.174   6
 -15  -3   8 6379.55 341.227   3
   3 -15 -10 3148.86 236.611   4
 -15  -3  10 3093.59 301.019   6
 -15  -3  10 3086.12 210.379   3
 -15   4  11 196.888 76.9262   3
 -15   4  11 85.1552 88.9249   6
 -15   4   9 93.8692 79.2097   3
 -15   4   9-44.6313 109.011   6
 -15   4   7 110.104 112.873   3
 -15   4   7 162.930 159.455   6
 -15   4   5 3685.79 319.498   3
 -15   4   5 3363.52 394.734   6
 -15   4   3 128.983 119.222   3
 -15   4   3-35.7957 185.098   6
 -15   4   1 317.544 148.955   3
 -15  -4  -1 375.437 173.705   6
 -15   4   1 231.522 168.493   6
   4 -15  -1 162.233 102.890   4
 -15  -4   1 463.984 178.757   6
 -15   4  -1 612.342 179.382   6
   4 -15  -3-75.7173 99.1095   4
 -15  -4   3-33.3119 137.943   6
   4 -15  -5 3440.34 306.396   4
 -15  -4   5 3818.28 405.567   6
   4 -15  -7-8.84245 90.0309   4
 -15  -4   7-21.7690 117.460   6
   4 -15  -9-96.6161 86.2611   4
 -15  -4   9 305.591 131.280   6
 -15  -4  11 274.946 85.0804   6
 -15   5  10 1985.34 173.455   3
 -15   5  10 1924.78 219.038   6
 -15   5   8 7941.30 391.335   3
 -15   5   8 8283.15 517.975   6
 -15   5   6 18253.0 641.725   3
 -15   5   6 19223.5 839.424   6
 -15   5   4 1053.25 180.011   3
 -15   5   4 1110.05 254.878   6
 -15  -5  -2 3608.72 335.654   6
 -15   5   2 3810.60 331.687   3
 -15   5   2 4073.91 419.348   6
 -15  -5   0 6499.50 471.858   6
 -15   5   0 6440.90 476.240   6
   5 -15  -2 4055.01 335.322   4
 -15  -5   2 4101.00 396.171   6
   5 -15  -4 1192.40 200.960   4
 -15  -5   4 1056.82 234.117   6
   5 -15  -6 18653.1 671.261   4
 -15  -5   6 20504.7 826.647   6
   5 -15  -8 8430.86 424.453   4
 -15  -5   8 9475.56 517.399   6
   5 -15 -10 2410.25 204.564   4
 -15  -5  10 2108.21 211.016   6
 -15   6   9 4796.32 341.100   6
 -15   6   7 10305.0 420.901   3
 -15   6   7 10618.1 573.242   6
   6 -15   5 15399.2 571.596   7
 -15   6   5 13302.7 521.739   3
 -15   6   5 14003.7 694.020   6
   6 -15   3 4489.76 326.138   7
 -15   6   3 3832.15 303.717   3
 -15   6   3 3917.35 385.177   6
   6 -15   1 2048.02 226.780   7
 -15  -6  -1 1805.73 240.777   6
 -15   6   1 2006.25 283.005   6
   6 -15  -1 2473.64 266.430   4
 -15  -6   1 2045.46 271.449   6
   6 -15  -3 4188.99 336.049   4
 -15  -6   3 3554.18 357.873   6
   6 -15  -5 15210.9 602.591   4
 -15  -6   5 14335.8 667.412   6
   6 -15  -7 11523.6 496.872   4
 -15  -6   7 10862.8 545.108   6
   6 -15  -9 5149.83 299.655   4
 -15  -6   9 4796.45 316.517   6
 -15   7   8 40.0772 95.0902   6
 -15   7   6 126.641 108.663   6
   7 -15   4 1720.33 191.388   7
 -15   7   4 1487.20 238.794   6
   7 -15   2 153.361 94.0696   7
 -15  -7  -2 57.4651 87.7539   6
 -15   7   2 35.0869 115.731   6
   7 -15   0 3549.46 300.296   4
   7 -15   0 3749.10 290.262   7
 -15  -7   0 3195.64 301.674   6
 -15   7   0 2925.35 287.088   6
   7 -15  -2 28.1526 107.086   4
   7 -15  -2 55.6721 73.3590   7
 -15  -7   2-135.208 121.801   6
   7 -15  -4 1488.24 195.333   4
 -15  -7   4 1205.75 210.906   6
   7 -15  -6 41.7163 79.4311   4
 -15  -7   6 13.0043 102.408   6
   7 -15  -8 135.902 87.5735   4
 -15  -7   8 193.831 88.5434   6
 -15   8   5 4203.69 323.503   6
   8 -15   3 273.258 86.3159   7
 -15   8   3 484.998 141.365   6
   8 -15   1 5632.76 329.120   7
 -15  -8  -1 5023.50 337.555   6
 -15   8   1 4619.68 318.298   6
   8 -15  -1 5533.83 341.841   4
   8 -15  -1 4996.10 306.719   7
 -15  -8   1 4984.47 354.386   6
   8 -15  -3 463.625 113.916   4
   8 -15  -3 621.472 111.793   7
 -15  -8   3 296.506 116.430   6
   8 -15  -5 4206.06 278.843   4
 -15  -8   5 3904.22 308.328   6
 -15  -9   2 662.785 134.982   6
 -16   0   0 24650.4 866.466   6
 -16   0   2 12206.1 555.952   3
 -16   0   2 11773.5 643.341   6
 -16   0   4 28068.0 808.734   3
 -16   0   4 28611.3 997.142   6
 -16   0   6 32021.1 810.276   3
 -16   0   6 33409.2 1047.02   6
 -16   0   8 27913.3 872.509   6
 -16   0   8 25846.7 669.584   3
 -16   0  10 9314.23 425.189   6
 -16   0  10 9486.59 350.834   3
 -16   1   9 7024.84 414.390   6
 -16   1   9 6888.98 333.261   3
 -16   1   7 10636.2 458.261   3
 -16   1   7 10936.5 586.581   6
 -16   1   5 13665.0 557.287   3
 -16   1   5 14143.7 702.151   6
 -16   1   3 10529.8 519.064   3
 -16   1   3 10228.1 606.539   6
 -16   1   1 8580.04 481.456   3
 -16  -1  -1 7462.55 462.062   6
 -16   1   1 7948.40 518.272   6
 -16  -1   1 7661.33 505.752   6
 -16   1  -1 7421.58 465.170   6
 -16  -1   3 10643.5 495.333   3
 -16  -1   3 10243.8 598.808   6
 -16  -1   5 13616.6 537.034   3
 -16  -1   5 13862.9 686.919   6
 -16  -1   7 11103.5 582.645   6
 -16  -1   7 10739.6 440.840   3
 -16  -1   9 6961.66 406.176   6
 -16  -1   9 6590.01 304.496   3
 -16   2  10 1661.45 183.332   6
 -16   2  10 1648.92 151.674   3
 -16   2   8 666.658 127.402   3
 -16   2   8 576.050 161.234   6
 -16   2   6 252.531 102.041   3
 -16   2   6 127.221 132.409   6
 -16   2   4 1041.30 178.198   3
 -16   2   4 928.080 213.309   6
 -16   2   2 568.441 148.349   3
 -16   2   2 793.946 201.059   6
 -16  -2   0 1213.52 214.134   6
 -16   2   0 1019.66 197.662   6
 -16  -2   2 445.672 158.672   6
 -16  -2   4 794.158 140.766   3
 -16  -2   4 629.539 191.430   6
 -16  -2   6 238.074 91.4807   3
 -16  -2   6 6.91265 127.077   6
 -16  -2   8 643.597 109.154   3
 -16  -2   8 452.811 132.526   6
 -16   3   9 12.0163 65.2464   3
 -16   3   9 53.1789 84.0757   6
 -16   3   7 1568.89 183.434   3
 -16   3   7 1555.80 235.446   6
 -16   3   5 2291.10 234.045   3
 -16   3   5 2117.77 274.930   6
 -16   3   3 47.3862 100.440   3
 -16   3   3 138.413 136.134   6
 -16   3   1 473.419 140.415   3
 -16  -3  -1 287.078 113.201   6
 -16   3   1 218.497 133.504   6
 -16  -3   1 294.913 141.886   6
 -16  -3   3 6.49115 114.157   6
 -16  -3   5 2228.99 188.994   3
 -16  -3   5 2127.77 270.742   6
 -16  -3   7 1149.22 193.701   6
 -16  -3   9-128.455 80.4823   6
 -16   4   8 6693.36 315.682   3
 -16   4   8 6703.27 388.868   6
 -16   4   6 1503.56 183.254   3
 -16   4   6 1672.73 232.735   6
 -16   4   4 581.901 133.968   3
 -16   4   4 374.827 148.534   6
 -16   4   2 1650.25 205.908   3
 -16   4   2 1577.65 237.932   6
 -16  -4   0 8039.36 451.969   6
 -16   4   0 7455.12 433.942   6
 -16  -4   2 1652.24 234.130   6
 -16  -4   4 508.100 154.752   6
 -16  -4   6 1716.82 231.601   6
 -16  -4   8 6754.13 372.137   6
 -16   5   7 27195.4 599.771   3
 -16   5   7 28522.9 787.540   6
 -16   5   5 19486.6 571.966   3
 -16   5   5 21177.5 734.581   6
 -16   5   3 7035.51 436.727   6
 -16  -5  -1 12660.5 510.402   6
 -16   5   1 14332.5 582.691   6
 -16  -5   1 14173.7 581.956   6
 -16  -5   3 6895.72 425.512   6
 -16  -5   5 20296.0 693.673   6
 -16  -5   7 28846.0 755.662   6
 -16   6   6 21909.0 655.504   6
 -16   6   4 22057.3 690.777   6
 -16   6   2 8224.80 421.773   6
 -16  -6   0 8938.25 422.927   6
 -16  -6   2 8387.38 428.505   6
 -16  -6   4 23168.7 699.591   6
 -16  -6   6 24202.9 668.667   6
 -16  -7   3 6718.89 353.406   6
 -17   0   1 23679.2 679.178   6
 -17   0   3 23293.1 712.547   6
 -17   0   5 22945.5 693.128   6
 -17   1   6 11867.9 401.935   3
 -17   1   6 11890.6 480.033   6
 -17   1   4 11033.1 489.850   6
 -17   1   2 15827.3 571.785   6
 -17  -1   2 16661.5 587.344   6
 -17  -1   4 10438.7 476.278   6
 -17  -1   6 12260.2 486.128   6
 -17   2   5 1443.97 185.008   6
 -17   2   3 1159.99 173.174   6
 -17   2   1 1701.10 189.217   6
 -17  -2   1 2146.86 208.979   6
 -17  -2   3 1432.48 182.467   6
 -17  -2   5 1504.07 187.914   6
 -17   3   4 42.0941 84.5016   6
 -17  -3   2 613.629 127.905   6
 -17  -3   4 124.973 79.7419   6
   0   0   0    0.00    0.00   0
TITL FJU-14-ClO4 in I-42m
REM I-42m (#121 in standard setting)
CELL 1.54184  14.206564  14.206564  19.813659  90.0000  90.0000  90.0000
ZERR   45.00   0.000196   0.000196   0.000441   0.0000   0.0000   0.0000
LATT -2
SYMM -x,-y, z
SYMM  y,-x,-z
SYMM -y, x,-z
SYMM -x, y,-z
SYMM  x,-y,-z
SYMM -y,-x, z
SYMM  y, x, z
SFAC C H N O Cl Cu
UNIT 45.00 45.00 45.00 45.00 45.00 45.00
TREF
HKLF 4
END
;
_shelx_hkl_checksum              96841
_shelx_fab_checksum              29400
_shelx_fab_file
;
    1    1    0     12.17     -3.39
    0    2    0     30.07     -0.02
    2    2    0    -46.42     -0.86
    1    3    0     23.91      0.77
    3    3    0    -13.51      0.59
    0    4    0    -21.40      0.03
    2    4    0      4.52     -0.07
    4    4    0      2.11      0.12
    1    5    0     27.27      0.19
    3    5    0     -6.24      0.23
    5    5    0     11.91     -0.25
    0    6    0     21.16      0.03
    2    6    0     -0.58      0.17
    4    6    0      8.10     -0.09
    6    6    0     11.85      0.03
    1    7    0      4.23     -0.17
    3    7    0      7.45     -0.35
    5    7    0      3.91      0.25
    7    7    0     -7.39      0.14
    0    8    0      8.54      1.22
    2    8    0      6.06      0.28
    4    8    0      2.29      0.00
    6    8    0     -4.74     -0.05
    8    8    0      6.63      0.01
    1    9    0     -3.19      0.24
    3    9    0      1.65      0.21
    5    9    0     -0.42     -0.01
    7    9    0     -3.58     -0.02
    9    9    0      0.79     -0.32
    0   10    0      5.54      0.10
    2   10    0     -0.94     -0.02
    4   10    0     -3.13      0.30
    6   10    0     -1.18      0.31
    8   10    0      4.08     -0.09
   10   10    0      4.98     -0.46
    1   11    0     -1.05      0.13
    3   11    0      2.71     -0.03
    5   11    0      1.56     -0.04
    7   11    0      3.95     -0.13
    9   11    0      6.25     -0.26
   11   11    0     -1.19     -0.04
    0   12    0      2.15      0.04
    2   12    0      1.22      0.18
    4   12    0     -1.20      0.28
    6   12    0     -2.05      0.16
    8   12    0     -1.80     -0.05
   10   12    0     -0.72      0.08
   12   12    0      0.41      0.04
    1   13    0      1.86      0.07
    3   13    0     -0.21     -0.05
    5   13    0      0.97      0.00
    7   13    0      5.36      0.18
    9   13    0      1.03      0.13
   11   13    0      0.06     -0.01
    0   14    0      3.16     -0.06
    2   14    0      1.17      0.17
    4   14    0     -1.31      0.15
    6   14    0      0.31      0.02
    8   14    0     -1.54      0.04
   10   14    0     -0.54      0.23
    1   15    0      1.05      0.16
    3   15    0      0.92     -0.16
    5   15    0      0.34     -0.05
    7   15    0      0.19     -0.06
    0   16    0      3.92      0.02
    2   16    0      1.67     -0.03
    4   16    0     -0.37      0.27
    6   16    0      0.82      0.11
    0    1    1   -143.91      0.02
    1    2    1     77.05      1.16
    0    3    1    -42.24      0.06
    2    3    1    -37.73     -0.35
    1    4    1      7.23     -0.63
    3    4    1     17.36      0.11
    0    5    1      2.00     -0.01
    2    5    1     -8.63     -0.10
    4    5    1     -5.11      0.05
    1    6    1     -4.03      0.39
    3    6    1     14.81      0.14
    5    6    1     -5.07     -0.04
    0    7    1      6.44     -0.28
    2    7    1      0.84      0.14
    4    7    1     -8.23      0.03
    6    7    1      3.81      0.10
    1    8    1     -0.18     -0.14
    3    8    1     -0.41      0.01
    5    8    1      4.93     -0.03
    7    8    1      0.90     -0.02
    0    9    1      1.01     -0.28
    2    9    1      2.68      0.18
    4    9    1     -0.98     -0.04
    6    9    1      2.71     -0.35
    8    9    1      0.24      0.05
    1   10    1      3.23     -0.05
    3   10    1      0.10     -0.14
    5   10    1      3.76     -0.02
    7   10    1      0.03      0.21
    9   10    1     -4.69      0.23
    0   11    1     -3.95     -0.04
    2   11    1      0.28      0.00
    4   11    1      0.45      0.00
    6   11    1     -4.18     -0.12
    8   11    1     -1.96     -0.07
   10   11    1      1.50      0.16
    1   12    1      3.81     -0.09
    3   12    1     -1.15      0.15
    5   12    1      2.39      0.08
    7   12    1      4.00     -0.01
    9   12    1     -0.83      0.14
   11   12    1     -0.38     -0.09
    0   13    1     -4.74      0.15
    2   13    1     -1.59     -0.31
    4   13    1      1.01     -0.09
    6   13    1     -2.25      0.05
    8   13    1     -1.68     -0.16
   10   13    1      1.94     -0.40
   12   13    1      0.85     -0.02
    1   14    1      2.14      0.11
    3   14    1      1.27      0.23
    5   14    1     -0.05      0.30
    7   14    1      0.91      0.03
    9   14    1      0.86     -0.06
    0   15    1     -1.72      0.16
    2   15    1     -2.45     -0.10
    4   15    1     -0.23     -0.17
    6   15    1      1.01      0.07
    8   15    1     -0.12     -0.01
    1   16    1      0.23     -0.09
    3   16    1      1.83      0.17
    5   16    1     -0.10      0.09
    0   17    1     -2.29      0.04
    2   17    1     -2.60     -0.02
    0    0    2    175.04     -0.11
    1    1    2   -107.77      0.83
    0    2    2    -37.56     -0.19
    2    2    2     24.90      0.17
    1    3    2     48.28      0.49
    3    3    2     25.67     -0.15
    0    4    2    -33.72      0.01
    2    4    2     22.40     -0.37
    4    4    2     -0.09     -0.03
    1    5    2     -2.49     -0.06
    3    5    2    -17.40      0.39
    5    5    2     -5.36     -0.20
    0    6    2     -9.26     -0.07
    2    6    2    -10.43      0.30
    4    6    2      0.69     -0.06
    6    6    2      4.65     -0.22
    1    7    2     -6.72     -0.46
    3    7    2      1.52     -0.23
    5    7    2     -2.48      0.21
    7    7    2     -8.62      0.17
    0    8    2     -5.55      0.19
    2    8    2     -1.66      0.02
    4    8    2     -3.17      0.20
    6    8    2     -5.56      0.11
    8    8    2      4.03      0.04
    1    9    2     -3.08     -0.11
    3    9    2     -0.04      0.05
    5    9    2      0.24      0.01
    7    9    2     -0.83     -0.08
    9    9    2     -1.69     -0.07
    0   10    2      2.67     -0.04
    2   10    2     -0.40     -0.06
    4   10    2     -3.23      0.06
    6   10    2     -0.45      0.31
    8   10    2      0.77      0.05
   10   10    2     -0.42     -0.09
    1   11    2     -2.65      0.22
    3   11    2      1.61     -0.13
    5   11    2      1.65     -0.20
    7   11    2      1.65     -0.07
    9   11    2      1.26     -0.01
   11   11    2     -2.30      0.17
    0   12    2     -0.17     -0.07
    2   12    2      0.38      0.29
    4   12    2     -0.25     -0.03
    6   12    2     -3.25      0.07
    8   12    2     -3.09      0.14
   10   12    2     -0.11      0.08
   12   12    2      1.76      0.05
    1   13    2     -1.27     -0.44
    3   13    2     -0.99     -0.14
    5   13    2      1.10     -0.25
    7   13    2      2.05      0.04
    9   13    2      1.35      0.09
   11   13    2      0.83     -0.01
    0   14    2      0.54     -0.70
    2   14    2     -0.11      0.23
    4   14    2     -0.17     -0.02
    6   14    2     -1.24     -0.34
    8   14    2     -1.66      0.17
   10   14    2      0.34      0.34
    1   15    2     -1.85      0.09
    3   15    2      0.45     -0.07
    5   15    2     -0.06     -0.13
    7   15    2     -0.93     -0.13
    9   15    2      2.33     -0.07
    0   16    2      0.48     -0.05
    2   16    2     -0.26     -0.06
    4   16    2     -1.39      0.11
    6   16    2     -0.56      0.04
    1   17    2      0.00      0.03
    3   17    2      1.40     -0.13
    0    1    3     25.03      0.05
    1    2    3     13.19      1.10
    0    3    3    -28.19      0.15
    2    3    3    -70.22      0.45
    1    4    3    -10.22     -0.18
    3    4    3      3.40     -0.31
    0    5    3     12.45     -0.01
    2    5    3     -3.64     -0.01
    4    5    3     -0.89     -0.07
    1    6    3    -12.54      0.14
    3    6    3      5.07      0.15
    5    6    3     -4.14      0.20
    0    7    3      0.45     -0.01
    2    7    3     -6.66     -0.14
    4    7    3    -10.22      0.00
    6    7    3      1.48      0.09
    1    8    3     -2.48     -0.04
    3    8    3      3.14     -0.05
    5    8    3      5.06     -0.03
    7    8    3      0.65     -0.08
    0    9    3     -2.67      0.01
    2    9    3     -2.20      0.07
    4    9    3     -2.33      0.04
    6    9    3     -2.03     -0.33
    8    9    3      0.07     -0.06
    1   10    3     -1.05     -0.19
    3   10    3     -1.24     -0.02
    5   10    3      4.07      0.09
    7   10    3     -0.92      0.24
    9   10    3     -0.65      0.05
    0   11    3     -4.93      0.03
    2   11    3     -2.28     -0.18
    4   11    3      1.49      0.06
    6   11    3     -3.91     -0.13
    8   11    3     -0.32     -0.18
   10   11    3      1.34     -0.02
    1   12    3      1.16      0.41
    3   12    3     -1.91      0.12
    5   12    3     -1.22     -0.04
    7   12    3      2.46     -0.15
    9   12    3     -0.07      0.13
   11   12    3     -1.88      0.08
    0   13    3     -4.99      0.13
    2   13    3     -1.29      0.07
    4   13    3      1.21     -0.13
    6   13    3      0.07      0.10
    8   13    3     -1.95     -0.13
   10   13    3     -1.36     -0.25
    1   14    3      1.96      0.59
    3   14    3      0.49     -0.03
    5   14    3     -2.44      0.14
    7   14    3      0.03      0.06
    9   14    3      0.05     -0.06
    0   15    3     -2.93      0.17
    2   15    3     -2.38     -0.29
    4   15    3      0.91     -0.32
    6   15    3      0.93      0.09
    8   15    3     -0.78     -0.10
    1   16    3      0.71     -0.13
    3   16    3      1.74      0.03
    5   16    3      0.37     -0.02
    7   16    3     -0.79      0.10
    0   17    3     -0.38      0.02
    2   17    3     -0.94      0.01
    0    0    4     36.22      0.02
    1    1    4    -35.43     -1.44
    0    2    4    -26.23     -0.05
    2    2    4     30.81     -1.07
    1    3    4     21.82      0.42
    3    3    4      0.84      0.55
    0    4    4    -21.50      0.00
    2    4    4     11.24     -0.20
    4    4    4      5.54     -0.06
    1    5    4      7.90     -0.38
    3    5    4    -10.22     -0.21
    5    5    4     -3.63     -0.20
    0    6    4     16.57      0.01
    2    6    4      1.25      0.13
    4    6    4      4.86     -0.18
    6    6    4      7.31     -0.16
    1    7    4      4.40     -0.19
    3    7    4      2.41     -0.43
    5    7    4      1.71      0.04
    7    7    4     -3.50      0.13
    0    8    4     -1.25     -0.02
    2    8    4     -2.37     -0.03
    4    8    4      0.13      0.11
    6    8    4     -0.38      0.01
    8    8    4      1.11     -0.05
    1    9    4      0.57      0.16
    3    9    4     -0.09      0.00
    5    9    4      0.04     -0.18
    7    9    4      1.42     -0.20
    9    9    4     -1.26     -0.16
    0   10    4      0.23     -0.05
    2   10    4      0.01     -0.18
    4   10    4     -5.52      0.04
    6   10    4     -1.21      0.27
    8   10    4     -0.51     -0.05
   10   10    4     -1.78     -0.28
    1   11    4     -0.44     -0.12
    3   11    4     -0.37     -0.03
    5   11    4      0.18     -0.16
    7   11    4      1.82     -0.31
    9   11    4     -2.35     -0.23
   11   11    4     -1.18     -0.02
    0   12    4      2.82      0.04
    2   12    4      1.85     -0.17
    4   12    4     -0.39      0.07
    6   12    4     -1.56     -0.01
    8   12    4     -3.51     -0.05
   10   12    4      0.15      0.03
   12   12    4      0.73     -0.01
    1   13    4      0.39     -1.12
    3   13    4     -1.38     -0.25
    5   13    4      1.77      0.10
    7   13    4      1.10     -0.03
    9   13    4      0.35     -0.23
   11   13    4     -0.83     -0.11
    0   14    4      0.52     -0.09
    2   14    4     -0.83     -0.02
    4   14    4      0.54      0.15
    6   14    4     -0.17     -0.13
    8   14    4     -1.49      0.08
   10   14    4     -0.38      0.20
    1   15    4     -0.79      0.04
    3   15    4      0.53      0.02
    5   15    4      0.68      0.02
    7   15    4     -0.11     -0.04
    0   16    4      2.07      0.02
    2   16    4      0.55     -0.09
    4   16    4     -1.27      0.06
    6   16    4      0.98      0.00
    1   17    4     -2.44      0.06
    3   17    4      0.69     -0.02
    0    1    5     11.81     -0.02
    1    2    5     13.70      0.17
    0    3    5     21.66     -0.03
    2    3    5     -4.88     -0.23
    1    4    5      5.86     -0.21
    3    4    5      3.24     -0.12
    0    5    5     -0.83      0.04
    2    5    5      7.45      0.12
    4    5    5      1.66     -0.31
    1    6    5     -0.14      0.22
    3    6    5      9.35      0.06
    5    6    5     -0.65     -0.31
    0    7    5      9.54      0.02
    2    7    5      8.66     -0.11
    4    7    5     -3.99     -0.34
    6    7    5      2.03      0.18
    1    8    5      1.87      0.01
    3    8    5      3.24     -0.09
    5    8    5      0.90      0.07
    7    8    5      2.50      0.26
    0    9    5      2.49      0.06
    2    9    5      2.18      0.08
    4    9    5     -2.12     -0.13
    6    9    5     -1.17     -0.31
    8    9    5     -0.54     -0.15
    1   10    5      4.29     -0.13
    3   10    5     -0.24     -0.14
    5   10    5      5.21      0.02
    7   10    5      0.89      0.22
    9   10    5      1.92      0.16
    0   11    5     -0.39      0.10
    2   11    5      0.31     -0.20
    4   11    5      2.78     -0.10
    6   11    5     -2.48      0.10
    8   11    5      0.27     -0.02
   10   11    5      0.98     -0.02
    1   12    5      2.61      0.44
    3   12    5     -0.70      0.01
    5   12    5     -2.93      0.06
    7   12    5      2.17     -0.02
    9   12    5      3.10      0.14
   11   12    5      0.13      0.16
    0   13    5     -2.60     -0.01
    2   13    5     -0.37      0.03
    4   13    5     -0.75     -0.16
    6   13    5      2.01      0.12
    8   13    5     -0.67      0.02
   10   13    5     -2.04     -0.08
    1   14    5      5.04      0.34
    3   14    5      0.26     -0.01
    5   14    5     -2.65     -0.07
    7   14    5      0.63     -0.05
    9   14    5      0.49      0.14
    0   15    5      0.42      0.02
    2   15    5     -0.38     -0.20
    4   15    5     -0.18     -0.08
    6   15    5      1.48     -0.12
    8   15    5      1.34     -0.11
    1   16    5      0.25     -0.17
    3   16    5      0.11      0.16
    5   16    5     -0.41      0.13
    0   17    5      1.29      0.01
    2   17    5     -0.05      0.01
    0    0    6     32.41      0.01
    1    1    6     15.25     -0.02
    0    2    6     -3.20     -0.05
    2    2    6      4.78     -0.08
    1    3    6     -2.98      0.21
    3    3    6     -3.73     -0.05
    0    4    6     -3.58      0.08
    2    4    6     -3.68     -0.42
    4    4    6      3.79      0.25
    1    5    6      0.21     -0.48
    3    5    6     -0.09     -0.02
    5    5    6      8.20      0.19
    0    6    6      7.34      0.02
    2    6    6     -6.52      0.59
    4    6    6      3.17      0.31
    6    6    6      3.63     -0.30
    1    7    6     -5.35     -0.27
    3    7    6      1.22     -0.25
    5    7    6      1.88     -0.05
    7    7    6     -6.83      0.04
    0    8    6      6.93     -0.06
    2    8    6      2.96      0.11
    4    8    6      4.09      0.24
    6    8    6     -1.29      0.18
    8    8    6      0.82      0.25
    1    9    6      2.09      0.26
    3    9    6      2.66      0.14
    5    9    6     -1.14     -0.15
    7    9    6      0.50      0.01
    9    9    6      1.96      0.03
    0   10    6      0.19     -0.04
    2   10    6      2.35     -0.21
    4   10    6     -1.08     -0.05
    6   10    6     -0.27      0.37
    8   10    6      2.08      0.40
   10   10    6     -1.33      0.04
    1   11    6      0.63      0.26
    3   11    6      0.95      0.04
    5   11    6      1.77     -0.20
    7   11    6      2.52      0.04
    9   11    6     -0.42      0.17
   11   11    6      1.13      0.17
    0   12    6     -0.48     -0.03
    2   12    6      0.70      0.28
    4   12    6      1.26     -0.05
    6   12    6     -0.82      0.03
    8   12    6     -0.57      0.53
   10   12    6      0.88      0.29
   12   12    6      0.12      0.05
    1   13    6      1.17     -0.28
    3   13    6      0.42      0.01
    5   13    6      0.83     -0.01
    7   13    6      0.74      0.20
    9   13    6      2.44      0.04
   11   13    6     -1.39     -0.14
    0   14    6     -0.62     -0.03
    2   14    6     -1.53      0.36
    4   14    6      1.43     -0.02
    6   14    6     -2.08     -0.11
    8   14    6     -0.99      0.07
    1   15    6     -0.63      0.18
    3   15    6      0.73     -0.05
    5   15    6     -0.66      0.00
    7   15    6     -1.03      0.05
    0   16    6      1.81      0.01
    2   16    6      0.80     -0.03
    4   16    6     -0.98      0.05
    6   16    6     -1.12      0.10
    1   17    6     -0.85      0.11
    0    1    7    -33.34     -0.01
    1    2    7    -10.22      0.16
    0    3    7     -1.59     -0.04
    2    3    7      6.42      0.71
    1    4    7      7.51      0.46
    3    4    7      3.51      0.17
    0    5    7    -15.50     -0.03
    2    5    7      0.16     -0.20
    4    5    7     -4.54     -0.04
    1    6    7     -3.30      0.15
    3    6    7     -2.92      0.37
    5    6    7     -5.90      0.41
    0    7    7     -4.07      0.01
    2    7    7     -3.86     -0.20
    4    7    7     -2.17      0.07
    6    7    7      1.71     -0.17
    1    8    7     -9.76      0.07
    3    8    7     -1.35     -0.01
    5    8    7      3.03     -0.06
    7    8    7      1.28      0.04
    0    9    7     -3.18      0.01
    2    9    7     -0.85      0.08
    4    9    7      1.95      0.05
    6    9    7     -1.26     -0.40
    8    9    7     -4.04     -0.27
    1   10    7     -1.08     -0.14
    3   10    7     -1.83      0.10
    5   10    7      2.77      0.18
    7   10    7      0.65      0.30
    9   10    7      2.62      0.30
    0   11    7     -3.40     -0.01
    2   11    7     -1.71      0.07
    4   11    7      3.03      0.13
    6   11    7     -1.65     -0.05
    8   11    7     -2.88     -0.15
   10   11    7     -1.59     -0.12
    1   12    7      1.05      0.06
    3   12    7      1.14      0.27
    5   12    7     -1.43      0.04
    7   12    7      0.00     -0.20
    9   12    7      1.81     -0.01
   11   12    7      0.94      0.18
    0   13    7     -3.63      0.00
    2   13    7     -0.63     -0.23
    4   13    7      0.75      0.01
    6   13    7      1.78      0.07
    8   13    7     -1.50     -0.06
   10   13    7     -1.77     -0.15
    1   14    7      0.28      0.03
    3   14    7      1.22      0.16
    5   14    7      0.19      0.14
    7   14    7      0.02      0.04
    9   14    7      0.67      0.13
    0   15    7     -0.94     -0.01
    2   15    7     -0.09     -0.03
    4   15    7      0.02      0.01
    6   15    7     -0.47      0.02
    1   16    7     -0.13     -0.06
    3   16    7      1.78      0.02
    5   16    7     -0.04      0.07
    0    0    8      5.09      0.05
    1    1    8      5.03      0.01
    0    2    8      1.24     -0.06
    2    2    8     -2.91      0.16
    1    3    8     -9.46     -0.12
    3    3    8     -0.72     -0.02
    0    4    8     -1.72      0.03
    2    4    8     -6.51     -0.03
    4    4    8     -5.06      0.40
    1    5    8     -4.43      0.01
    3    5    8      1.43     -0.13
    5    5    8      2.33     -0.34
    0    6    8      2.47      0.00
    2    6    8      0.88      0.93
    4    6    8     -4.14      0.07
    6    6    8     -2.46      0.10
    1    7    8     -1.52     -0.39
    3    7    8      0.02     -0.39
    5    7    8     -3.07      0.06
    7    7    8     -1.32     -0.30
    0    8    8      1.94     -0.02
    2    8    8      1.09      0.02
    4    8    8     -3.79      0.06
    6    8    8     -1.29      0.00
    8    8    8     -1.44      0.01
    1    9    8     -2.94      0.12
    3    9    8     -1.88      0.22
    5    9    8     -2.77     -0.23
    7    9    8     -0.23     -0.41
    9    9    8     -0.66     -0.10
    0   10    8     -2.22     -0.03
    2   10    8      0.68     -0.12
    4   10    8     -2.73      0.09
    6   10    8     -0.87      0.07
    8   10    8     -0.47      0.32
   10   10    8     -2.57      0.00
    1   11    8      0.36      0.16
    3   11    8     -2.71      0.06
    5   11    8     -0.63     -0.05
    7   11    8     -0.88     -0.46
    9   11    8     -0.82     -0.11
   11   11    8      3.16      0.10
    0   12    8     -2.54     -0.03
    2   12    8     -0.74      0.01
    4   12    8     -0.09      0.05
    6   12    8      0.15     -0.13
    8   12    8     -0.94     -0.32
   10   12    8      0.49     -0.09
    1   13    8      0.18     -0.09
    3   13    8     -1.59      0.01
    5   13    8     -0.22      0.13
    7   13    8      0.47     -0.12
    9   13    8      0.70     -0.29
    0   14    8      1.61      0.04
    2   14    8     -1.20      0.22
    4   14    8      0.03      0.07
    6   14    8      0.38      0.03
    8   14    8     -1.31     -0.12
    1   15    8     -0.08      0.00
    3   15    8     -0.15      0.00
    5   15    8      1.35     -0.06
    7   15    8      1.95     -0.03
    0   16    8     -0.90      0.02
    2   16    8     -0.54      0.05
    4   16    8     -0.72      0.13
    0    1    9     11.24     -0.05
    1    2    9      2.47      0.04
    0    3    9      2.37     -0.05
    2    3    9     -5.88      0.14
    1    4    9      4.33     -0.08
    3    4    9     -7.91     -0.08
    0    5    9      0.59      0.01
    2    5    9     -2.07     -0.70
    4    5    9     -1.17     -0.33
    1    6    9      4.46      0.08
    3    6    9      0.82      0.07
    5    6    9      1.47     -0.19
    0    7    9      4.79      0.05
    2    7    9     -3.31     -0.27
    4    7    9     -2.39     -0.20
    6    7    9     -1.95      0.28
    1    8    9      2.46      0.13
    3    8    9      1.12      0.12
    5    8    9      2.50      0.36
    7    8    9      4.04      0.57
    0    9    9      3.37      0.02
    2    9    9     -1.75      0.10
    4    9    9     -2.39      0.01
    6    9    9     -2.50     -0.06
    8    9    9     -2.71     -0.93
    1   10    9      0.75     -0.19
    3   10    9     -1.88     -0.38
    5   10    9      0.28      0.12
    7   10    9      1.15      0.06
    9   10    9      2.27     -0.06
    0   11    9     -1.23      0.01
    2   11    9     -1.34     -0.04
    4   11    9      1.45     -0.11
    6   11    9     -0.03      0.07
    8   11    9     -2.15     -0.45
   10   11    9     -3.03     -0.69
    1   12    9      1.16      0.08
    3   12    9     -0.33      0.11
    5   12    9     -2.26      0.15
    7   12    9      0.42      0.33
    9   12    9      1.71      0.14
   11   12    9      1.04      0.23
    0   13    9     -0.24      0.00
    2   13    9      0.95     -0.29
    4   13    9     -0.25     -0.15
    6   13    9      0.49      0.16
    8   13    9      0.38      0.31
   10   13    9     -2.05     -0.10
    1   14    9     -0.75      0.11
    3   14    9     -0.50      0.06
    5   14    9      0.07     -0.04
    7   14    9      0.48     -0.03
    0   15    9     -0.53      0.00
    2   15    9     -0.36     -0.16
    4   15    9     -0.34     -0.04
    6   15    9     -1.25     -0.05
    1   16    9     -0.66     -0.10
    3   16    9      1.54      0.00
    0    0   10     -4.27      0.03
    1    1   10      5.56     -0.29
    0    2   10      4.71      0.01
    2    2   10      7.86     -0.09
    1    3   10      1.34      0.00
    3    3   10      7.83      0.05
    0    4   10      5.48     -0.03
    2    4   10      6.92     -0.20
    4    4   10      5.31      0.28
    1    5   10      0.46     -0.17
    3    5   10     -0.12     -0.28
    5    5   10      1.80     -0.03
    0    6   10      0.80     -0.02
    2    6   10      2.47      0.29
    4    6   10      1.81      0.35
    6    6   10      2.27     -0.05
    1    7   10      1.91     -0.07
    3    7   10      1.33     -0.18
    5    7   10      3.07      0.01
    7    7   10      2.28     -0.24
    0    8   10     -1.85     -0.01
    2    8   10     -0.91      0.17
    4    8   10      1.19      0.18
    6    8   10     -0.36      0.08
    8    8   10     -1.07      0.62
    1    9   10      1.12      0.11
    3    9   10      3.80      0.18
    5    9   10      1.99     -0.04
    7    9   10      3.75     -0.03
    9    9   10      1.47     -1.78
    0   10   10      0.50      0.01
    2   10   10      2.34     -0.05
    4   10   10     -0.29      0.06
    6   10   10      1.60      0.20
    8   10   10      2.46     -0.11
   10   10   10     -4.26     -1.51
    1   11   10      1.60      0.03
    3   11   10     -1.21     -0.03
    5   11   10      0.56     -0.14
    7   11   10      1.23     -0.07
    9   11   10     -1.18     -0.36
   11   11   10      1.96      0.74
    0   12   10     -0.09      0.00
    2   12   10      0.00      0.05
    4   12   10      0.98      0.00
    6   12   10      0.96     -0.24
    8   12   10      0.01      0.05
   10   12   10      0.49      0.25
    1   13   10     -0.59     -0.14
    3   13   10     -1.18     -0.16
    5   13   10     -0.72     -0.07
    7   13   10     -0.22     -0.14
    9   13   10      1.14     -0.18
    0   14   10      2.79      0.01
    2   14   10     -0.27      0.10
    4   14   10      0.32      0.06
    6   14   10     -0.39      0.02
    8   14   10      0.02     -0.06
    1   15   10     -0.69     -0.08
    3   15   10      0.53     -0.06
    5   15   10     -0.05     -0.09
    0   16   10      0.00      0.02
    2   16   10     -0.49      0.07
    0    1   11     -6.27      0.00
    1    2   11     -1.93      0.15
    0    3   11      4.77      0.01
    2    3   11      3.93      0.47
    1    4   11      0.63      0.18
    3    4   11      2.77      0.03
    0    5   11     -0.27      0.01
    2    5   11      3.08      0.07
    4    5   11      1.68     -0.24
    1    6   11     -0.69      0.60
    3    6   11      4.72      0.40
    5    6   11      1.10     -0.08
    0    7   11     -1.61      0.00
    2    7   11      0.96     -0.09
    4    7   11     -2.07     -0.13
    6    7   11     -2.57      0.18
    1    8   11      2.91     -0.20
    3    8   11      4.27      0.04
    5    8   11      1.72     -0.10
    7    8   11      0.83     -0.29
    0    9   11     -0.84     -0.02
    2    9   11     -1.20      0.22
    4    9   11     -0.73     -0.08
    6    9   11     -1.91     -0.38
    8    9   11     -2.59      0.48
    1   10   11      1.87     -0.07
    3   10   11      2.15     -0.11
    5   10   11      1.76      0.13
    7   10   11     -0.20      0.57
    9   10   11      8.48      3.07
    0   11   11     -0.61     -0.02
    2   11   11      0.43      0.10
    4   11   11      1.35     -0.01
    6   11   11      0.27     -0.07
    8   11   11      0.46      0.10
   10   11   11      0.11      0.63
    1   12   11      1.44      0.09
    3   12   11      1.57      0.16
    5   12   11     -0.12      0.00
    7   12   11     -0.50     -0.02
    9   12   11      0.78      0.27
    0   13   11     -1.62     -0.04
    2   13   11      1.69     -0.27
    4   13   11      0.59     -0.17
    6   13   11     -0.48      0.11
    8   13   11      0.00      0.05
    1   14   11     -0.65      0.21
    3   14   11     -0.57      0.12
    5   14   11      0.44     -0.13
    7   14   11      0.23      0.01
    0   15   11     -0.12     -0.01
    2   15   11      0.12     -0.17
    4   15   11     -0.25     -0.19
    0    0   12     -1.07      0.02
    1    1   12     -0.22     -0.17
    0    2   12     -3.95      0.02
    2    2   12     -2.97     -0.31
    1    3   12     -6.14     -0.09
    3    3   12      0.43      0.53
    0    4   12     -3.36     -0.04
    2    4   12     -0.47     -0.03
    4    4   12      2.14     -0.49
    1    5   12     -1.18     -0.26
    3    5   12     -1.52      0.42
    5    5   12      0.16      0.51
    0    6   12     -1.00     -0.02
    2    6   12     -0.30     -0.03
    4    6   12      2.09      0.32
    6    6   12     -1.04     -0.24
    1    7   12     -0.86     -0.25
    3    7   12     -1.38     -0.32
    5    7   12      0.82     -0.32
    7    7   12     -0.63     -0.34
    0    8   12     -0.71      0.01
    2    8   12     -2.22     -0.16
    4    8   12      1.08     -0.04
    6    8   12     -1.71     -0.12
    8    8   12     -1.06      0.72
    1    9   12     -1.23     -0.08
    3    9   12      1.31      0.09
    5    9   12     -0.74     -0.18
    7    9   12     -0.15     -0.10
    9    9   12     -2.50     -1.07
    0   10   12     -0.76      0.04
    2   10   12      0.47     -0.03
    4   10   12     -2.16      0.01
    6   10   12     -2.47      0.15
    8   10   12     -1.35      0.03
   10   10   12     -4.31     -1.66
    1   11   12     -0.21     -0.08
    3   11   12      0.76     -0.05
    5   11   12      0.29     -0.05
    7   11   12     -1.20     -0.03
    9   11   12     -0.90     -0.42
    0   12   12     -1.83      0.00
    2   12   12     -1.01      0.17
    4   12   12      0.50      0.17
    6   12   12     -0.09     -0.16
    8   12   12     -0.02      0.26
    1   13   12     -0.39     -0.09
    3   13   12     -0.07     -0.23
    5   13   12     -0.03     -0.03
    7   13   12      0.58     -0.05
    0   14   12      1.09      0.00
    2   14   12      0.11      0.25
    4   14   12     -0.41      0.14
    6   14   12     -0.22      0.04
    1   15   12      0.05     -0.04
    3   15   12      1.09     -0.01
    0    1   13     -0.38      0.02
    1    2   13      0.39      0.07
    0    3   13      1.37      0.04
    2    3   13     -4.45      0.06
    1    4   13      0.35     -0.13
    3    4   13     -3.78      0.80
    0    5   13     -1.90      0.01
    2    5   13     -2.15     -0.61
    4    5   13     -1.29      0.85
    1    6   13     -1.52      0.43
    3    6   13     -3.24     -0.25
    5    6   13     -1.25     -0.34
    0    7   13     -1.31     -0.02
    2    7   13     -0.75     -0.12
    4    7   13     -2.00      0.06
    6    7   13      1.56      0.66
    1    8   13     -0.44     -0.01
    3    8   13     -2.50      0.00
    5    8   13     -1.78      0.27
    7    8   13      2.29      0.57
    0    9   13     -0.24     -0.02
    2    9   13     -2.04      0.13
    4    9   13      0.67     -0.04
    6    9   13      2.08      0.10
    8    9   13     -2.27     -0.76
    1   10   13     -1.30     -0.10
    3   10   13     -1.46     -0.36
    5   10   13      0.91      0.16
    7   10   13     -0.19      0.27
    9   10   13     -0.83     -0.14
    0   11   13     -1.74     -0.02
    2   11   13     -3.10     -0.05
    4   11   13     -1.52     -0.18
    6   11   13      0.45      0.02
    8   11   13     -0.69     -0.33
    1   12   13      1.56      0.13
    3   12   13     -0.37      0.12
    5   12   13      0.45      0.14
    7   12   13      0.46      0.25
    0   13   13      0.64     -0.03
    2   13   13      0.14     -0.23
    4   13   13     -0.67     -0.05
    6   13   13     -0.47      0.18
    1   14   13      1.60      0.12
    3   14   13      0.23      0.15
    5   14   13      1.87      0.00
    0    0   14      4.28     -0.02
    1    1   14     -0.53     -0.13
    0    2   14      0.04     -0.01
    2    2   14     -0.21      0.07
    1    3   14      0.21      0.19
    3    3   14      3.16     -0.24
    0    4   14     -2.23     -0.01
    2    4   14     -4.42     -0.33
    4    4   14     -8.37     -3.72
    1    5   14      0.45     -0.03
    3    5   14     -2.35     -0.55
    5    5   14     -0.64     -0.34
    0    6   14      0.67     -0.01
    2    6   14     -0.15      0.34
    4    6   14     -0.77     -0.15
    6    6   14     -0.83      0.10
    1    7   14      0.38     -0.08
    3    7   14     -0.43     -0.21
    5    7   14      1.12      0.11
    7    7   14     -0.72     -0.23
    0    8   14      2.08      0.05
    2    8   14      1.06     -0.10
    4    8   14      0.56      0.15
    6    8   14     -0.58     -0.12
    8    8   14     -0.58     -0.41
    1    9   14     -1.90      0.00
    3    9   14     -1.09      0.14
    5    9   14     -1.72     -0.16
    7    9   14      0.23     -0.60
    9    9   14      0.67      0.44
    0   10   14      1.92      0.05
    2   10   14      1.33     -0.04
    4   10   14     -3.79      0.00
    6   10   14      0.42      0.30
    8   10   14      0.59      0.19
    1   11   14      0.59     -0.05
    3   11   14     -0.41      0.03
    5   11   14     -0.83     -0.07
    7   11   14     -1.21     -0.44
    9   11   14     -0.21     -0.03
    0   12   14     -0.76      0.02
    2   12   14     -0.69      0.06
    4   12   14     -0.69      0.24
    6   12   14     -0.44     -0.23
    8   12   14     -2.34     -0.11
    1   13   14     -0.01     -0.17
    3   13   14      0.51     -0.20
    5   13   14     -0.34     -0.05
    0   14   14     -1.31      0.00
    2   14   14     -0.54      0.15
    0    1   15     -1.54      0.03
    1    2   15      1.23      0.04
    0    3   15     -1.10      0.05
    2    3   15     -0.52      0.02
    1    4   15      3.42     -0.14
    3    4   15      3.16      0.73
    0    5   15     -0.28      0.00
    2    5   15      3.24     -0.40
    4    5   15      2.19      0.58
    1    6   15      1.48      0.42
    3    6   15      0.45     -0.13
    5    6   15     -2.28     -0.40
    0    7   15      1.00     -0.04
    2    7   15      1.73      0.02
    4    7   15      0.00     -0.11
    6    7   15      0.51      0.17
    1    8   15      0.31     -0.01
    3    8   15     -0.31      0.12
    5    8   15     -1.40     -0.05
    7    8   15      0.28      0.10
    0    9   15      1.98     -0.03
    2    9   15      1.45      0.23
    4    9   15      2.90     -0.13
    6    9   15      0.68     -0.35
    8    9   15      1.35     -0.20
    1   10   15     -0.21     -0.16
    3   10   15      1.01     -0.04
    5   10   15      0.76     -0.04
    7   10   15     -0.93      0.00
    9   10   15      1.60     -0.34
    0   11   15      0.43     -0.01
    2   11   15      1.10      0.13
    4   11   15      2.49     -0.12
    6   11   15     -0.25     -0.26
    8   11   15      2.46     -0.06
    1   12   15     -0.12      0.12
    3   12   15     -0.05      0.09
    5   12   15     -0.42      0.16
    7   12   15      0.61      0.09
    0   13   15     -0.57     -0.01
    2   13   15     -0.16     -0.03
    4   13   15     -1.70     -0.07
    1   14   15      0.72      0.12
    0    0   16      2.02     -0.03
    1    1   16      1.72     -0.13
    0    2   16     -0.47     -0.03
    2    2   16      0.31     -0.31
    1    3   16      2.86      0.03
    3    3   16      6.21      0.63
    0    4   16      0.03      0.00
    2    4   16     -0.27      0.02
    4    4   16      1.93     -0.29
    1    5   16      1.21     -0.37
    3    5   16      2.13      0.55
    5    5   16      4.33      0.73
    0    6   16     -2.18      0.03
    2    6   16     -1.17      0.09
    4    6   16      1.97      0.57
    6    6   16     -1.59     -0.88
    1    7   16     -0.67     -0.20
    3    7   16      0.34     -0.40
    5    7   16      1.21     -0.37
    7    7   16      0.33      0.51
    0    8   16     -1.22      0.01
    2    8   16     -0.86     -0.09
    4    8   16      1.52      0.17
    6    8   16     -1.95     -0.32
    8    8   16     -1.47     -0.06
    1    9   16     -0.58      0.21
    3    9   16      1.62      0.25
    5    9   16      0.55     -0.18
    7    9   16      0.81     -0.20
    9    9   16      1.19      0.50
    0   10   16      1.49      0.01
    2   10   16      1.21     -0.09
    4   10   16      0.40      0.15
    6   10   16      1.61      0.67
    8   10   16      0.44      0.36
    1   11   16     -0.23      0.14
    3   11   16      0.79      0.04
    5   11   16      0.77     -0.07
    7   11   16     -0.60     -0.06
    0   12   16      0.28      0.01
    2   12   16      0.68     -0.05
    4   12   16      1.90      0.14
    6   12   16      1.45     -0.05
    1   13   16     -0.05     -0.11
    3   13   16      0.99     -0.15
    0    1   17      1.10      0.01
    1    2   17      0.49      0.07
    0    3   17      1.28      0.00
    2    3   17     -0.34      0.42
    1    4   17     -0.72      0.08
    3    4   17     -1.73     -0.12
    0    5   17     -0.11     -0.01
    2    5   17      1.02      0.10
    4    5   17     -0.32     -0.30
    1    6   17     -0.10      0.49
    3    6   17      0.84      0.23
    5    6   17      0.78      0.14
    0    7   17      1.42     -0.03
    2    7   17      0.54     -0.03
    4    7   17     -0.55     -0.08
    6    7   17      0.88     -0.06
    1    8   17      0.94     -0.07
    3    8   17      0.37      0.16
    5    8   17      0.85      0.48
    7    8   17     -0.79     -0.34
    0    9   17      1.03      0.00
    2    9   17      0.90      0.01
    4    9   17     -1.21     -0.23
    6    9   17      0.47      0.03
    8    9   17     -0.72      0.24
    1   10   17     -0.23     -0.26
    3   10   17     -0.90     -0.18
    5   10   17     -0.66      0.01
    7   10   17     -0.08      0.15
    0   11   17      0.38      0.02
    2   11   17      0.71      0.12
    4   11   17      0.04     -0.17
    6   11   17     -0.16     -0.18
    1   12   17     -0.13     -0.01
    3   12   17     -0.50      0.02
    0    0   18     -3.09     -0.02
    1    1   18      1.92      0.00
    0    2   18     -3.03     -0.01
    2    2   18     -1.40     -0.05
    1    3   18     -1.04      0.22
    3    3   18     -0.81      0.27
    0    4   18     -1.63      0.02
    2    4   18     -1.70      0.01
    4    4   18     -0.93      0.00
    1    5   18     -0.18     -0.14
    3    5   18     -1.47     -0.09
    5    5   18     -0.65     -0.11
    0    6   18     -0.59      0.03
    2    6   18     -0.72      0.32
    4    6   18     -1.62      0.26
    6    6   18     -0.65      0.17
    1    7   18      1.20     -0.01
    3    7   18      0.16     -0.34
    5    7   18     -0.37      0.16
    7    7   18      4.19      2.09
    0    8   18     -2.17      0.00
    2    8   18     -1.02      0.07
    4    8   18     -0.44      0.09
    6    8   18     -0.94      0.23
    8    8   18     -0.68      0.13
    1    9   18     -0.73      0.09
    3    9   18     -0.14      0.15
    5    9   18     -0.78     -0.26
    7    9   18      0.48     -0.16
    0   10   18     -0.53      0.00
    2   10   18     -1.89     -0.20
    4   10   18     -1.20      0.12
    6   10   18     -0.63      0.35
    1   11   18      0.35      0.08
    3   11   18     -0.53      0.07
    5   11   18      1.31     -0.06
    0   12   18     -0.94      0.00
    0    1   19     -1.19     -0.02
    1    2   19     -1.08     -0.12
    0    3   19      2.62     -0.01
    2    3   19      0.62      0.19
    1    4   19      0.49     -0.27
    3    4   19     -0.76     -0.37
    0    5   19     -0.70     -0.01
    2    5   19     -0.10     -0.21
    4    5   19     -0.82     -0.24
    1    6   19     -0.90      0.15
    3    6   19     -0.68      0.24
    5    6   19     -0.80      0.21
    0    7   19      0.73      0.00
    2    7   19     -1.40     -0.32
    4    7   19     -0.37     -0.22
    6    7   19     -0.46     -0.27
    1    8   19      0.05      0.16
    3    8   19     -0.75      0.15
    5    8   19      1.51      0.33
    7    8   19     -1.00     -0.46
    0    9   19      1.41     -0.01
    2    9   19      0.32      0.13
    4    9   19     -0.22     -0.15
    6    9   19      0.64     -0.04
    1   10   19     -0.25     -0.03
    3   10   19      0.28     -0.10
    5   10   19      0.21      0.06
    0   11   19     -1.32      0.03
    2   11   19     -0.21      0.15
    0    0   20      1.24     -0.01
    1    1   20      2.14     -0.14
    0    2   20     -0.84     -0.01
    2    2   20      1.52     -0.13
    1    3   20     -1.20      0.10
    3    3   20      1.03     -0.03
    0    4   20     -0.63      0.02
    2    4   20      0.48     -0.22
    4    4   20     -0.09      0.39
    1    5   20      0.12     -0.17
    3    5   20      1.26     -0.16
    5    5   20      1.89     -0.11
    0    6   20     -0.01      0.01
    2    6   20      0.03      0.20
    4    6   20      0.05      0.22
    6    6   20      0.05     -0.56
    1    7   20     -0.62     -0.27
    3    7   20      0.56     -0.27
    5    7   20     -0.34     -0.13
    7    7   20      0.30      0.30
    0    8   20     -2.11     -0.03
    2    8   20     -0.55      0.04
    4    8   20      0.52      0.17
    6    8   20     -0.82     -0.28
    1    9   20     -0.52     -0.04
    3    9   20      0.27      0.12
    0   10   20     -0.87     -0.03
    2   10   20     -0.98     -0.18
    0    1   21      0.15     -0.02
    1    2   21      0.89     -0.16
    0    3   21      3.02     -0.02
    2    3   21     -0.31      0.29
    1    4   21      2.07     -0.10
    3    4   21      0.33     -0.01
    0    5   21      1.02      0.00
    2    5   21      0.77     -0.10
    4    5   21      1.70     -0.21
    1    6   21      2.05      0.17
    3    6   21      0.85      0.24
    5    6   21     -0.22     -0.07
    0    7   21      1.38      0.02
    2    7   21      1.16     -0.24
    4    7   21     -0.25     -0.21
    6    7   21      0.11      0.25
    1    8   21     -0.04      0.08
    3    8   21      0.47      0.08
    0    9   21      0.43      0.01
    2    9   21      0.76      0.09
    0    0   22      2.05      0.03
    1    1   22     -1.13     -0.21
    0    2   22     -1.26      0.02
    2    2   22     -0.24     -0.01
    1    3   22     -1.60      0.17
    3    3   22     -0.28      0.21
    0    4   22     -0.95     -0.01
    2    4   22     -0.03     -0.06
    4    4   22     -1.19     -0.02
    1    5   22     -0.17      0.05
    3    5   22     -0.38     -0.02
    5    5   22     -0.57     -0.07
    0    6   22     -0.57      0.00
    2    6   22     -0.67      0.28
    4    6   22     -0.54      0.08
    1    7   22      0.76     -0.15
    3    7   22     -0.22     -0.22
    0    8   22      0.58     -0.03
    0    1   23     -0.91     -0.01
    1    2   23      0.14      0.03
    0    3   23     -0.49     -0.02
    2    3   23      0.60      0.21
    1    4   23     -1.01     -0.03
    3    4   23      0.41     -0.11
    0    5   23     -2.81      0.01
    2    5   23     -1.14     -0.16
    4    5   23     -0.08     -0.01
    1    6   23     -2.05      0.15
    1    1   24     -1.94     -0.03
    0    2   24     -0.09      0.02
    2    2   24      0.18     -0.14
    1    3   24      0.11      0.06
    0    4   24     -1.17     -0.02
    0    0    0      0.00      0.00
loop_
  _platon_squeeze_void_nr
  _platon_squeeze_void_average_x
  _platon_squeeze_void_average_y
  _platon_squeeze_void_average_z
  _platon_squeeze_void_volume
  _platon_squeeze_void_count_electrons
  _platon_squeeze_void_content
   1  0.000  0.000  0.500       972       298 ' '
   2  0.500  0.500  0.000       972       298 ' '
_platon_squeeze_details
TITL FJU-14-ClO4I 4/m m m    R = 0.11
CELL   14.2066   14.2066   19.8137     90.00     90.00     90.00
SPGR I4/mmm
C101 0.500 0.490 0.313 !       2.24 eA-3
Q102 0.589 1.000 0.000 !       2.08 eA-3
Q103 1.000 1.000 0.000 !       1.48 eA-3
C104 0.671 0.688 0.000 !       1.41 eA-3
Q105 0.033 0.500 0.000 !       1.18 eA-3
Q106 0.589 0.141-0.002 !       1.16 eA-3
C107 0.671 0.907 0.470 !       1.10 eA-3
C108 0.348 0.507 0.266 !       0.94 eA-3
C109 0.141 0.500 0.000 !       0.90 eA-3
C110 0.476 0.672 0.158 !       0.87 eA-3
C111 0.784 1.000 0.328 !       0.87 eA-3
Q112 0.465 1.014 0.344 !       0.78 eA-3
C113 1.000 1.008 0.469 !       0.77 eA-3
Q114 0.500 1.001 0.281 !       0.71 eA-3
C115 0.697 0.287 0.054 !       0.71 eA-3
C116 0.612 0.415 0.138 !       0.71 eA-3
C117 0.700 0.999 0.438 !       0.69 eA-3
Q118 0.811 0.198 0.174 !       0.67 eA-3
Q119 0.340 0.906-0.003 !       0.65 eA-3
Q120 0.615 1.003 0.360 !       0.64 eA-3
Q121 0.613 0.299 0.433 !       0.62 eA-3
C122 1.000 1.001 0.391 !       0.56 eA-3
C123 0.573 0.262 0.113 !       0.53 eA-3
C124 0.514 0.772 0.106 !       0.51 eA-3
C125 0.712 0.266 0.008 !       0.51 eA-3
;
_olex2_submission_special_instructions 'No special instructions were received'
loop_
_space_group_symop_operation_xyz
'x, y, z'
'-y, x, z'
'x, -y, -z'
'-x, -y, z'
'-y, -x, -z'
'y, x, -z'
'y, -x, z'
'-x, y, -z'
'x+1/2, y+1/2, z+1/2'
'-y+1/2, x+1/2, z+1/2'
'x+1/2, -y+1/2, -z+1/2'
'-x+1/2, -y+1/2, z+1/2'
'-y+1/2, -x+1/2, -z+1/2'
'y+1/2, x+1/2, -z+1/2'
'y+1/2, -x+1/2, z+1/2'
'-x+1/2, y+1/2, -z+1/2'
'-x, -y, -z'
'y, -x, -z'
'-x, y, z'
'x, y, -z'
'y, x, z'
'-y, -x, z'
'-y, x, -z'
'x, -y, z'
'-x+1/2, -y+1/2, -z+1/2'
'y+1/2, -x+1/2, -z+1/2'
'-x+1/2, y+1/2, z+1/2'
'x+1/2, y+1/2, -z+1/2'
'y+1/2, x+1/2, z+1/2'
'-y+1/2, -x+1/2, z+1/2'
'-y+1/2, x+1/2, -z+1/2'
'x+1/2, -y+1/2, z+1/2'
loop_
_atom_site_label
_atom_site_type_symbol
_atom_site_fract_x
_atom_site_fract_y
_atom_site_fract_z
_atom_site_U_iso_or_equiv
_atom_site_adp_type
_atom_site_occupancy
_atom_site_site_symmetry_order
_atom_site_calc_flag
_atom_site_refinement_flags_posn
_atom_site_refinement_flags_adp
_atom_site_refinement_flags_occupancy
_atom_site_disorder_assembly
_atom_site_disorder_group
Cu1 Cu 0.17997(8) 0.0000 0.0000 0.0147(5) Uani 1 4 d S TU P . .
Cl1 Cl 0.0000 0.0000 0.0000 0.0260(10) Uani 1 16 d S TU P A .
N2 N 0.1731(14) 0.1050(16) 0.0681(13) 0.028(2) Uani 0.5 1 d . U . A 1
N1 N 0.1966(3) 0.1966(3) 0.1593(3) 0.0272(13) Uani 0.5 2 d S TU P A 1
C6 C 0.3074(5) 0.1926(5) 0.2500 0.074(3) Uani 1 2 d S TU P . .
H6 H 0.3537 0.1463 0.2500 0.089 Uiso 1 2 calc DRS T P B 1
O2 O 0.3446(10) 0.0000 0.0000 0.117(6) Uani 1 4 d S TU P A .
C1 C 0.1580(6) 0.1580(6) 0.0978(6) 0.024(3) Uani 0.5 2 d S TU P A 2
C5 C 0.2336(7) 0.2336(7) 0.2186(7) 0.031(3) Uani 0.5 2 d S TU P A 1
C2 C 0.2271(7) 0.1196(7) 0.1220(5) 0.029(2) Uani 0.5 1 d . U . A 1
H2 H 0.2789 0.0828 0.1333 0.034 Uiso 0.5 1 calc R . . A 1
C4 C 0.2709(10) 0.1553(10) 0.1922(7) 0.059(4) Uani 0.5 1 d . U . A 2
H4 H 0.2969 0.1004 0.1747 0.071 Uiso 0.5 1 calc DR . . A 2
O1 O 0.1987(10) 0.0888(13) 0.0742(10) 0.028(2) Uani 0.5 1 d . U . A 2
C3 C 0.1966(3) 0.1966(3) 0.1593(3) 0.0272(13) Uani 0.5 2 d S TU P A 2
Cl2 Cl 0.5000 0.0000 0.2051(10) 0.190(5) Uani 0.75 4 d DS TU P . .
O3 O 0.4201(16) 0.0000 0.1696(13) 0.190(5) Uani 0.75 2 d DS TU P . .
O4 O 0.5000 0.0841(16) 0.2447(14) 0.190(5) Uani 0.75 2 d DS TU P . .
loop_
_atom_site_aniso_label
_atom_site_aniso_U_11
_atom_site_aniso_U_22
_atom_site_aniso_U_33
_atom_site_aniso_U_23
_atom_site_aniso_U_13
_atom_site_aniso_U_12
Cu1 0.0216(8) 0.0160(7) 0.0067(7) 0.000 0.000 0.000
Cl1 0.0174(12) 0.0174(12) 0.043(3) 0.000 0.000 0.000
N2 0.036(8) 0.029(6) 0.018(4) -0.006(4) -0.013(5) 0.002(4)
N1 0.0290(18) 0.0290(18) 0.024(3) -0.0086(17) -0.0086(17) 0.003(2)
C6 0.080(4) 0.080(4) 0.061(5) -0.044(4) -0.044(4) 0.040(5)
O2 0.047(7) 0.183(18) 0.122(13) 0.000 0.000 0.000
C1 0.029(4) 0.029(4) 0.015(6) -0.010(3) -0.010(3) -0.005(5)
C5 0.035(4) 0.035(4) 0.022(6) -0.010(4) -0.010(4) 0.003(6)
C2 0.035(5) 0.028(5) 0.022(4) -0.008(4) -0.017(4) 0.005(4)
C4 0.066(7) 0.059(6) 0.052(6) -0.035(5) -0.029(5) 0.024(6)
O1 0.036(8) 0.029(6) 0.018(4) -0.006(4) -0.013(5) 0.002(4)
C3 0.0290(18) 0.0290(18) 0.024(3) -0.0086(17) -0.0086(17) 0.003(2)
Cl2 0.187(7) 0.181(7) 0.203(7) 0.000 0.000 0.000
O3 0.187(7) 0.181(7) 0.203(7) 0.000 0.000 0.000
O4 0.187(7) 0.181(7) 0.203(7) 0.000 0.000 0.000
loop_
_atom_type_symbol
_atom_type_description
_atom_type_scat_dispersion_real
_atom_type_scat_dispersion_imag
_atom_type_scat_source
C C 0.0181 0.0091 'International Tables Vol C Tables 4.2.6.8 and 6.1.1.4'
H H 0.0000 0.0000 'International Tables Vol C Tables 4.2.6.8 and 6.1.1.4'
Cl Cl 0.3639 0.7018 'International Tables Vol C Tables 4.2.6.8 and 6.1.1.4'
Cu Cu -1.9646 0.5888 'International Tables Vol C Tables 4.2.6.8 and 6.1.1.4'
N N 0.0311 0.0180 'International Tables Vol C Tables 4.2.6.8 and 6.1.1.4'
O O 0.0492 0.0322 'International Tables Vol C Tables 4.2.6.8 and 6.1.1.4'
loop_
_geom_angle_atom_site_label_1
_geom_angle_atom_site_label_2
_geom_angle_atom_site_label_3
_geom_angle
_geom_angle_site_symmetry_1
_geom_angle_site_symmetry_3
N2 Cu1 Cl1 87.2(6) . .
N2 Cu1 Cl1 87.2(6) 20 .
N2 Cu1 Cl1 87.2(6) 24 .
N2 Cu1 Cl1 87.2(6) 3 .
N2 Cu1 N2 174.4(11) 24 20
N2 Cu1 N2 84.2(13) 3 24
N2 Cu1 N2 95.6(14) 3 20
N2 Cu1 N2 174.4(11) 3 .
N2 Cu1 N2 84.2(13) 20 .
N2 Cu1 N2 95.6(14) 24 .
N2 Cu1 O2 92.8(6) 20 .
N2 Cu1 O2 92.8(6) . .
N2 Cu1 O2 92.8(6) 3 .
N2 Cu1 O2 92.8(6) 24 .
O2 Cu1 Cl1 180.0 . .
O1 Cu1 Cl1 97.8(4) 3 .
O1 Cu1 Cl1 97.8(4) 20 .
O1 Cu1 Cl1 97.8(4) 24 .
O1 Cu1 Cl1 97.8(4) . .
O1 Cu1 O2 82.2(4) 3 .
O1 Cu1 O2 82.2(4) . .
O1 Cu1 O2 82.2(4) 20 .
O1 Cu1 O2 82.2(4) 24 .
O1 Cu1 O1 164.4(9) 24 20
O1 Cu1 O1 80.4(10) 3 20
O1 Cu1 O1 164.4(9) 3 .
O1 Cu1 O1 97.5(12) 20 .
O1 Cu1 O1 80.4(10) 24 .
O1 Cu1 O1 97.5(12) 3 24
Cu1 Cl1 Cu1 90.0 18 17
Cu1 Cl1 Cu1 90.0 2 .
Cu1 Cl1 Cu1 90.0 2 17
Cu1 Cl1 Cu1 180.0 18 2
Cu1 Cl1 Cu1 180.0 17 .
Cu1 Cl1 Cu1 90.0 18 .
N2 N2 Cu1 123.9(4) 21 .
C2 N2 Cu1 128.7(10) . .
C2 N2 N2 107.3(9) . 21
C2 N1 C5 129.0(4) . .
C2 N1 C5 129.0(4) 21 .
C2 N1 C2 102.1(8) 21 .
C5 C6 C5 62.8(10) . 25
C4 C6 C4 179.3(15) 13 .
O1 C1 O1 127.1(16) . 21
N1 C5 C5 175.6(19) . 25
C6 C5 N1 121.3(5) . .
C6 C5 N1 121.3(5) 25 .
C6 C5 C6 117.2(10) . 25
C6 C5 C5 58.6(5) . 25
C6 C5 C5 58.6(5) 25 25
N2 C2 N1 111.6(11) . .
C1 O1 Cu1 137.4(9) . .
O3 Cl2 Cl2 121.8(16) . 26
O3 Cl2 Cl2 121.8(16) 19_655 26
O3 Cl2 O3 116(3) . 19_655
O3 Cl2 O4 172(2) 19_655 13
O3 Cl2 O4 106.8(8) 19_655 .
O3 Cl2 O4 106.8(8) 19_655 4_655
O3 Cl2 O4 71.6(14) 19_655 26
O3 Cl2 O4 106.8(8) . .
O3 Cl2 O4 172(2) . 26
O3 Cl2 O4 106.8(8) . 4_655
O3 Cl2 O4 71.6(14) . 13
O4 Cl2 Cl2 50.2(11) 26 26
O4 Cl2 Cl2 56.7(16) 4_655 26
O4 Cl2 Cl2 56.7(16) . 26
O4 Cl2 Cl2 50.2(11) 13 26
O4 Cl2 O4 69.4(11) . 26
O4 Cl2 O4 69.4(11) 4_655 26
O4 Cl2 O4 100(2) 26 13
O4 Cl2 O4 69.4(11) 4_655 13
O4 Cl2 O4 113(3) . 4_655
O4 Cl2 O4 69.4(11) . 13
Cl2 O3 O4 60.2(11) . 13
Cl2 O4 Cl2 73(2) . 26
Cl2 O4 O3 121(3) . 26
Cl2 O4 O3 48.2(11) 26 26
Cl2 O4 O4 58.7(9) . 13
Cl2 O4 O4 51.8(12) 26 26
Cl2 O4 O4 58.7(9) . 26
Cl2 O4 O4 51.8(12) 26 13
O3 O4 O4 82(2) 26 13
O3 O4 O4 82(2) 26 26
O4 O4 O4 89.1(5) 13 26
loop_
_geom_bond_atom_site_label_1
_geom_bond_atom_site_label_2
_geom_bond_distance
_geom_bond_site_symmetry_2
Cu1 Cl1 2.5568(12) .
Cu1 N2 2.01(2) 20
Cu1 N2 2.01(2) 3
Cu1 N2 2.01(2) .
Cu1 N2 2.01(2) 24
Cu1 O2 2.339(14) .
Cu1 O1 1.96(2) .
Cu1 O1 1.96(2) 20
Cu1 O1 1.96(2) 24
Cu1 O1 1.96(2) 3
Cl1 Cu1 2.5568(12) 18
Cl1 Cu1 2.5568(12) 17
Cl1 Cu1 2.5568(12) 2
N2 N2 1.37(3) 21
N2 C2 1.33(2) .
N1 C5 1.391(13) .
N1 C2 1.389(10) .
N1 C2 1.389(10) 21
C6 C5 1.351(11) 25
C6 C5 1.351(11) .
C6 C4 1.364(9) 13
C6 C4 1.364(9) .
C1 O1 1.233(17) 21
C1 O1 1.233(17) .
C5 C6 1.351(11) 25
C5 C5 1.41(3) 25
Cl2 Cl2 1.78(4) 26
Cl2 O3 1.335(17) .
Cl2 O3 1.335(17) 19_655
Cl2 O4 1.55(3) 13
Cl2 O4 1.430(17) .
Cl2 O4 1.55(3) 26
Cl2 O4 1.430(17) 4_655
O3 O4 1.70(4) 13
O4 Cl2 1.55(3) 26
O4 O3 1.70(4) 26
O4 O4 1.70(4) 13
O4 O4 1.70(4) 26
