#------------------------------------------------------------------------------
#$Date: 2016-02-04 03:23:23 +0200 (Thu, 04 Feb 2016) $
#$Revision: 175668 $
#$URL: svn://www.crystallography.net/cod/cif/4/34/48/4344839.cif $
#------------------------------------------------------------------------------
#
# This file is available in the Crystallography Open Database (COD),
# http://www.crystallography.net/
#
# All data on this site have been placed in the public domain by the
# contributors.
#
data_4344839
loop_
_publ_author_name
'Ye, Yingxiang'
'Xiong, Shunshun'
'Wu, Xiaonan'
'Zhang, Liuqin'
'Li, Ziyin'
'Wang, Lihua'
'Ma, Xiuling'
'Chen, Qian-Huo'
'Zhang, Zhangjing'
'Xiang, Shengchang'
_publ_section_title
;
 Microporous Metal-Organic Framework Stabilized by Balanced Multiple
 Host-Couteranion Hydrogen-Bonding Interactions for High-Density CO2
 Capture at Ambient Conditions.
;
_journal_issue                   1
_journal_name_full               'Inorganic chemistry'
_journal_page_first              292
_journal_paper_doi               10.1021/acs.inorgchem.5b02316
_journal_volume                  55
_journal_year                    2015
_chemical_formula_moiety
'0.5(C72 H48 Cl2 Cu8 N24 O24), 8(N0.38 O1.13)'
_chemical_formula_sum            'C36 H24 Cl Cu4 N15 O21'
_chemical_formula_weight         1292.31
_chemical_name_systematic
;
 ?
;
_space_group_crystal_system      tetragonal
_space_group_IT_number           139
_space_group_name_Hall           '-I 4 2'
_space_group_name_H-M_alt        'I 4/m m m'
_symmetry_space_group_name_Hall  '-I 4 2'
_symmetry_space_group_name_H-M   'I 4/m m m'
_atom_sites_solution_hydrogens   geom
_atom_sites_solution_primary     direct
_audit_creation_date             2015-09-18
_audit_creation_method
;
Olex2 1.2
(compiled 2015.01.26 svn.r3150 for OlexSys, GUI svn.r4998)
;
_cell_angle_alpha                90
_cell_angle_beta                 90
_cell_angle_gamma                90
_cell_formula_units_Z            2
_cell_length_a                   13.9585(4)
_cell_length_b                   13.9585(4)
_cell_length_c                   20.0529(8)
_cell_measurement_temperature    150
_cell_volume                     3907.1(2)
_computing_molecular_graphics    'Olex2 (Dolomanov et al., 2009)'
_computing_publication_material  'Olex2 (Dolomanov et al., 2009)'
_computing_structure_refinement  'ShelXL (Sheldrick, 2008)'
_computing_structure_solution    'SIR2004 (Burla et al., 2007)'
_diffrn_ambient_temperature      150
_diffrn_measured_fraction_theta_full 0.987
_diffrn_measured_fraction_theta_max 0.967
_diffrn_measurement_device_type  'SuperNova, Dual, Cu at zero, Atlas'
_diffrn_measurement_method       '\w scans'
_diffrn_radiation_type           CuK\a
_diffrn_radiation_wavelength     1.54184
_diffrn_reflns_av_R_equivalents  0.0483
_diffrn_reflns_av_unetI/netI     0.0248
_diffrn_reflns_laue_measured_fraction_full 0.987
_diffrn_reflns_laue_measured_fraction_max 0.967
_diffrn_reflns_limit_h_max       15
_diffrn_reflns_limit_h_min       -14
_diffrn_reflns_limit_k_max       16
_diffrn_reflns_limit_k_min       -14
_diffrn_reflns_limit_l_max       24
_diffrn_reflns_limit_l_min       -22
_diffrn_reflns_number            7671
_diffrn_reflns_point_group_measured_fraction_full 0.987
_diffrn_reflns_point_group_measured_fraction_max 0.967
_diffrn_reflns_theta_full        67.684
_diffrn_reflns_theta_max         73.985
_diffrn_reflns_theta_min         3.858
_exptl_absorpt_coefficient_mu    2.066
_exptl_crystal_colour            green
_exptl_crystal_density_diffrn    1.098
_exptl_crystal_description       polyhedral
_exptl_crystal_F_000             1292
_exptl_crystal_size_max          0.3
_exptl_crystal_size_mid          0.25
_exptl_crystal_size_min          0.2
_refine_diff_density_max         0.884
_refine_diff_density_min         -0.523
_refine_diff_density_rms         0.082
_refine_ls_extinction_method     none
_refine_ls_goodness_of_fit_ref   1.079
_refine_ls_hydrogen_treatment    constr
_refine_ls_matrix_type           full
_refine_ls_number_parameters     78
_refine_ls_number_reflns         1139
_refine_ls_number_restraints     166
_refine_ls_restrained_S_all      1.056
_refine_ls_R_factor_all          0.0527
_refine_ls_R_factor_gt           0.0494
_refine_ls_shift/su_max          0.000
_refine_ls_shift/su_mean         0.000
_refine_ls_structure_factor_coef Fsqd
_refine_ls_weighting_details
;
 w=1/[\s^2^(Fo^2^)+(0.0871P)^2^+8.1941P]
 where P=(Fo^2^+2Fc^2^)/3
;
_refine_ls_weighting_scheme      calc
_refine_ls_wR_factor_gt          0.1432
_refine_ls_wR_factor_ref         0.1461
_reflns_Friedel_coverage         0.000
_reflns_number_gt                1054
_reflns_number_total             1139
_reflns_threshold_expression     'I > 2\s(I)'
_cod_data_source_file            ic5b02316_si_002.cif
_cod_data_source_block           FJU-14-NO3
_cod_original_cell_volume        3907.1(3)
_cod_database_code               4344839
_shelxl_version_number           2013-2
_shelx_space_group_comment
;
The symmetry employed for this shelxl refinement is uniquely defined
by the following loop, which should always be used as a source of
symmetry information in preference to the above space-group names.
They are only intended as comments.
;
_shelx_estimated_absorpt_t_max   0.683
_shelx_estimated_absorpt_t_min   0.576
_olex2_refinement_description
;
1. Shared sites
{C6, N1}
2. Others
 Fixed Sof: N2(0.5) N1(0.25) C5(0.25) C2(0.5) H2(0.5) C1(0.25) C3(0.5) H3(0.5)
 O1(0.5) C6(0.25) O2(0.375) N3(0.1875) O3(0.1875)
 Fixed U12: Cu1(0) Cl1(0) OW(0) O2(0) N3(0) O3(0)
 Fixed U13: Cu1(0) Cl1(0) OW(0) N3(0) O3(0)
 Fixed U23: Cu1(0) Cl1(0) OW(0) O2(0) N3(0) O3(0)
 Fixed Uiso: H4(0.102) H2(0.045) H3(0.092)
 Fixed X: Cl1(0) H4(0.3574) H2(0.2828) H3(0.3023) N3(0.5) O3(0.5)
 Fixed Y: Cu1(0) Cl1(0) H4(-0.1427) H2(-0.0836) OW(0) H3(-0.101) O2(0) N3(0)
 O3(0)
 Fixed Z: Cu1(0) Cl1(0) C4(-0.25) H4(-0.25) H2(-0.1317) OW(0) H3(-0.1732)
;
_shelx_res_file
;
TITL FJU-14-NO3 I4/mmm #139
REM reset to I4/mmm #139
CELL 1.54184 13.95853 13.95853 20.052901 90 90 90
ZERR 2 0.000387 0.000387 0.000814 0 0 0
LATT 2
SYMM -Y,+X,+Z
SYMM -X,-Y,+Z
SYMM +Y,-X,+Z
SYMM +X,-Y,-Z
SYMM -X,+Y,-Z
SYMM +Y,+X,-Z
SYMM -Y,-X,-Z
SFAC C H Cl Cu N O
UNIT 72 48 2 8 30 42
EQIV $1 1-X,-Y,+Z
DFIX 1.2 O2_$1 N3 O2 N3 O3 N3
FLAT O2 N3 O3 O2_$1
SIMU 0.04 0.08 1.7
ISOR 0.05 0.1 N2
ISOR 0.01 0.02 N2
ISOR 0.05 0.1 N2 N1
ISOR 0.01 0.02 N1 C6
ISOR 0.01 0.02 N3 O2 O2 O3
EADP C6 N1
EADP N2 O1
EXYZ C6 N1

L.S. 10
PLAN  5
SIZE 0.3 0.25 0.2
BOND
ABIN
fmap 2
acta
OMIT 3 3 2
OMIT 0 2 0
OMIT 1 4 1
OMIT 2 3 1
OMIT 3 4 3
REM <olex2.extras>
REM <HklSrc "%.\\FJU-14-NO3.hkl">
REM </olex2.extras>

WGHT    0.087100    8.194100
FVAR       2.84421
CU1   4    0.184181    0.000000    0.000000    10.25000    0.03146    0.02495 =
         0.01509    0.00000    0.00000    0.00000
CL1   3    0.000000    0.000000    0.000000    10.06250    0.02712    0.02712 =
         0.05332    0.00000    0.00000    0.00000
PART 1
N2    5    0.176637   -0.108059   -0.068082    10.50000    0.04398    0.04049 =
         0.02778   -0.00644    0.01421   -0.00645
N1    5    0.198270   -0.198270   -0.158606    10.25000    0.04145    0.04145 =
         0.03637   -0.01393    0.01393   -0.00724
PART 0
C4    1    0.310239   -0.189761   -0.250000    10.50000    0.09319    0.09319 =
         0.06955   -0.05345    0.05345   -0.05863
PART 2
AFIX  43
H4    2    0.357409   -0.142706   -0.249967    10.50000   -1.20000
AFIX   0
PART 0
PART 1
C5    1    0.234267   -0.234267   -0.217982    10.25000    0.05007    0.05007 =
         0.02772   -0.02028    0.02028   -0.00750
C2    1    0.230078   -0.121226   -0.120859    10.50000    0.04119    0.04105 =
         0.03104   -0.01646    0.01376   -0.00760
AFIX  43
H2    2    0.282827   -0.083648   -0.131744    10.50000   -1.20000
AFIX   0
PART 0
OW    6    0.353411    0.000000    0.000000    10.25000    0.05726    0.16324 =
         0.11783    0.00000    0.00000    0.00000
PART 2
C1    1    0.161192   -0.161192   -0.096310    10.25000    0.04076    0.04076 =
         0.02168   -0.00938    0.00938    0.01141
C3    1    0.274526   -0.155438   -0.191697    10.50000    0.09126    0.07676 =
         0.06180   -0.04663    0.04828   -0.04398
AFIX  43
H3    2    0.302256   -0.101024   -0.173161    10.50000   -1.20000
AFIX   0
O1    6    0.202093   -0.090333   -0.073150    10.50000    0.04398    0.04049 =
         0.02778   -0.00644    0.01421   -0.00645
C6    1    0.198270   -0.198270   -0.158606    10.25000    0.04145    0.04145 =
         0.03637   -0.01393    0.01393   -0.00724

PART 0
O2    6    0.421618    0.000000   -0.170694    10.37500    0.10801    0.16349 =
         0.26317    0.00000   -0.03854    0.00000
N3    5    0.500000    0.000000   -0.150837    10.18750    0.30368    0.31055 =
         0.31168    0.00000    0.00000    0.00000
O3    6    0.500000    0.000000   -0.090612    10.18750    0.55720    0.56766 =
         0.55520    0.00000    0.00000    0.00000
HKLF 4

REM  FJU-14-NO3 in I4/mmm #139
REM R1 =  0.0494 for    1054 Fo > 4sig(Fo)  and  0.0527 for all    1139 data
REM     78 parameters refined using    166 restraints

END

WGHT      0.0871      8.1859

REM Highest difference peak  0.884,  deepest hole -0.523,  1-sigma level  0.082
Q1    1   0.5000 -0.0495 -0.2269  10.50000  0.05    0.46
Q2    1   0.5000 -0.1274 -0.0723  10.50000  0.05    0.40
Q3    1   0.4188  0.0000  0.0000  10.25000  0.05    0.34
Q4    1   0.1810 -0.1810 -0.1799  10.50000  0.05    0.28
Q5    1   0.1504 -0.1504 -0.2110  10.50000  0.05    0.24
;
_shelx_res_checksum              92702
_shelx_hkl_file
;
   0   0   2 452956. 2750.55   7
   0   0  -2 461388. 5923.08   8
   0   0  -4 261815. 6348.24   8
   0   0   4 257981. 2931.88   7
   0   0  -6 142956. 5913.77   8
   0   0   6 147993. 2723.50   7
   0   0   6 150281. 4411.36   2
   0   0  -8 126049. 6474.44   8
   0   0   8 123407. 4682.87   2
   0   0   8 126633. 2873.47   7
   0   0 -10 156563. 8316.52   8
   0   0 -12 442226. 15863.1   8
   0   0  14 288352. 9391.14   1
   0   0 -14 261708. 13560.1   8
   0   0  16 193483. 8451.01   1
   0   0 -16 188673. 12402.5   8
   0   0  18 65230.3 2864.75   5
   0   0  20 18596.9 1511.23   5
   0   0  22 3820.40 665.517   5
   0   0  24 22726.4 1039.43   5
   1   0   1 479669. 2721.48   2
   0  -1   1 472546. 3649.29   1
   0  -1  -1 475684. 3338.35   7
   0   1  -1 470543. 4665.72   8
   0  -1   1 474653. 3772.57   7
   0   1   1 478176. 3881.77   2
   1   0  -3 133177. 4134.69   8
  -1   0   3 128897. 1282.11   7
  -1   0   3 135192. 2559.53   1
   0  -1  -3 127802. 4025.31   8
  -1   0   3 136223. 2988.49   2
  -1   0  -3 126872. 3915.97   8
   0  -1   3 137182. 2389.49   7
   0   1  -3 133307. 4055.61   8
   0   1   3 127845. 2882.61   2
   1   0   3 130285. 2711.18   2
  -1   0   5 37581.5 2057.01   2
   1   0   5 38131.3 1958.51   2
   0   1   5 35974.4 2036.16   2
   0  -1  -5 36190.7 2755.20   8
   0  -1   5 38665.7 1503.25   7
  -1   0   5 38484.9 988.263   7
   1   0  -5 38606.1 2896.20   8
  -1   0  -5 40366.3 2882.28   8
   1   0   5 37404.1 1552.53   7
   0   1  -5 38115.4 2834.36   8
  -1   0   7 24543.4 2003.85   2
  -1   0  -7 21512.1 2607.17   8
   0   1  -7 24523.6 2793.04   8
   1   0   7 24331.0 1427.89   7
  -1   0   7 24427.8 955.342   7
   1   0  -7 22023.7 2670.12   8
   0   1   7 24755.5 2026.47   2
   0  -1  -7 23816.5 2692.12   8
   0   1   7 25292.6 1118.67   7
   0  -1   7 24663.4 1380.37   7
   1   0   7 22610.7 1837.96   2
   0   1   9 72851.0 2063.55   7
   1   0   9 73570.5 2699.47   7
   1   0  -9 67084.5 5154.86   8
   0  -1   9 71973.3 2602.34   7
  -1   0  -9 64247.1 4979.73   8
   0  -1  -9 63234.2 4950.57   8
   0   1   9 72721.4 3938.88   2
  -1   0   9 72016.0 3450.87   1
   0   1  -9 68975.4 5190.66   8
  -1   0 -11 129729. 8002.93   8
   0   1 -11 138601. 8399.51   8
   0  -1  11 130556. 5509.19   1
   0   1  11 138100. 6083.72   2
  -1   0  11 135574. 5407.56   1
   0  -1 -11 137533. 8249.13   8
   1   0 -11 137171. 8335.07   8
   1   0 -13 150569. 9871.57   8
   0   1 -13 136119. 9256.09   8
  -1   0  13 143542. 6294.49   1
   0  -1 -13 139642. 9415.33   8
   0  -1  13 142805. 6385.79   1
  -1   0 -13 124028. 8735.21   8
   1   0  15 108456. 6131.74   1
   0  -1  15 106141. 6135.96   1
  -1   0  15 103768. 5931.83   1
   0   1  15 106459. 5900.74   1
   0  -1 -15 101872. 8850.19   8
   0   1  15 100252. 3382.70   5
   0   1 -15 105936. 8748.51   8
  -1   0 -15 100186. 8636.27   8
   1   0 -15 106368. 9010.27   8
   0   1 -17 42795.4 5822.39   8
   1   0  17 45574.5 2341.03   5
  -1   0  17 48410.0 2483.64   5
   1   0 -17 36944.9 5803.38   8
   0   1  17 48085.6 2428.23   5
   1   0  17 45761.5 4298.22   1
  -1   0 -17 42112.8 5723.03   8
   0  -1 -17 48318.0 6373.93   8
   0  -1  17 45722.6 4386.73   1
  -1   0  17 48536.2 4281.73   1
   0   1  17 53867.2 4510.57   1
   0   1  19 17465.1 1511.58   5
   0  -1  19 19258.2 1620.00   5
  -1   0  19 19722.7 1635.96   5
   1   0  19 17665.6 1496.00   5
   1   0  21 4794.12 766.886   5
   0  -1  21 5708.68 858.464   5
  -1   0  21 3448.47 754.284   5
   0   1  21 5293.97 801.679   5
   1   0  23 6377.45 645.709   5
  -1   0  23 7604.31 789.516   5
   0   1  23 7582.72 729.204   5
   0  -1  23 8710.88 823.920   5
   1  -1   0 111104. 1806.45   7
  -1  -1   0 116329. 2153.93   1
  -1  -1   2 72496.4 1915.11   1
   1   1  -2 72186.1 2364.61   8
   1   1   2 72849.2 1752.00   2
  -1  -1  -2 69101.2 2294.09   8
  -1   1  -2 74256.2 2571.04   8
   1  -1   2 73150.3 1839.37   7
   1  -1  -2 71930.0 1075.27   7
  -1   1   2 71894.8 1906.87   2
  -1  -1   2 74407.3 1643.66   7
  -1   1  -4 107370. 4220.29   8
  -1  -1   4 102518. 2179.64   7
   1  -1  -4 103629. 4365.18   8
   1   1  -4 103561. 4070.91   8
   1   1   4 105475. 2962.32   2
  -1  -1   4 106907. 2886.06   1
  -1   1   4 109495. 3180.35   2
  -1  -1  -4 105525. 4023.12   8
   1  -1   4 105969. 2603.93   7
   1  -1   6 1847.37 471.511   7
   1  -1  -6 1337.70 958.332   8
   1   1   6 1714.37 578.179   2
  -1  -1   6 1599.89 368.974   7
  -1   1  -6 1119.93 761.233   8
  -1  -1   6 1971.49 556.632   1
  -1  -1  -6 1700.72 921.413   8
  -1   1   6 2303.00 685.625   2
   1   1  -6 1258.56 892.981   8
  -1   1  -8 15803.7 2433.55   8
   1  -1  -8 15122.5 2471.86   8
   1   1   8 14332.5 1100.78   7
   1   1  -8 12468.5 2283.18   8
  -1  -1  -8 16575.7 2457.11   8
  -1  -1   8 16362.7 1097.77   7
   1   1   8 16450.6 1725.21   2
  -1  -1   8 21245.3 1819.25   1
  -1   1   8 18536.0 1884.17   2
   1  -1   8 17301.9 1359.42   7
  -1  -1  10 36137.6 2686.11   1
   1   1  10 33237.5 2815.21   2
  -1   1  10 34307.6 2945.07   2
   1   1 -10 32229.3 3882.54   8
   1  -1 -10 32401.6 3889.52   8
   1   1  10 37583.9 1931.40   7
   1  -1  10 37623.9 2155.46   7
  -1  -1 -10 29641.9 3545.72   8
  -1   1 -10 33098.3 3810.15   8
   1  -1 -12 31449.7 4266.24   8
   1   1 -12 23394.8 3789.90   8
  -1  -1 -12 28401.0 3945.66   8
  -1   1 -12 31093.1 4130.09   8
  -1   1  12 31513.3 2665.12   1
  -1  -1  12 32205.8 2857.88   1
  -1   1 -14 37522.2 4995.92   8
  -1   1  14 46996.3 3706.07   1
  -1   1  14 45984.3 2225.01   5
   1  -1 -14 39878.1 5437.99   8
  -1  -1 -14 42013.8 5338.96   8
  -1  -1  14 45655.1 3827.49   1
   1  -1  14 46037.8 3901.61   1
   1   1 -14 40642.3 5379.18   8
  -1   1 -16 12678.4 3302.66   8
  -1   1  16 20872.2 1641.46   5
   1  -1 -16 21887.6 4475.20   8
   1   1  16 21207.1 2714.53   1
   1  -1  16 17723.7 2599.83   1
   1   1  16 19223.2 1517.46   5
  -1  -1  16 22435.3 2909.77   1
  -1  -1 -16 19443.6 4049.39   8
   1   1 -16 13227.6 3455.20   8
  -1   1  16 21608.0 2719.42   1
   1  -1  18 7971.84 1050.13   5
   1   1  18 8392.50 1056.49   5
  -1  -1  18 10690.1 1259.04   5
  -1   1  18 9206.68 1149.18   5
   1  -1  20 4035.32 809.820   5
   1   1  20 3534.29 711.660   5
  -1  -1  20 5083.43 880.665   5
  -1   1  20 4070.22 805.708   5
  -1  -1  22 2105.22 547.403   5
   1  -1  22 2339.62 516.484   5
   1   1  22 2602.94 510.198   5
  -1   1  22 2789.52 566.889   5
   1   1  24 2390.63 333.908   5
   1  -1  24 3456.24 399.723   5
  -1   1  24 2940.39 426.957   5
  -1  -1  24 3517.24 470.183   5
  -2   0   0 8507.04 639.399   1
   0  -2   0 9866.64 756.152   7
   0  -2   0 8540.70 600.230   1
  -2   0  -2 78561.3 2540.48   8
  -2   0   2 77662.4 1957.82   2
   0  -2   2 78132.3 2089.17   1
   0  -2  -2 74643.8 1912.54   7
   0   2   2 75557.9 2185.51   2
   0   2  -2 74785.7 2491.65   8
  -2   0   2 79226.5 1994.52   1
   0  -2   2 71882.0 2131.96   7
   0  -2   4 25349.9 1390.67   7
  -2   0  -4 24884.1 2073.53   8
   0  -2  -4 23341.0 2157.90   8
   2   0   4 28399.0 1448.48   2
  -2   0   4 31066.8 1496.47   1
  -2   0   4 29349.0 1659.23   2
   0   2   4 29017.4 1677.18   2
   0  -2   4 29880.3 1616.47   1
   2   0  -4 25249.6 2216.06   8
   0   2  -4 27531.0 2218.09   8
   2   0  -6 108459. 5393.93   8
  -2   0  -6 104409. 5061.70   8
   0   2  -6 100704. 5108.24   8
  -2   0   6 107146. 3363.08   1
   0   2   6 106227. 3878.07   2
   0  -2   6 110557. 3193.10   7
   2   0   6 112253. 3239.80   7
   0  -2  -6 102686. 5234.68   8
   0  -2   6 110583. 3679.79   1
  -2   0   6 109764. 3890.73   2
  -2   0   8 25447.4 1924.23   1
   0   2  -8 20909.7 2844.10   8
   0  -2   8 24612.8 2065.51   1
  -2   0   8 25549.0 2237.53   2
   2   0   8 23852.0 1704.19   7
   0   2   8 24181.7 2232.47   2
   0  -2  -8 22237.0 2893.29   8
  -2   0  -8 22763.1 2832.89   8
   2   0  -8 25261.5 3075.17   8
   0  -2   8 25378.6 1681.07   7
   0   2   8 24341.6 1150.31   7
   2   0 -10 39859.6 4404.50   8
   0  -2 -10 31238.9 3830.36   8
   2   0  10 45640.7 2460.18   7
  -2   0 -10 32549.4 3769.67   8
   0   2  10 43705.9 3306.93   2
   0  -2  10 43241.6 3056.09   1
  -2   0  10 40315.1 2790.61   1
   0   2 -10 36246.5 4125.73   8
   0  -2  10 43471.7 2410.97   7
   0   2  12 3207.12 1115.13   2
  -2   0  12 4351.04 1064.74   1
   2   0 -12 7991.08 2344.17   8
   0   2 -12 4450.45 1767.20   8
   0  -2  12 5106.40 1234.87   1
  -2   0 -12 3649.65 1546.19   8
   0  -2 -12 2793.58 1517.90   8
   2   0 -14 1214.49 1430.25   8
  -2   0 -14 2010.92 1258.83   8
   0   2  14 4480.37 772.154   5
   0   2 -14 6533.11 2278.52   8
   0   2  14 2905.33 919.040   1
  -2   0  14 4377.71 1151.82   1
   0  -2 -14 4043.89 1781.86   8
   0  -2  14 2698.42 1140.19   1
   0   2  16 3019.13 728.629   5
   0   2 -16 5316.94 2258.14   8
   0  -2  16 3252.28 1167.62   1
   2   0 -16 2477.21 1901.35   8
   0   2  16 6937.79 1525.27   1
   2   0  16 2589.27 657.637   5
  -2   0  16 4163.59 882.750   5
  -2   0 -16 838.756 787.200   8
  -2   0  16 3859.34 1241.76   1
   2   0  16 4453.91 1361.38   1
  -2   0  18 1610.69 629.160   5
   2   0  18 1828.90 587.621   5
   0   2  18 658.945 477.652   5
   2   0  20 1754.52 515.928   5
  -2   0  20 2292.05 723.883   5
   0   2  20 1721.90 585.073   5
   0  -2  20 2141.24 675.367   5
   0   2  22 7105.48 779.434   5
   0  -2  22 5043.81 750.608   5
   2   0  22 6074.58 691.222   5
  -2   0  22 6162.11 787.316   5
  -2   0  24 222.089 216.164   5
   0  -2  24 639.244 265.451   5
   0   2  24 824.749 247.037   5
   1  -2   1 29329.9 1013.38   1
  -1   2   1 27547.7 1281.35   2
  -2   1   1 27920.9 830.852   1
  -1  -2   1 26229.5 1297.48   1
   1   2  -1 26818.5 1004.66   8
  -2  -1  -1 29037.4 1043.96   8
  -1  -2  -1 26256.6 1247.70   8
  -2  -1  -1 30105.1 1430.38   1
  -1  -2  -1 27878.8 1299.43   1
  -1  -2   1 28579.3 1322.58   7
   1  -2  -1 27837.9 1168.48   7
   2   1  -1 29087.3 1295.61   8
   2  -1   1 28275.7 1239.55   7
  -2  -1  -1 30456.9 1252.77   9
  -2  -1   1 27639.0 1349.08   1
  -2   1   1 27466.8 1045.29   2
   1  -2   1 28595.8 1286.10   7
   2   1   1 28273.0 832.297   2
   2  -1  -1 28072.9 1023.22   7
   2  -1  -3 34117.6 776.056   7
  -2  -1  -3 34619.3 2066.07   8
  -2   1  -3 36978.4 2205.15   8
   1  -2  -3 36708.1 1173.22   7
   1   2  -3 32449.1 2016.49   8
   1   2   3 35741.7 1624.87   2
  -1   2   3 35373.0 1710.63   2
  -2  -1   3 39420.5 1748.76   1
  -1  -2   3 36535.9 1591.77   7
  -1   2  -3 33250.0 2134.85   8
  -2   1   3 38695.9 1274.16   1
  -1  -2   3 35972.1 1740.85   1
   2   1  -3 35434.4 2200.81   8
  -1  -2  -3 33387.9 2080.21   8
   2   1   3 35486.6 1456.52   2
  -2   1   3 38060.6 1725.17   2
   1  -2   3 34254.5 1600.94   7
   2  -1   3 36262.3 1641.52   7
  -1  -2   5 1873.13 556.939   1
   2  -1  -5 1366.40 1046.56   8
   2   1   5 1373.75 490.433   2
  -2  -1   5 1695.43 341.212   7
  -2   1  -5 1516.98 838.145   8
   2   1  -5 1496.14 847.328   8
  -2   1   5 1438.87 372.013   1
   1   2  -5 1020.94 774.533   8
  -2  -1   5 1263.53 466.891   1
  -1  -2  -5 1340.63 917.681   8
  -2  -1  -5 1188.48 691.276   8
   1   2   5 1366.10 505.883   2
   1  -2   5 1342.26 472.769   7
   1  -2  -5 1753.08 1094.50   8
   2  -1   5 1596.55 479.080   7
  -1  -2   5 2311.36 489.695   7
  -1   2   5 1476.11 567.361   2
  -1   2  -5 1035.81 773.493   8
  -2   1   5 1462.22 541.816   2
   2  -1  -7 777.654 1076.32   8
   2  -1   7 1563.88 521.102   7
  -1  -2   7 1224.65 509.434   1
   2   1   7 1020.32 505.559   2
  -1  -2   7 1155.21 377.847   7
   1   2  -7 516.440 842.753   8
   2   1  -7 757.609 1013.22   8
   1  -2  -7 776.332 883.307   8
  -2  -1   7 1672.44 312.750   7
  -2   1   7 1369.33 424.248   1
  -1   2  -7 1246.19 903.900   8
  -1   2   7 1497.37 617.242   2
  -1  -2  -7 137.597 774.424   8
  -2   1   7 1183.70 530.819   2
   1  -2   7 992.313 469.579   7
   1   2   7 982.845 584.937   2
  -2  -1   7 1141.15 460.427   1
  -2   1  -7 422.210 734.971   8
  -2  -1  -7 1341.53 1027.09   8
  -1   2   9 1264.88 613.150   2
  -1  -2   9 2237.17 515.686   7
  -1   2  -9 2630.35 1232.17   8
  -2  -1   9 1548.52 625.316   1
   2  -1   9 1528.16 589.808   7
  -2   1   9 1763.88 553.351   1
   1   2   9 1427.36 653.708   2
   1  -2   9 1296.76 497.930   7
   2   1  -9-937.427 1069.55   8
   1   2   9 1111.23 364.769   7
  -2  -1  -9-742.918 897.671   8
  -1  -2  -9 964.833 962.790   8
  -1  -2   9 1043.63 563.153   1
  -2   1  -9 961.398 749.947   8
   1  -2  -9 324.894 634.428   8
  -2   1   9 681.839 519.314   2
   1   2  -9 1540.31 1104.43   8
   2  -1  -9 346.934 957.923   8
   2   1   9 1306.28 596.252   2
   2   1   9 1401.30 514.300   7
   1   2 -11 3779.62 1630.76   8
   2  -1 -11 3415.65 1541.58   8
  -1  -2 -11 2066.47 1288.37   8
  -2   1 -11 1476.09 1033.76   8
  -2  -1 -11 5095.21 1772.42   8
  -2  -1  11 3930.46 977.299   1
   2   1  11 5152.59 859.994   7
  -1   2 -11 3846.79 1546.69   8
  -2   1  11 4010.24 928.807   1
   1  -2 -11 2529.15 1843.95   8
  -1  -2  11 5261.77 1179.09   1
  -1   2  11 3628.59 1166.76   2
  -2   1  11 4104.12 1100.78   2
   2   1 -11 7078.48 2024.43   8
   1  -2  11 5120.41 1129.04   1
   1  -2  11 4153.27 834.681   7
   1   2  11 4655.55 1214.48   2
   2  -1  11 1307.41 523.552   7
  -2  -1  13 2219.67 931.458   1
  -1  -2 -13 908.948 1047.13   8
   2   1 -13 3946.19 1965.11   8
  -2   1 -13 2388.48 1203.03   8
   1  -2  13 2383.33 901.619   1
  -1   2  13 3764.95 995.859   1
  -1  -2  13 640.602 672.286   1
   2  -1 -13 2993.95 1631.16   8
   1   2 -13 3613.98 1988.76   8
   1  -2 -13 3207.39 1556.02   8
  -1   2 -13 1180.78 1136.85   8
  -1   2  13 1392.79 912.847   2
  -2   1  13 2692.52 859.749   1
  -2  -1 -13 1984.90 1289.63   8
   1  -2 -15 5244.62 2067.54   8
   1  -2  15 4276.68 1330.47   1
   2   1 -15-1147.03 1160.11   8
  -1  -2  15 3581.15 1150.09   1
  -2   1  15 4099.92 1260.76   1
  -1   2  15 1354.10 751.697   1
  -2   1 -15 5304.76 1921.10   8
   2  -1 -15 5409.83 2377.07   8
   1   2  15 3773.50 773.674   5
  -2  -1 -15 2858.01 1567.25   8
   2  -1  15 2136.29 902.466   1
   1   2 -15 9815.38 2780.29   8
  -2   1  15 4105.10 817.725   5
  -2  -1  15 3181.13 1070.11   1
  -1   2 -15 2492.84 1614.80   8
   2   1  15 3480.07 713.673   5
  -1   2  15 3343.42 712.753   5
  -1  -2 -15 6579.49 2247.50   8
  -1   2  17 572.510 459.009   5
  -2  -1  17 1130.60 741.595   1
   1   2  17-335.758 540.014   1
   2   1  17 1061.64 556.658   5
   1   2  17 856.621 548.063   5
  -2   1  17 746.352 523.264   5
  -1  -2  19 879.026 592.335   5
  -2  -1  19 17.2493 428.172   5
   1   2  19 246.099 424.973   5
  -1   2  19 283.896 458.775   5
  -2   1  19 341.805 440.508   5
   2  -1  19 501.274 502.108   5
   2   1  19-59.1137 391.365   5
   1  -2  19 287.661 454.936   5
  -2   1  21 813.509 481.254   5
   2  -1  21 816.458 376.363   5
   1  -2  21 444.192 419.263   5
  -1   2  21 827.171 407.965   5
   1   2  21 375.641 330.895   5
  -2  -1  21 677.367 404.724   5
  -1  -2  21 813.363 510.944   5
   2   1  21 238.257 302.818   5
   1  -2  23-166.721 296.265   5
   1   2  23-774.727 275.346   5
  -2  -1  23 246.840 289.106   5
  -1   2  23 41.7871 237.806   5
  -1  -2  23 140.638 302.708   5
  -2   1  23 98.8923 274.811   5
   2  -1  23-467.888 259.159   5
  -2  -2   0 28884.7 1567.61   1
   2  -2   0 31379.2 1378.72   7
   2  -2  -2 950145. 6479.54   7
  -2  -2   2 914428. 9086.55   1
   2   2   2 947462. 7287.31   2
  -2  -2  -2 999999. 7076.59   9
  -2   2   2 949823. 8202.63   2
   2  -2   2 953649. 8572.03   7
  -2  -2  -2 948224. 8121.98   8
   2   2  -2 960104. 8344.46   8
  -2  -2  -2 965834. 9368.47   1
  -2   2   4 43889.4 2197.37   2
  -2  -2   4 41140.7 2131.22   1
  -2  -2   4 48310.5 1919.38   7
  -2  -2  -4 46564.2 2691.24   8
   2   2  -4 50600.5 2876.17   8
   2  -2  -4 45177.7 1100.71   7
  -2   2   4 42675.8 1362.10   1
  -2   2  -4 50426.6 2888.85   8
   2   2   4 42613.1 1979.04   2
   2  -2   4 51800.8 2259.02   7
  -2  -2   6 9021.19 1150.44   1
  -2  -2  -6 9072.67 1562.10   8
  -2   2  -6 7830.25 1554.71   8
   2   2  -6 8599.94 1534.85   8
   2  -2   6 9565.28 1094.37   7
   2  -2  -6 8465.17 1838.20   8
  -2   2   6 10123.7 925.263   1
  -2  -2   6 8222.03 836.463   7
  -2   2   6 10463.5 1296.53   2
   2   2   6 7790.89 1105.27   2
  -2   2   8 38341.7 2139.41   1
   2   2   8 36906.8 2619.07   2
  -2   2   8 34328.7 2692.88   2
   2   2  -8 38220.5 3699.15   8
   2  -2  -8 33501.0 3696.52   8
  -2  -2   8 41181.7 1909.73   7
   2  -2   8 37440.3 2361.50   7
  -2   2  -8 36066.3 3495.52   8
  -2  -2   8 30665.6 2315.39   1
  -2  -2  -8 36380.1 3541.96   8
  -2   2 -10 73835.1 5575.22   8
   2   2  10 73029.1 3046.22   7
   2  -2  10 68102.4 3353.44   7
  -2  -2  10 67299.5 3873.04   1
  -2   2  10 66157.0 4188.66   2
   2   2 -10 68006.9 5585.79   8
  -2   2  10 61446.4 3151.80   1
  -2  -2 -10 60548.2 5182.97   8
   2  -2 -10 73181.8 6046.30   8
   2   2  10 71780.5 4134.09   2
  -2  -2 -12 29118.6 4008.75   8
  -2   2  12 28172.6 2468.18   1
   2   2  12 30001.5 2943.28   2
  -2   2  12 30612.9 3201.47   2
  -2  -2  12 33723.4 3054.66   1
   2  -2  12 30373.5 2401.24   7
   2  -2 -12 33624.5 4551.60   8
   2   2 -12 33024.9 4455.96   8
  -2   2 -12 31205.4 4116.28   8
   2  -2  14 58022.0 4503.91   1
   2   2  14 50293.3 2244.88   5
  -2   2 -14 59657.2 5958.42   8
  -2   2  14 60595.0 2584.47   5
  -2  -2 -14 42409.6 5160.42   8
   2   2 -14 43971.0 5801.00   8
  -2  -2  14 59170.4 4456.15   1
  -2   2  14 55441.0 3886.57   1
   2  -2 -14 50831.6 6143.32   8
   2  -2 -16 53149.9 7094.04   8
   2   2  16 42287.0 2176.99   5
   2  -2  16 49664.3 4512.64   1
  -2  -2  16 48887.6 4437.61   1
  -2   2 -16 45749.6 5686.21   8
   2   2 -16 46637.5 6113.92   8
  -2  -2 -16 41649.6 5659.95   8
  -2   2  16 49081.2 2474.85   5
   2   2  18 12365.8 1195.57   5
  -2   2  18 11687.5 1282.06   5
  -2  -2  20 5145.05 904.756   5
   2   2  20 4154.57 702.008   5
   2  -2  20 4120.29 758.481   5
  -2   2  20 4249.83 811.396   5
  -2  -2  22 8985.97 974.292   5
   2  -2  22 8720.45 834.928   5
   2   2  22 8485.81 745.543   5
  -2   2  22 8690.14 892.187   5
  -2  -2  24 6953.20 627.307   5
  -2   2  24 6268.51 558.618   5
   0  -3   1 144335. 3107.10   1
   0  -3  -1 144379. 2838.47   1
   0  -3  -1 140396. 3284.05   7
  -3   0   1 142428. 2032.69   2
  -3   0   1 143083. 3078.27   1
   0  -3   1 134841. 3432.43   7
   0  -3   3 182464. 4214.51   7
   0   3  -3 190876. 4747.50   8
   0  -3   3 178940. 3947.12   1
  -3   0   3 169968. 3623.41   1
   0   3   3 179118. 4177.71   2
  -3   0  -3 187007. 4707.64   8
  -3   0   3 175837. 3612.43   2
   0   3  -5 231074. 6716.75   8
   0  -3   5 232148. 5100.96   7
  -3   0   5 236830. 4818.13   1
  -3   0  -5 258385. 7070.87   8
   0  -3   5 237048. 5343.72   1
   0  -3  -5 229003. 7429.15   8
  -3   0   5 237714. 5357.66   2
   3   0  -5 236854. 7657.24   8
   0   3   5 235116. 5473.05   2
  -3   0  -7 113507. 5678.51   8
   0  -3  -7 115368. 6131.26   8
   0  -3   7 110920. 4207.91   1
   3   0  -7 120101. 6343.65   8
   0   3   7 109033. 4409.61   2
   0   3  -7 112162. 5764.15   8
  -3   0   7 112418. 3852.14   1
  -3   0   7 117635. 4444.16   2
   0  -3   7 117403. 3941.70   7
   3   0   7 120136. 3922.97   7
   3   0   9 56430.5 2962.73   7
  -3   0  -9 46736.1 4207.68   8
   0   3   9 53605.3 3557.41   2
   3   0  -9 56150.2 4942.63   8
   0  -3   9 54944.3 3414.40   1
   0   3  -9 53604.6 4608.27   8
   0  -3   9 59214.2 3028.54   7
   0  -3  -9 54682.1 4810.45   8
  -3   0   9 44858.3 2776.90   1
  -3   0  11 3848.97 949.208   1
   0  -3  11 4319.95 1118.59   1
   0   3 -11 2145.55 1327.60   8
   0  -3 -11 308.954 981.171   8
   0   3  11 3116.82 1004.20   2
  -3   0 -11 4857.07 1648.09   8
   3   0  11 4619.41 919.408   7
   0  -3  11 3374.38 767.582   7
   3   0 -11 4133.16 1730.59   8
   0   3 -13 3064.43 1591.55   8
   0  -3  13 3594.57 1079.93   1
  -3   0 -13 4268.12 1623.78   8
   0   3  13 3375.58 1187.64   2
  -3   0  13 3319.41 1030.69   1
   0  -3 -13 2559.77 1503.41   8
   3   0 -13 3476.06 1822.51   8
   0  -3  15 2990.29 1082.97   1
   3   0 -15-1062.59 1442.16   8
   0   3 -15-2287.05 1290.31   8
   0   3  15 498.578 419.426   1
   3   0  15-184.116 358.480   5
  -3   0  15 569.857 595.900   1
   0   3  15-470.989 426.381   5
   0  -3 -15 1353.27 1373.38   8
   0   3  17 487.478 466.204   5
   3   0  17 1008.52 433.561   5
  -3   0  17 816.771 545.853   5
  -3   0  19 373.510 497.584   5
   3   0  19-427.507 406.653   5
   0   3  19-34.4874 357.282   5
  -3   0  21 8073.68 991.210   5
   0   3  21 7664.93 853.113   5
   0  -3  21 6918.68 952.861   5
   0  -3  23 2598.83 493.298   5
   0   3  23 2493.11 416.624   5
  -3   0  23 2577.08 481.766   5
   1  -3   0 226788. 2998.61   1
   3  -1   0 220723. 3823.66   7
  -3  -1   0 225466. 4401.01   1
  -3   1   0 227136. 2653.86   2
   1  -3   0 219703. 4217.35   7
  -1  -3   0 227273. 4241.10   1
  -1  -3   0 225858. 4397.00   7
   1   3  -2 71649.9 2352.96   8
  -1  -3  -2 69606.8 2958.57   8
  -3  -1  -2 76558.7 2578.02   9
   3   1   2 79602.9 1614.29   2
  -1   3   2 79005.8 2705.18   2
   1  -3   2 75457.7 2656.44   7
  -3  -1   2 77877.7 2670.96   1
   3  -1  -2 76801.1 1922.29   7
   3  -1   2 80667.4 2615.44   7
  -3   1   2 79910.5 2235.34   2
  -1  -3   2 76263.1 2651.73   1
  -3   1   2 75335.3 1900.81   1
   1   3   2 77131.7 2588.01   2
  -3  -1  -2 77040.8 2367.75   8
  -1  -3  -2 76835.6 2580.79   1
   1  -3   2 77660.5 2231.86   1
   1  -3  -2 79072.5 2379.60   7
  -1  -3   2 79710.1 2697.97   7
   3   1  -2 79046.5 3051.82   8
  -3  -1  -4 81230.9 3533.33   8
   3   1   4 84313.8 2461.06   2
   1  -3   4 84580.5 3005.86   7
  -1   3   4 83317.9 3100.45   2
   1   3   4 87573.7 3062.43   2
  -1  -3  -4 78667.5 3858.43   8
   3   1  -4 84956.9 4006.53   8
   3  -1   4 85422.8 3011.54   7
   1  -3   4 88384.8 2921.87   1
  -3   1  -4 86693.8 3779.05   8
  -3   1   4 82401.3 2363.65   1
   1   3  -4 80914.0 3659.98   8
  -3  -1   4 84409.7 3012.40   1
   3  -1  -4 76404.8 1384.99   7
  -1   3  -4 90253.5 3846.95   8
  -3   1   4 83292.0 2962.96   2
  -1  -3   4 83628.2 3089.11   1
  -1  -3   4 87059.5 2968.98   7
   3   1  -6 1479.79 768.516   8
   1   3  -6 990.154 903.219   8
  -3  -1  -6 1574.23 808.114   8
   1  -3  -6 1642.35 1004.21   8
  -1  -3   6 1006.61 427.488   7
   3  -1   6 718.621 415.320   7
  -1   3   6 1366.65 595.289   2
   3   1   6 876.563 400.264   2
  -1  -3   6 810.565 502.356   1
  -3   1  -6 613.932 636.332   8
   1   3   6 910.349 505.707   2
   3  -1  -6 271.742 853.474   8
  -3   1   6 984.515 351.524   1
  -1   3  -6 828.014 684.872   8
  -3  -1   6 838.583 452.070   1
  -3   1   6 904.572 532.665   2
  -1  -3  -6 569.399 907.617   8
   1  -3   6 684.657 452.304   1
   1  -3   6 1308.98 520.909   7
  -1  -3   8 9089.36 1430.37   1
   3  -1  -8 7492.96 1963.99   8
   1  -3   8 11215.8 1523.28   1
  -3   1   8 5611.28 1064.28   2
  -3  -1  -8 8857.65 1843.37   8
   1  -3  -8 2649.51 1612.13   8
  -1   3   8 8912.49 1437.68   2
   1   3  -8 9289.55 1974.05   8
  -3   1  -8 7319.54 1597.07   8
  -1   3  -8 9832.02 1906.90   8
   3   1  -8 9602.12 1961.00   8
  -1  -3   8 12803.1 1298.97   7
   1  -3   8 10372.1 1279.39   7
  -1  -3  -8 9434.77 1850.47   8
   1   3   8 9688.71 1480.22   2
  -3   1   8 11020.6 1244.68   1
  -3  -1   8 11666.0 1438.41   1
   3  -1   8 10211.6 1283.70   7
   3   1   8 11858.2 1446.93   2
  -3   1 -10 2994.20 1168.68   8
   3   1 -10 527.728 859.321   8
  -3   1  10 2136.06 810.964   2
  -3   1  10 1336.99 521.068   1
  -3  -1  10 1132.28 545.737   1
   1  -3  10 383.118 471.537   7
   3  -1  10 1291.91 506.908   7
  -1   3 -10-958.390 866.910   8
   1  -3  10 1559.96 722.373   1
  -1  -3  10 1038.80 460.360   7
   3   1  10 465.944 379.232   7
  -1   3  10 1257.00 693.826   2
  -1  -3 -10-1086.48 964.737   8
   3  -1 -10-1603.07 1157.92   8
   1   3 -10-939.336 935.510   8
  -3  -1 -10 914.229 772.116   8
   1  -3 -10 2128.28 1269.71   8
  -1  -3  10 1591.81 690.286   1
   1   3  10 1490.77 732.771   2
  -3  -1 -12 9785.40 2299.54   8
   1   3 -12 14626.2 2919.75   8
   3   1 -12 15601.1 3133.46   8
  -1  -3  12 14743.9 2183.76   1
   1  -3  12 13427.6 1648.23   7
  -1   3  12 14777.7 2240.25   2
   3  -1 -12 14820.0 3257.26   8
  -1  -3 -12 7399.47 2126.13   8
  -3  -1  12 14867.5 1964.76   1
  -1   3 -12 13064.3 2614.70   8
  -3   1 -12 14569.5 2750.00   8
  -3   1  12 14019.2 1823.11   1
   1   3  12 16139.2 2308.89   2
   1  -3  12 11840.2 1991.99   1
   3  -1  12 12897.9 1607.80   7
   1  -3 -12 12264.4 2830.11   8
   3   1 -14 21815.4 4090.96   8
   3  -1 -14 22347.0 4162.36   8
   1   3  14 17657.2 2591.30   2
   1  -3  14 20460.8 2724.47   1
  -1  -3 -14 15494.4 3418.31   8
  -3   1 -14 16410.7 3147.16   8
  -3   1  14 22021.6 2480.52   1
  -1   3  14 21173.6 2930.27   2
   1   3  14 17572.3 1387.07   5
  -3   1  14 21437.0 1588.21   5
  -1   3  14 19910.9 2268.76   1
  -3  -1  14 22456.6 2718.75   1
  -1  -3  14 20994.4 2806.07   1
  -1   3 -14 20746.6 3643.75   8
   1   3 -14 13192.6 3081.67   8
   1  -3 -14 14183.3 3330.47   8
  -3  -1 -14 20672.8 3619.45   8
  -1   3  14 19844.1 1492.24   5
   3  -1 -16 1081.62 977.599   8
   1  -3 -16-3035.94 1740.71   8
  -1   3 -16-3038.39 1502.49   8
  -1   3  16 1278.65 617.927   5
   1  -3  16-1059.54 911.523   1
  -1  -3  16-1163.86 807.281   1
  -1  -3 -16-2235.15 1592.43   8
   3   1 -16-2083.59 1789.78   8
  -3   1 -16-1949.91 1427.22   8
   3  -1  16 2103.31 1117.07   1
   3   1  16 984.944 513.054   5
   1   3 -16-2464.40 1570.50   8
  -3  -1 -16-1900.81 2310.87   8
   1   3  16 829.367 468.217   5
   3   1  16 738.719 262.367   6
   1   3  16-634.462 611.651   1
  -3   1  16 599.481 475.344   5
  -3  -1  16 1124.87 757.155   1
   3  -1  18 2862.16 704.868   5
  -3   1  18 3777.71 869.727   5
   1   3  18 3822.35 751.791   5
  -3  -1  18 3228.03 789.185   5
  -1   3  18 3782.32 786.658   5
   3   1  18 3447.68 697.922   5
  -1  -3  20-127.043 443.514   5
   3  -1  20 289.707 341.574   5
  -1   3  20 438.802 397.937   5
   1  -3  20 657.263 443.208   5
   1   3  20-256.153 355.171   5
  -3  -1  20 173.151 414.499   5
  -3   1  20 631.494 481.001   5
  -3  -1  22 119.215 326.636   5
   1   3  22-453.180 269.866   5
  -1  -3  22 12.1508 359.103   5
  -3   1  22-189.232 334.552   5
   1  -3  22-47.6840 289.094   5
  -1   3  22 78.2025 300.625   5
  -3  -1  24 302.650 225.282   5
  -1   3  24 236.925 175.778   5
  -1  -3  24 227.886 196.722   5
  -3   1  24 266.343 203.134   5
  -2  -3  -1 19941.8 1457.20   1
   3  -2   1 17200.1 1250.53   7
   3   2   1 19073.7 951.496   2
  -2   3   1 17413.1 1268.43   2
   3  -2  -1 16744.5 1080.95   7
   2  -3  -1 17410.1 1195.24   7
   3   2  -1 16136.4 807.652   8
  -3  -2  -1 17010.9 1403.76   1
   2  -3   1 15871.9 1219.60   7
  -3   2  -1 18358.8 1339.46   9
  -3  -2   1 17548.1 1399.21   1
  -2  -3  -1 15338.5 830.441   8
  -3   2   1 17850.5 1078.47   2
  -3  -2  -1 16880.3 1197.93   9
   2  -3   1 18364.8 889.596   1
  -2  -3   1 18289.3 1444.92   1
  -3  -2  -3 415589. 6588.07   8
   3  -2   3 436116. 6790.50   7
   2  -3  -3 414983. 5315.74   7
   2  -3   3 428014. 6761.90   7
  -2  -3  -3 428914. 4722.30   9
  -3   2   3 409797. 3643.85   1
   2   3  -3 399166. 6544.19   8
  -3   2   3 418895. 6213.43   2
  -3  -2   3 425449. 7125.62   1
  -2   3  -3 437863. 8078.97   8
  -2  -3  -3 409731. 6983.25   8
   3  -2  -3 421440. 4495.46   7
  -2   3   3 430141. 6737.80   2
  -3   2  -3 442346. 8106.46   8
  -2  -3   3 418621. 7158.33   1
   3   2  -3 440624. 7374.91   8
   2   3   3 418588. 6254.15   2
   3   2   3 436104. 5323.86   2
  -2  -3   3 419075. 6537.01   7
   3  -2   5 57728.0 2722.48   7
  -3   2   5 55377.8 1864.73   1
  -2   3   5 52389.1 2740.06   2
   3   2  -5 58293.5 3541.56   8
  -3   2   5 54504.3 2742.89   2
   2   3   5 53735.6 2577.67   2
   3  -2  -5 56770.2 4250.24   8
  -2  -3   5 54127.0 2821.98   1
  -3   2  -5 57084.6 3470.38   8
  -3  -2   5 51313.2 2697.08   1
  -2  -3   5 57549.6 2492.96   7
   2  -3  -5 55850.3 4287.78   8
   3   2   5 52969.3 2377.19   2
   2  -3   5 58690.8 2749.11   7
  -3  -2  -5 56198.7 3299.77   8
  -2   3  -5 57667.3 3511.26   8
  -2  -3  -5 56419.5 3357.45   8
   2   3  -5 52604.4 3269.56   8
   2  -3  -7 27144.4 3302.21   8
  -3  -2  -7 31177.8 3020.31   8
   3   2   7 29848.5 2139.89   2
  -3   2   7 31302.3 2439.55   2
   2  -3   7 33043.0 2251.50   7
  -3  -2   7 30475.7 2319.22   1
  -3   2   7 30659.7 1733.26   1
   3  -2  -7 24297.9 3144.19   8
  -2  -3  -7 31554.0 3059.03   8
  -2   3   7 32367.5 2507.88   2
   3  -2   7 33961.4 2300.23   7
  -2   3  -7 26732.8 2761.62   8
  -3   2  -7 31892.2 3017.61   8
   2   3   7 31017.3 2308.90   2
  -2  -3   7 30724.7 1934.27   7
   3   2  -7 31008.1 3205.75   8
  -2  -3   7 29174.5 2262.43   1
   2   3  -7 29245.3 3075.56   8
  -3   2   9 103275. 3777.75   1
  -2  -3   9 98098.9 3581.18   7
  -3  -2  -9 81633.9 5501.13   8
   3   2   9 91326.6 4276.87   2
  -3   2  -9 94859.3 5833.78   8
  -2   3   9 101699. 3644.61   1
   3  -2  -9 98758.9 6919.96   8
   3  -2   9 91130.0 4075.38   7
  -2   3   9 93864.2 4799.17   2
   2   3   9 89929.2 4499.54   2
  -2  -3  -9 85958.0 5621.09   8
   2  -3   9 94185.0 4065.66   7
  -3  -2   9 97387.2 4533.69   1
   2  -3  -9 90712.0 6589.96   8
  -2  -3   9 95404.1 4609.07   1
  -3   2   9 96192.5 4796.37   2
   3   2  -9 96026.9 6265.41   8
   2   3  -9 88930.4 5990.27   8
  -2   3  -9 99636.6 6025.51   8
   3   2  11 41678.9 3251.36   2
   2  -3  11 42262.4 2988.57   7
   2   3  11 46409.7 3588.42   2
  -3  -2 -11 32830.7 4055.13   8
   3  -2  11 44601.7 3055.30   7
  -3   2 -11 38711.5 4208.62   8
   2  -3 -11 44734.2 5156.52   8
   3   2 -11 41543.6 4687.70   8
  -2   3  11 41860.0 3624.96   2
   3  -2 -11 44448.9 5223.79   8
  -3  -2  11 46211.8 3475.30   1
  -3   2  11 42598.5 2818.44   1
  -3   2  11 44959.8 3699.98   2
   3   2  11 43447.5 2711.99   7
  -2   3 -11 46328.6 4646.97   8
   2  -3  11 46608.2 3558.02   1
  -2   3  11 41694.6 2721.49   1
  -2  -3  11 42146.2 3428.22   1
  -2  -3 -11 40123.3 4462.39   8
   2   3 -11 36957.8 4303.09   8
  -2   3  13 52929.4 2370.11   5
  -2  -3 -13 50583.8 5723.55   8
   2  -3 -13 52349.3 6075.51   8
   2   3 -13 52472.3 5710.56   8
   2  -3  13 56088.6 4322.72   1
   2   3  13 52024.2 4218.10   2
  -3  -2 -13 52400.8 5517.65   8
   3  -2 -13 54579.8 6422.37   8
  -3   2  13 57446.6 2461.13   5
  -3  -2  13 54473.8 4187.47   1
  -2   3 -13 57338.4 5787.75   8
  -2   3  13 52887.5 4439.94   2
   3  -2  13 48691.3 3395.00   7
   3   2 -13 54536.5 5979.87   8
  -3   2 -13 51289.0 5485.03   8
  -2  -3  13 54157.6 4286.13   1
  -3  -2  15 44899.6 4206.91   1
  -3   2  15 41763.8 2264.32   5
  -2  -3 -15 38377.0 5307.82   8
  -3   2 -15 42366.4 5082.32   8
  -2   3  15 40935.5 2215.38   5
  -2  -3  15 41080.4 4053.08   1
   2   3 -15 37356.1 5178.38   8
   2   3  15 47045.0 1743.06   6
  -2   3 -15 44108.2 5318.46   8
   3  -2 -15 49788.7 6701.23   8
   2  -3  15 44791.0 4282.16   1
  -3  -2 -15 43147.3 5413.39   8
   2   3  15 39915.5 2070.08   5
   3   2  15 43943.3 1729.09   6
   2  -3 -15 41961.2 5911.26   8
   3   2 -15 36804.6 5322.27   8
   3  -2  15 44371.1 4221.32   1
   3   2  17 26672.7 1649.05   5
  -2   3  17 31255.0 1997.31   5
   3   2  17 32440.8 1483.61   6
   2   3  17 29103.2 1789.55   5
  -3   2  17 30248.8 2008.09   5
  -3   2  19 8967.37 1111.69   5
   2   3  19 8396.84 931.512   5
  -2   3  19 10066.5 1161.31   5
   3  -2  19 8212.10 1039.89   5
  -3  -2  19 9303.04 1174.42   5
  -3   2  21 16769.9 1302.51   5
   2   3  21 16935.8 1106.63   5
  -3  -2  21 16904.0 1386.92   5
  -2   3  21 17710.0 1285.22   5
   3  -2  21 14937.2 1093.07   5
  -2  -3  21 18417.0 1443.24   5
   2  -3  21 16221.8 1259.44   5
  -3  -2  23 12494.8 960.395   5
   2  -3  23 12560.4 806.618   5
  -3   2  23 12703.0 902.228   5
  -2  -3  23 12289.8 960.349   5
  -2   3  23 13253.8 887.826   5
  -3   3   0 26937.0 1632.30   9
   3  -3   0 25228.9 777.810   1
   3  -3   0 24391.8 1529.81   7
  -3  -3   0 23005.1 1720.94   1
  -3  -3   2 6891.10 1018.95   1
   3   3  -2 5017.19 498.383   8
  -3   3   2 8341.47 953.581   2
   3  -3   2 6847.17 951.203   7
  -3  -3  -2 7135.56 1061.38   1
  -3  -3  -2 6872.18 558.575   8
   3  -3  -2 5894.25 743.975   7
   3   3   2 7028.83 787.171   2
  -3  -3  -2 6260.73 758.578   9
  -3  -3  -4 268681. 6231.46   8
   3  -3   4 298806. 6316.45   7
  -3  -3   4 303258. 6787.71   1
   3  -3  -4 293762. 4253.55   7
  -3   3   4 296953. 6125.24   2
  -3  -3  -4 287337. 5072.41   9
  -3   3  -4 300546. 7552.02   8
   3   3   4 296938. 5461.61   2
   3   3  -4 277721. 6466.28   8
  -3  -3  -6 91365.3 4614.91   8
  -3  -3   6 90309.7 4037.01   1
  -3   3  -6 87542.2 4712.86   8
   3   3   6 89840.9 3587.54   2
  -3   3   6 87565.8 3928.81   2
   3   3  -6 82810.2 4589.15   8
   3  -3  -6 90938.0 6019.14   8
   3  -3   6 91202.7 3834.28   7
  -3   3   6 93139.8 2381.66   1
   3   3  -8 146099. 7226.75   8
  -3   3   8 159466. 3996.43   1
  -3  -3  -8 147016. 6939.17   8
  -3   3   8 146589. 5866.84   2
  -3  -3   8 157400. 5830.05   1
   3   3   8 145009. 5225.22   2
  -3   3  -8 157327. 7018.44   8
   3  -3   8 165165. 5513.79   7
   3  -3  -8 148979. 8422.87   8
   3   3 -10 52456.3 4970.87   8
   3  -3  10 62383.3 3654.29   7
   3  -3 -10 63474.1 6170.59   8
  -3   3 -10 62479.5 4994.68   8
  -3  -3  10 60566.4 4001.79   1
  -3   3  10 62250.8 4196.79   2
  -3  -3 -10 50531.6 4608.14   8
   3   3  10 60918.4 3866.33   2
   3  -3  12 48720.2 3883.06   1
   3  -3  12 54734.0 3686.40   7
  -3   3 -12 50155.9 4899.52   8
  -3  -3 -12 36635.0 4542.02   8
   3   3  12 47328.6 3778.81   2
  -3   3  12 47416.3 4097.77   2
   3  -3 -12 45805.1 5609.26   8
   3   3 -12 47195.7 5333.11   8
  -3  -3  12 50343.1 4051.44   1
  -3   3 -14 25283.9 3818.78   8
  -3  -3  14 19952.3 2767.60   1
   3  -3 -14 21340.4 4267.54   8
   3   3  14 22261.6 1239.37   6
  -3  -3 -14 15423.3 3125.15   8
   3  -3  14 17193.0 2568.54   1
  -3   3  14 21113.2 1604.23   5
   3   3 -14 16161.6 3479.56   8
  -3   3  14 19633.5 2848.44   2
  -3   3  16 64177.9 2823.05   5
  -3  -3 -16 53723.1 6150.56   8
   3  -3  16 67071.0 5450.26   1
   3  -3 -16 52674.2 6894.93   8
   3   3  16 68269.7 2188.55   6
  -3   3 -16 64107.6 6450.83   8
   3   3 -16 48742.2 6147.94   8
  -3  -3  16 65875.7 5355.13   1
   3   3  16 58765.9 2393.89   5
   3   3  18 16369.3 1049.96   6
  -3   3  18 15289.4 1409.44   5
  -3   3  20 27825.6 1717.01   5
  -3  -3  20 25697.6 1807.81   5
   3  -3  20 24139.8 1516.76   5
  -3  -3  22 24815.2 1493.12   5
  -3   3  22 25925.1 1379.17   5
  -3  -3  24 13034.3 776.510   5
  -3   3  24 13648.7 718.893   5
  -4   0   0 208631. 4484.64   1
   0  -4   0 210213. 4075.14   1
  -4   0   2 5132.94 729.409   1
  -4   0  -2 4894.43 795.151   9
   0  -4   2 4697.49 724.130   1
   0  -4  -2 4609.24 760.871   7
   0   4   2 5341.86 833.690   2
   0  -4  -2 6036.44 729.933   1
   0  -4   2 4840.99 826.915   7
   0  -4   4 115850. 3976.23   7
   0  -4   4 120357. 3811.57   1
   0   4  -4 118982. 4275.69   8
   0  -4  -4 114091. 5282.90   8
  -4   0   4 120448. 3573.80   1
  -4   0   4 120585. 3458.01   2
  -4   0  -4 122915. 4332.67   8
   4   0  -4 119627. 5432.24   8
   0   4   4 124722. 4098.56   2
   0   4  -6 240610. 7465.38   8
   0  -4  -6 232425. 8513.98   8
   0   4   6 222720. 6146.33   2
  -4   0   6 222710. 5419.92   1
   0  -4   6 225511. 5942.17   7
   4   0  -6 221679. 8408.90   8
  -4   0  -6 240432. 7441.19   8
   0  -4   6 227414. 5964.84   1
   4   0   8 108474. 4315.30   7
   0   4  -8 113690. 6070.36   8
   0  -4   8 108800. 4404.31   7
   0  -4   8 107197. 4678.64   1
   0   4   8 108167. 5020.32   2
  -4   0   8 112507. 4316.82   1
  -4   0  -8 106154. 5668.32   8
   0  -4  -8 101186. 6368.73   8
   4   0  -8 105252. 6525.58   8
   4   0 -10 41673.8 4684.98   8
   4   0  10 36061.5 2701.33   7
   0  -4 -10 35549.8 4327.47   8
   0  -4  10 39265.8 3234.98   1
   0  -4  10 34536.3 2619.98   7
   0   4  10 36125.3 3255.63   2
  -4   0 -10 35660.7 3741.60   8
  -4   0  10 37777.4 2813.91   1
   0   4 -10 38739.8 4033.34   8
   0  -4  12 19348.1 2475.99   1
   4   0 -12 18331.8 3624.99   8
   0  -4 -12 19731.3 3492.26   8
   0   4  12 14860.8 2301.73   2
  -4   0 -12 15122.1 2737.88   8
  -4   0  12 14667.4 1958.46   1
   4   0  12 18081.7 1981.75   7
   0   4 -12 17104.1 3020.16   8
   0   4  14 20458.5 1507.32   5
  -4   0 -14 17665.9 3202.67   8
   0  -4  14 22615.5 2960.59   1
   4   0 -14 24404.3 4417.83   8
   0   4  14 19388.3 2864.13   2
   0   4 -14 19114.1 3466.83   8
  -4   0  14 18612.7 2284.78   1
   0  -4 -14 16296.6 3450.28   8
  -4   0 -16 3684.75 1568.80   8
   0  -4 -16 2302.87 1491.39   8
   4   0 -16 5321.56 2336.75   8
   0   4 -16 6615.03 2326.81   8
  -4   0  16 5974.06 944.231   5
   0  -4  16 6966.99 1828.94   1
   0   4  16 5185.57 846.232   5
   0   4  18 18033.6 1449.82   5
  -4   0  18 17765.8 1563.02   5
  -4   0  20 13677.8 1285.48   5
   0   4  20 11954.6 1077.08   5
  -4   0  22 10106.7 942.495   5
   0  -4  22 8957.34 923.084   5
   0   4  22 9195.32 782.386   5
  -4   0  24 6287.86 543.053   5
  -4   1   1 3047.15 419.572   2
   1  -4  -1 3933.35 731.191   7
  -4  -1   1 2985.75 656.472   1
  -1  -4   1 2341.07 630.934   7
  -1  -4  -1 2060.77 584.528   1
  -4   1   1 2573.88 451.370   1
   1  -4   1 2348.81 662.539   7
   1  -4  -1 2322.24 386.734   1
  -1  -4   1 2359.24 626.177   1
  -4  -1  -1 2786.41 657.764   1
  -1  -4  -1 2646.61 641.031   7
   1  -4   1 2471.51 486.129   1
  -4  -1  -1 3006.81 681.768   9
  -4   1  -1 2492.56 261.021   2
   1  -4  -3 2772.66 577.094   7
  -1  -4  -3 2675.43 922.716   8
  -1   4   3 3394.82 737.942   2
   1  -4   3 3522.74 624.058   1
  -1  -4   3 2805.31 644.641   7
  -4  -1  -3 3883.29 707.040   8
  -1  -4   3 3275.35 704.224   1
  -4  -1  -3 2957.94 648.320   9
   1   4  -3 2809.12 645.309   8
  -4   1   3 4198.08 592.161   1
   4   1  -3 1279.07 752.197   8
   1   4   3 2965.46 671.646   2
   1  -4   3 2266.31 649.792   7
  -4  -1   3 3973.60 745.910   1
  -4   1   3 4541.85 675.301   2
   4  -1   3 2955.29 669.870   7
   4  -1  -3 2947.69 457.341   7
  -4   1  -5 9961.93 1516.92   8
   1  -4   5 12076.8 1316.77   1
   1  -4   5 10861.2 1299.09   7
  -1   4   5 13015.4 1462.15   2
  -1   4  -5 8712.14 1507.66   8
  -4  -1  -5 11398.0 1450.65   8
   4  -1  -5 9505.47 542.884   7
   1   4  -5 8832.69 1335.63   8
  -4  -1   5 10618.4 1252.68   1
  -1  -4   5 11894.5 1382.49   1
   4  -1   5 10069.2 1239.33   7
  -4   1   5 12517.2 1113.74   1
  -4   1   5 11418.3 1269.31   2
  -1  -4  -5 9678.96 1578.10   8
   1   4   5 11025.6 1340.20   2
   4   1  -5 12373.6 1854.07   8
   1  -4  -5 9542.91 1925.48   8
   4  -1  -5 11863.1 2165.69   8
  -1  -4   5 10394.1 1245.99   7
  -1  -4   7 14212.8 1507.79   7
   1  -4   7 13339.3 1561.86   1
   1  -4  -7 3406.44 1349.07   8
   4   1  -7 10714.3 2111.91   8
   1  -4   7 12004.4 1475.26   7
   1   4   7 11953.2 1544.87   2
  -1  -4   7 12636.1 1601.47   1
  -4   1   7 13413.1 1299.83   1
  -1   4   7 11290.9 1590.78   2
  -1  -4  -7 12984.4 2249.69   8
  -4   1   7 13705.6 1608.25   2
  -4  -1   7 14397.7 1598.94   1
   4  -1  -7 5632.35 1645.69   8
   1   4  -7 13827.7 2051.37   8
  -4  -1  -7 12493.5 1883.74   8
   4  -1   7 7269.30 1106.63   7
  -4   1  -7 7002.51 1450.37   8
  -1   4  -7 12039.4 1901.62   8
  -1  -4  -9 7508.08 1838.43   8
   1   4  -9 11048.6 2083.72   8
  -4   1   9 11378.3 1347.89   1
  -1   4  -9 8119.89 1847.96   8
   1  -4   9 10073.3 1433.70   7
   4  -1   9 9125.20 1324.00   7
  -4  -1  -9 9103.46 1817.35   8
   1  -4   9 9207.78 1532.11   1
   4  -1  -9 8883.70 2170.76   8
   4   1   9 7711.15 1264.71   7
   4   1  -9 11417.9 2293.16   8
  -4   1   9 8485.54 1509.62   2
  -4  -1   9 7889.40 1373.04   1
  -4   1  -9 7591.96 1667.31   8
  -1  -4   9 11462.6 1649.59   1
  -1  -4   9 10975.1 1402.07   7
   1   4   9 8894.88 1501.24   2
   1  -4  -9 8851.47 2277.17   8
  -1   4   9 10523.0 1719.94   2
  -4  -1 -11 2605.89 1285.49   8
  -4  -1  11 2180.67 808.329   1
  -4   1  11 237.908 350.231   1
   1   4 -11 3287.16 1492.81   8
  -4   1 -11 93.3887 373.301   8
   4   1  11 1843.01 651.044   7
  -1  -4 -11 2050.18 1280.77   8
   4   1 -11 1984.55 1412.26   8
  -1   4  11 1476.45 792.108   2
   1  -4  11-273.123 393.070   7
  -1   4 -11 2088.81 1121.64   8
   4  -1  11 4084.52 986.410   7
   1  -4 -11 4348.37 1727.95   8
   1  -4  11 2027.84 889.230   1
   1   4  11 1909.44 868.015   2
  -1  -4  11 2693.54 916.423   1
   4  -1 -11 1501.20 1299.80   8
   4  -1  13 927.759 487.402   7
  -4  -1 -13 5533.31 1789.63   8
  -1  -4 -13-5221.37 2059.70   8
  -1   4  13 607.810 638.893   2
  -1  -4  13 27.4683 480.396   1
  -1   4  13-7.86611 386.167   5
   4   1 -13-157.998 1004.62   8
   1  -4  13-1118.20 686.945   1
   1  -4 -13-4041.63 1760.68   8
  -4   1 -13 2031.50 1072.11   8
   4  -1 -13 2859.41 1622.52   8
  -4   1  13-1.61138 441.355   5
   1   4  13-1686.42 866.512   2
   1   4 -13-106.966 581.677   8
  -1   4 -13-1120.78 1055.16   8
  -4  -1  13-100.530 368.138   1
  -1   4  15 5874.41 906.540   5
  -4   1  15 7004.92 1006.18   5
   1   4 -15 3315.17 1739.81   8
  -1  -4 -15 5792.08 2287.50   8
   1   4  15 4822.89 1579.96   2
  -4   1 -15 4932.03 1803.99   8
   1  -4  15 5071.92 1477.55   1
   1   4  15 5711.86 629.552   6
  -1  -4  15 3883.58 1304.01   1
   4   1 -15 389.739 920.492   8
   4  -1 -15 6634.94 2473.29   8
   1   4  15 5018.44 827.155   5
  -4  -1  15 5057.19 1387.40   1
  -4  -1 -15 727.861 782.404   8
  -1   4 -15 8846.21 2377.95   8
  -1   4  15 3086.69 1201.17   2
   1   4  17 2556.02 651.364   5
  -4  -1  17 1705.36 659.546   5
   4   1  17 1791.73 444.135   6
  -1   4  17 1806.00 622.482   5
  -4   1  17 2294.10 677.513   5
  -1   4  19 1870.04 598.061   5
   1   4  19 2557.72 588.638   5
  -4  -1  19 940.877 531.905   5
  -4   1  19 2204.77 703.186   5
  -1  -4  21 817.739 491.807   5
   1  -4  21 1225.89 442.775   5
  -4  -1  21 1220.08 499.857   5
  -4   1  21 1217.97 477.517   5
  -1   4  21 861.381 359.567   5
   1   4  21 861.999 348.349   5
  -1   4  23 1330.47 319.807   5
   1   4  23 1624.60 304.779   5
  -4   1  23 1234.47 352.094   5
  -1  -4  23 896.812 345.619   5
   1  -4  23 438.545 249.176   5
  -4  -1  23 1253.20 375.929   5
  -2  -4   0 20672.7 1636.87   1
  -4  -2   0 21230.6 1707.75   1
   2  -4   0 19811.7 899.270   1
   4  -2   0 24262.4 1538.82   7
   2  -4   0 24459.2 1683.96   7
  -4   2   0 25496.6 1811.10   9
  -2   4   0 24606.5 1347.77   9
  -4   2   0 22009.8 1158.01   2
  -4  -2  -2 3878.20 735.842   9
  -2  -4  -2 5319.48 894.892   1
   4   2  -2 4338.10 766.570   8
  -2  -4   2 4195.31 846.705   1
   4  -2  -2 3351.66 544.963   7
  -2  -4   2 3362.95 773.249   7
  -4  -2  -2 4798.81 929.889   1
  -2  -4  -2 3161.07 684.436   8
   2  -4   2 3363.33 732.045   7
   4   2   2 3984.96 430.230   2
   4  -2   2 3895.04 770.239   7
  -4   2   2 4640.50 622.449   2
  -4  -2   2 4744.86 864.861   1
  -2   4   2 4066.50 803.754   2
  -4   2  -2 4230.78 802.907   9
   2   4   2 3981.66 711.514   2
   2  -4   2 4015.55 581.304   1
   2  -4  -2 3790.93 676.572   7
  -2  -4  -4 81235.2 3783.90   8
   2  -4   4 85232.6 3062.79   1
  -4  -2  -4 84637.7 3258.03   8
   2   4   4 84364.9 3307.02   2
  -2   4   4 82404.3 3479.54   2
  -2  -4   4 84717.7 3381.80   7
   4  -2  -4 84173.9 2089.83   7
   4   2  -4 85093.4 3946.24   8
  -2  -4   4 84044.4 3629.88   1
   4   2   4 81082.5 2539.44   2
  -4   2   4 84795.9 3226.52   2
  -4   2   4 87832.3 2210.22   1
  -4  -2  -4 84694.4 3199.86   9
   2  -4   4 84598.0 3477.48   7
   2  -4  -4 85450.2 2727.43   7
   2   4  -4 76361.0 3174.97   8
  -2  -4  -4 79155.6 2033.47   9
   4  -2   4 84613.5 3429.86   7
  -4  -2   4 82901.1 3602.20   1
  -2   4   6 57232.3 3201.60   2
  -4   2   6 66733.9 2419.83   1
   2   4   6 61918.2 3206.91   2
  -4  -2  -6 60259.3 3592.96   8
  -2  -4   6 66018.7 3108.84   7
  -4   2  -6 68602.0 4143.16   8
   4   2  -6 64331.6 4212.20   8
   4   2   6 62276.8 2720.22   2
  -4   2   6 65794.7 3351.70   2
  -4  -2   6 65242.4 3401.98   1
   2  -4   6 66701.0 3337.30   7
  -2  -4  -6 64844.3 4045.72   8
   2  -4   6 66190.3 3180.71   1
   4  -2   6 62691.3 3227.02   7
   2   4  -6 63798.1 3785.91   8
  -2  -4   6 62439.1 3396.27   1
  -2   4  -6 62435.2 3928.96   8
   2  -4  -6 59990.8 4965.60   8
   4  -2  -6 60468.1 4907.35   8
   2   4  -8 32384.4 3257.12   8
   2  -4  -8 38300.9 4280.42   8
  -2   4  -8 43008.2 3697.44   8
   2  -4   8 40130.7 2865.12   1
  -2  -4   8 43918.9 3162.77   1
   2   4   8 40810.6 3010.06   2
  -4  -2   8 45825.0 3137.68   1
  -4   2   8 46386.5 2370.19   1
  -2  -4  -8 42514.2 3893.33   8
  -4   2   8 38589.1 2915.05   2
   4   2   8 39586.2 2552.81   2
   4  -2   8 41489.1 2832.32   7
  -4  -2  -8 43168.5 3616.10   8
  -4   2  -8 41263.1 3623.28   8
   2  -4   8 39970.9 2834.73   7
   4   2  -8 40113.2 3878.70   8
  -2  -4   8 43430.8 2629.57   7
   4  -2  -8 38162.6 4385.55   8
  -2   4   8 42804.0 3196.65   2
   2   4  10 9692.78 1693.24   2
   4  -2 -10 8942.99 2428.62   8
  -2   4  10 9022.24 1668.94   2
  -4  -2  10 8958.30 1520.59   1
  -4  -2 -10 8335.07 1961.35   8
  -2  -4 -10 4050.07 1486.88   8
  -4   2  10 10636.6 1296.41   1
  -2   4 -10 9725.23 2093.06   8
  -4   2 -10 9385.59 2013.21   8
   2  -4  10 7506.72 1423.31   7
   2  -4  10 10294.4 1665.92   1
   4   2  10 8166.47 1277.59   7
   2   4 -10 12265.7 2536.16   8
   4   2 -10 11958.1 2512.98   8
  -4   2  10 7388.77 1534.11   2
  -2  -4  10 7361.88 1529.93   1
  -2  -4  10 8213.65 1184.08   7
   4  -2  10 9250.41 1444.56   7
   2  -4 -10 6339.12 2034.16   8
  -4  -2 -12 4507.80 1618.02   8
   2  -4  12 9886.83 1838.01   1
   2   4  12 9810.58 1875.10   2
   4   2 -12 9688.52 2548.54   8
   2  -4 -12 9295.58 2577.25   8
   4  -2 -12 8948.33 2653.80   8
  -2  -4 -12 6844.39 2069.69   8
   4   2  12 6461.96 1217.79   7
   4  -2  12 8740.31 1471.04   7
  -2  -4  12 8632.25 1688.01   1
  -4   2 -12 9481.62 2147.65   8
   2   4 -12 9425.67 2337.29   8
  -2   4 -12 5388.77 1732.12   8
  -2   4  12 7209.56 1599.96   2
  -4   2  12 8955.55 1741.16   2
  -4  -2  12 8490.49 1618.90   1
   2  -4  12 7497.09 1465.19   7
  -4   2 -14 10585.3 2474.16   8
   2   4  14 9005.52 796.568   6
   2  -4  14 6516.32 1603.26   1
  -2   4  14 8132.10 1026.98   5
  -4   2  14 8453.87 1013.54   5
   4   2 -14 4192.54 1977.51   8
  -2  -4  14 5360.44 1472.94   1
  -2   4 -14 8077.20 2288.71   8
   2  -4 -14 7066.32 2392.86   8
   2   4  14 7228.68 1603.49   2
  -2   4  14 9394.54 1968.35   2
   2   4  14 7097.62 879.894   5
   2   4 -14 9555.68 2539.68   8
  -2  -4 -14 6070.28 2205.55   8
  -4  -2 -14 9944.38 2501.91   8
   4  -2 -14 10728.9 3191.15   8
  -4  -2  14 6235.94 1506.56   1
  -4  -2  16 1240.20 835.178   1
   2   4  16 751.472 463.067   5
  -2   4  16 255.548 433.660   5
  -4   2  16 443.540 489.451   5
  -2  -4 -16-439.439 818.280   8
   2   4  16 1218.22 397.925   6
   4   2  16 235.598 277.811   6
  -4   2  18 7981.39 1072.20   5
  -2   4  18 8444.87 1082.92   5
  -4  -2  18 7731.65 1095.31   5
   2   4  18 7291.01 874.425   5
   4   2  18 8652.91 796.617   6
  -2   4  20 4956.78 798.734   5
  -4  -2  20 4038.82 739.996   5
   2  -4  20 6106.90 857.240   5
   2   4  20 5438.68 670.096   5
  -4   2  20 4745.70 764.008   5
  -2  -4  22 5671.98 782.903   5
  -4  -2  22 6137.55 759.318   5
  -4   2  22 6125.66 715.180   5
   2  -4  22 5014.16 631.220   5
  -2   4  22 6102.67 669.871   5
  -2  -4  24 1536.87 302.259   5
  -2   4  24 1543.83 257.461   5
  -4   2  24 1680.92 304.305   5
  -4  -2  24 1047.81 264.295   5
   3  -4   1 6255.33 562.850   1
  -4   3   1 7083.56 833.991   2
  -4  -3  -1 6199.20 1060.23   1
  -3   4   1 5647.06 885.164   2
  -3  -4   1 7031.88 1092.20   1
   3  -4   1 6032.29 900.319   7
  -3  -4  -1 5831.56 1015.32   1
  -4  -3   1 5670.60 1066.11   1
  -4   3  -1 6491.28 1002.74   9
   4  -3   1 6208.01 955.739   7
   4  -3  -1 7415.41 875.825   7
  -3   4  -1 6541.96 869.478   9
   4   3   1 6306.68 706.546   2
   3  -4  -1 7052.62 953.076   7
  -3  -4  -3 3466.40 824.775   1
  -3  -4   3 3000.49 833.317   1
   3  -4  -3 2473.13 556.785   7
   4  -3  -3 1824.80 445.044   7
   4   3  -3 889.347 396.502   8
   3  -4   3 1892.13 684.752   7
  -4  -3  -3 3053.06 448.787   8
  -4  -3   3 3635.17 904.143   1
   3  -4   3 2409.74 493.316   1
  -3  -4  -3 2174.65 504.262   8
   4  -3   3 2020.74 687.938   7
   3   4   3 1908.94 513.073   2
  -3   4   3 2929.40 691.954   2
   4   3   3 2122.40 475.412   2
  -4   3   3 2443.07 545.693   2
   3   4  -3 1371.60 346.294   8
  -4  -3  -3 1590.81 549.067   9
   3   4  -5 97024.0 4051.03   8
  -4  -3  -5 98597.0 3964.52   8
   3  -4  -5 103545. 2762.44   7
   4   3   5 100065. 3412.50   2
  -3   4   5 100790. 4132.89   2
  -4  -3  -5 99825.6 3539.84   9
  -3  -4  -5 103064. 3023.28   9
  -4   3   5 105522. 4112.64   2
  -3  -4   5 95377.3 4295.90   1
  -4  -3   5 101623. 4392.14   1
   3   4   5 100716. 3785.74   2
   4  -3   5 93005.5 3959.12   7
   4  -3  -5 99545.5 2325.34   7
   3  -4   5 92160.0 3941.04   7
   4   3  -5 102551. 4513.08   8
  -3  -4  -5 103358. 4380.04   8
  -3   4   7 88297.2 4399.38   2
   4   3  -7 85979.1 5191.72   8
  -3  -4  -7 87847.0 4970.93   8
   4   3   7 90689.4 3787.77   2
  -4  -3  -7 85822.8 4720.87   8
  -4  -3   7 87553.2 4414.10   1
   3   4   7 84558.2 3946.60   2
  -4   3  -7 86539.0 5031.12   8
   3  -4  -7 92623.1 6601.71   8
  -3  -4   7 86908.2 4440.54   1
  -4   3   7 84959.2 4225.22   2
   3   4  -7 86415.9 4916.56   8
   4  -3   7 88718.1 4171.35   7
  -3   4  -7 86927.3 5085.95   8
   4  -3  -7 84641.3 6363.15   8
   3  -4   7 87593.6 4148.51   7
   3  -4   9 31075.5 2736.78   1
   3  -4   9 30882.7 2630.63   7
   3   4  -9 34455.8 3625.18   8
  -3  -4   9 34546.1 3103.06   1
   3  -4  -9 33047.4 4349.04   8
   4  -3   9 30481.8 2650.35   7
  -4  -3   9 30943.0 2861.71   1
  -3   4   9 31925.0 2990.53   2
   3   4   9 29365.0 2635.84   2
   4  -3  -9 32909.2 4358.95   8
  -3  -4  -9 22787.0 2915.19   8
  -4  -3  -9 25010.8 2924.64   8
  -4   3   9 30409.8 2860.97   2
   4   3   9 29655.7 2519.55   2
   4   3  -9 25007.0 3420.21   8
  -4   3  -9 30653.3 3304.47   8
  -3   4  -9 31043.8 3369.06   8
  -4   3  11 11459.8 1983.91   2
  -3  -4 -11 7645.48 1946.41   8
   4   3  11 10890.4 1718.87   2
  -4   3 -11 11178.3 2224.66   8
  -3  -4  11 9063.85 1827.86   1
   3  -4  11 11452.6 1851.43   1
   3   4 -11 7528.96 2094.22   8
   3  -4  11 12783.6 1825.39   7
   3   4  11 13407.7 1977.59   2
   4  -3 -11 13022.7 2984.23   8
   4  -3  11 10647.8 1669.81   7
   4   3 -11 9230.27 2358.80   8
   3  -4 -11 12786.8 2972.71   8
  -3   4 -11 11022.9 2280.67   8
  -4  -3 -11 9077.69 2014.95   8
   4   3  11 9322.55 1377.35   7
  -4  -3  11 11492.7 1889.32   1
  -3   4  11 11722.2 2060.31   2
   4  -3  13 2728.67 1073.91   1
   3  -4  13 3216.94 1145.82   1
  -4  -3 -13 673.013 675.048   8
   4  -3 -13 3402.76 1866.98   8
   4   3 -13 4548.85 1853.98   8
  -3   4  13 3304.31 1258.30   2
   3   4  13 2841.20 513.788   6
  -4   3 -13 3168.92 1377.44   8
  -3  -4 -13 830.318 846.124   8
   3  -4  13 908.554 533.432   7
  -3   4 -13 4429.20 1640.42   8
   3  -4 -13 4806.99 1962.54   8
  -4   3  13 2739.25 653.663   5
  -3  -4  13 3058.99 1183.88   1
   3   4 -13-83.0133 834.416   8
  -4   3  13 2576.47 1078.35   2
   3   4  13 2108.86 877.561   2
  -3   4  13 3337.67 659.114   5
   4  -3  13 5246.00 1261.31   7
  -4  -3  13 1398.80 791.385   1
   4   3  13 2863.04 506.918   6
  -4  -3  15 7399.53 1811.80   1
  -4   3  15 7234.20 1009.04   5
  -3   4 -15 11505.1 2777.79   8
  -3   4  15 8383.73 1032.33   5
   4   3 -15 10058.5 2808.61   8
  -3  -4 -15-139.120 1225.81   8
  -3   4  15 6800.69 1754.09   2
  -4  -3 -15 10287.7 2745.64   8
   4  -3  15 9461.98 2043.65   1
   3  -4 -15 6835.71 2704.00   8
   3   4 -15 650.134 1299.02   8
   3  -4  15 7005.70 1755.45   1
   4   3  15 8496.90 843.875   6
  -4   3 -15 5716.97 2016.47   8
   3   4  15 8436.18 823.904   6
   4  -3 -15 9802.16 3181.63   8
  -3  -4  15 6186.17 1710.21   1
  -3   4  17 5134.98 879.540   5
   4   3  17 7061.90 744.273   6
  -4   3  17 6327.68 984.399   5
   3   4  17 7305.29 748.578   6
   4   3  19 10506.1 841.132   6
  -3   4  19 9799.01 1082.62   5
   3   4  19 7965.21 697.196   6
  -4  -3  19 10092.8 1191.60   5
  -4   3  19 10905.9 1145.77   5
  -4   3  21 7387.01 824.198   5
   3  -4  21 6220.93 725.091   5
  -3  -4  21 6943.57 896.274   5
  -4  -3  21 6821.61 888.231   5
  -3   4  21 6671.49 781.399   5
  -3  -4  23 5131.29 602.386   5
  -4  -3  23 6069.43 644.560   5
  -4   3  23 5907.26 576.894   5
  -3   4  23 5303.56 541.728   5
  -4   4   0 43857.9 2423.87   9
   4  -4   0 41469.6 2335.63   7
  -4  -4   0 44606.7 2879.85   1
  -4   4   0 44739.2 2342.98   2
   4   4   2 3080.71 604.353   2
  -4  -4   2 3054.04 876.388   1
   4  -4   2 3020.02 833.247   7
   4  -4  -2 3207.54 677.999   7
  -4   4   2 2417.14 596.706   2
  -4   4  -2 1847.78 604.563   9
  -4  -4  -2 2981.00 900.889   1
   4  -4   4 745.911 543.587   7
   4  -4  -4 900.642 404.175   7
  -4  -4   4 356.882 455.138   1
  -4   4   4 895.594 457.945   2
   4   4   4 875.849 419.367   2
  -4  -4  -4 1146.92 448.255   9
  -4  -4   6 2324.65 842.042   1
   4   4  -6 4694.86 1095.87   8
  -4  -4  -6 1820.43 668.521   9
   4  -4   6 1284.55 801.091   7
  -4  -4  -6 3806.67 927.819   8
   4   4   6 3336.75 769.470   2
  -4   4   6 2761.83 879.961   2
   4  -4  -8 271.099 911.735   8
   4   4   8 1331.49 605.212   2
   4   4  -8 4190.95 1351.33   8
  -4  -4   8 3384.31 972.127   1
  -4  -4  -8 2999.95 967.033   8
   4  -4   8 1342.45 658.919   7
  -4   4  -8 2590.56 990.080   8
  -4   4   8 786.562 554.882   2
  -4  -4  10 2519.32 1111.19   1
  -4   4 -10 3300.65 1296.26   8
   4  -4 -10 1499.73 1443.16   8
  -4  -4 -10 168.769 392.709   8
   4   4 -10 3271.88 1293.27   8
   4   4  10 1356.90 561.307   2
  -4   4  10 1783.85 784.934   2
   4  -4  10 862.228 609.976   7
  -4  -4  12 3973.14 1265.32   1
  -4   4 -12 1350.61 879.582   8
  -4   4  12 3799.40 683.769   5
  -4   4  12 1874.83 883.538   2
   4   4  12 3422.71 546.788   6
  -4  -4 -12 3080.15 1437.69   8
   4   4  12 2232.82 1025.21   2
   4  -4  12 4173.15 1308.24   1
   4  -4  12 5397.13 1292.40   7
   4   4 -12 5967.88 1857.55   8
  -4  -4  14 1110.77 797.986   1
   4   4  14 1184.74 436.871   6
  -4   4 -14 3575.65 1524.20   8
   4  -4 -14-2154.08 1677.41   8
   4  -4  14-422.768 645.914   1
  -4   4  14 904.843 425.843   5
  -4   4  14 1339.05 954.348   2
   4   4  16 11470.0 954.026   6
  -4   4  16 11257.1 1213.98   5
  -4   4  18-167.093 401.655   5
   4   4  18-199.743 281.424   6
  -4   4  20 45.8749 332.348   5
   4   4  20 389.884 216.606   6
  -4  -4  20 871.630 457.220   5
  -4   4  22 246.633 265.718   5
  -4  -4  22 496.588 328.192   5
  -5   0  -1 467857. 8293.42   9
  -5   0   1 458592. 7281.82   1
   0  -5  -1 459178. 6639.96   1
   0  -5   1 455401. 7120.41   1
   0  -5   1 468427. 8293.19   7
   0  -5  -1 479210. 8062.72   7
   0  -5   3 120171. 4406.24   7
   0  -5  -3 120279. 4041.84   7
   0   5   3 111696. 4175.65   2
   0  -5   3 109588. 3796.67   1
  -5   0   3 108523. 3593.71   1
  -5   0  -3 120536. 4286.27   9
   0   5  -5 371134. 8461.25   8
   0  -5   5 379434. 8250.55   7
   0  -5  -5 377789. 10877.4   8
   0  -5   5 373020. 7753.24   1
   5   0  -5 382123. 11007.7   8
   0   5   5 369959. 8144.60   2
  -5   0  -5 389530. 8599.90   8
  -5   0   5 370322. 7168.85   1
   0  -5   7 285079. 7613.37   7
   0   5  -7 281632. 8757.56   8
   0   5   7 293683. 8011.50   2
  -5   0  -7 288927. 8600.94   8
   5   0  -7 295285. 10863.9   8
   5   0   7 294780. 7512.56   7
   0  -5   7 292569. 7738.89   1
   0  -5  -7 294812. 10732.7   8
  -5   0   7 295005. 7004.75   1
   0   5  -9 109284. 6168.09   8
   5   0   9 100600. 4654.57   7
   0  -5   9 103460. 5138.83   1
  -5   0   9 98091.3 4466.18   1
  -5   0  -9 96393.1 5683.04   8
   5   0  -9 99441.7 7056.50   8
   0  -5  -9 102258. 7149.30   8
   0  -5   9 94316.8 4617.76   7
   0   5   9 102219. 5367.39   2
   0  -5  11 125597. 5538.50   7
   0  -5 -11 123975. 8611.48   8
   0  -5  11 125743. 6301.66   1
   5   0 -11 117269. 8404.19   8
  -5   0 -11 122097. 7207.88   8
   0   5  11 118916. 6420.65   2
   5   0  11 132178. 5683.56   7
  -5   0  11 124949. 5590.59   1
   0   5 -11 125475. 7433.87   8
   0   5  13 162424. 4039.74   5
   0   5 -13 175200. 9737.66   8
   0   5  13 168857. 3158.32   6
  -5   0 -13 160958. 9040.54   8
   5   0  13 174107. 6881.61   7
   0  -5 -13 172309. 11193.9   8
   0  -5  13 168898. 8012.93   1
   0   5  13 171122. 8346.82   2
  -5   0  13 169291. 4306.86   5
   5   0 -13 168868. 11088.7   8
   0  -5  15 36445.7 4065.00   1
   0   5  15 34917.8 4074.86   2
   0  -5 -15 29725.8 5012.91   8
   0   5  15 38547.6 2049.92   5
   0   5 -15 36413.5 4822.44   8
  -5   0  15 37453.4 2182.56   5
  -5   0 -15 37460.7 4588.94   8
   5   0 -15 31697.1 5178.75   8
   0   5  17 45568.4 2219.42   5
  -5   0  17 42303.7 2350.65   5
  -5   0  19 57086.5 2600.41   5
   0   5  19 57863.6 2329.10   5
   5   0  19 60432.0 1918.89   6
  -5   0  21 24342.7 1493.65   5
   0  -5  21 22821.8 1509.10   5
   0   5  21 24562.5 1310.59   5
  -5   0  23 19792.3 1038.71   5
   0  -5  23 17366.8 994.906   5
   0   5  23 18394.2 834.570   5
  -5  -1   0 166844. 4851.49   1
  -5   1   0 164372. 4973.98   9
   1  -5   0 167992. 4888.84   7
  -1   5   0 165589. 2714.48   9
  -1  -5   0 173181. 5068.93   7
   1  -5   0 168280. 3626.63   1
  -1  -5   0 172139. 4604.79   1
  -5  -1  -2 203974. 5431.35   9
   1   5   2 190294. 5351.99   2
   1  -5   2 195126. 5551.94   7
   5  -1  -2 199011. 4300.77   7
  -1   5   2 195676. 5469.50   2
   1  -5  -2 212016. 5205.50   7
  -1  -5   2 202940. 5622.75   7
   5  -1   2 207736. 5254.18   7
  -5   1   2 209337. 3701.72   2
  -5   1   2 203973. 4361.70   1
   1  -5   2 193243. 4460.21   1
  -5  -1   2 195525. 5212.44   1
  -1  -5   2 187162. 5162.98   1
  -1  -5  -2 199077. 4946.42   1
  -5   1  -2 203138. 5584.24   9
  -1  -5  -4 65858.5 4004.89   8
   5   1  -4 66776.3 4055.66   8
   5  -1  -4 65178.9 2142.41   7
  -1   5   4 68421.0 3419.32   2
   1  -5   4 61170.5 2848.75   1
  -5   1   4 65490.2 2710.86   2
  -5  -1   4 64290.8 3122.35   1
   1  -5  -4 67064.2 2917.54   7
  -1  -5   4 71463.3 3420.88   7
  -5  -1  -4 68339.3 3261.55   9
  -1  -5   4 63892.2 3262.41   1
   1   5   4 62732.6 3225.65   2
   1  -5   4 63140.3 3381.40   7
   5  -1   4 66537.1 3246.80   7
  -5   1   4 66561.6 2586.65   1
  -1  -5   6 73207.0 3765.00   1
  -5  -1  -6 73982.0 3935.03   8
   1   5  -6 68863.6 3906.63   8
  -1  -5  -6 77022.0 4936.81   8
  -5   1  -6 70254.9 4114.29   8
   5  -1   6 74784.9 3696.02   7
  -1   5  -6 65375.2 4010.58   8
  -5   1   6 76026.4 3087.84   1
  -1   5   6 72371.4 3847.30   2
  -1  -5   6 64598.4 3402.38   7
   1  -5   6 68144.8 3689.37   7
  -5  -1   6 73808.5 3625.25   1
   1  -5   6 68699.7 3451.64   1
   5   1  -6 74468.7 4931.81   8
   5  -1  -6 69569.4 5180.90   8
  -5   1   6 76439.6 3510.74   2
   1   5   6 74269.2 3803.39   2
  -5   1   8 46956.7 3164.59   2
   5  -1  -8 47735.1 4853.90   8
  -5  -1  -8 47751.8 3636.63   8
  -1  -5  -8 47797.4 4395.61   8
  -5   1  -8 50108.3 3970.08   8
   5   1  -8 54010.6 4710.78   8
   1  -5   8 46477.4 3257.30   7
  -1  -5   8 49627.8 3142.66   7
   1  -5  -8 45289.3 4691.99   8
   1   5  -8 45780.4 3853.41   8
  -5  -1   8 46088.0 3118.94   1
  -1  -5   8 51769.5 3531.24   1
   5  -1   8 52422.9 3316.79   7
   1  -5   8 53423.5 3445.09   1
  -1   5  -8 50769.9 4033.79   8
   1   5   8 50194.4 3508.93   2
  -5   1   8 53746.3 2902.97   1
  -1   5   8 50888.1 3623.71   2
  -1   5  10 56109.2 4240.58   2
  -1  -5  10 60120.8 3600.55   7
   5   1 -10 57683.5 5592.82   8
  -1   5 -10 59404.7 4999.40   8
   1   5 -10 54443.9 4731.39   8
  -5   1 -10 57100.3 4752.44   8
  -5  -1 -10 58532.7 4636.79   8
   5   1  10 56631.7 3640.30   7
   1  -5  10 56988.3 3849.90   7
   1  -5 -10 60241.2 6073.41   8
  -5   1  10 53994.2 3281.06   1
   5  -1 -10 69484.2 6255.46   8
  -5  -1  10 58959.0 3897.35   1
  -1  -5  10 58768.6 4170.17   1
   1  -5  10 58592.1 4052.93   1
   5  -1  10 62473.8 3870.41   7
   1   5  10 51471.4 4055.88   2
  -1  -5 -10 54676.8 5267.95   8
  -1   5  12 54104.3 2307.51   5
  -5   1 -12 50183.0 4898.36   8
   1   5 -12 55862.4 5365.61   8
  -1   5 -12 52464.2 5223.82   8
  -1  -5 -12 55839.2 5843.73   8
   5   1  12 56953.3 3785.21   7
  -5  -1  12 55885.9 4141.32   1
  -5  -1 -12 55382.4 5056.20   8
   1  -5  12 57220.6 3967.28   7
  -1  -5  12 55566.4 4465.65   1
   5   1 -12 62936.6 6487.28   8
   5  -1 -12 52947.3 6148.94   8
  -1   5  12 54523.7 4619.92   2
   1   5  12 60635.3 4722.08   2
   1  -5  12 55312.6 4387.22   1
   5  -1  12 63667.8 4163.44   7
   1  -5 -12 48639.2 5909.64   8
  -1   5  14 60767.8 2600.65   5
  -5   1  14 64357.1 2770.32   5
   5  -1 -14 57155.6 6919.17   8
  -1   5 -14 56551.6 5860.49   8
   1   5 -14 59323.8 5898.33   8
  -5  -1 -14 54646.3 5388.16   8
   5   1 -14 58313.8 6687.80   8
   1  -5  14 61766.6 5111.46   1
  -1   5  14 59030.1 5120.96   2
  -5  -1  14 58239.1 4480.30   1
  -5   1 -14 55259.3 5462.07   8
   1   5  14 62796.6 2032.76   6
   1  -5 -14 58081.1 6814.98   8
  -1  -5  14 59198.0 5035.43   1
   1   5  14 52881.5 4789.73   2
  -1  -5 -14 55601.4 6474.91   8
   1   5  14 54429.3 2384.27   5
   1   5  16 23564.4 1594.47   5
  -5   1  16 22382.7 1710.91   5
   1   5  16 25885.3 1315.06   6
  -1   5  16 25453.0 1734.18   5
  -5  -1  16 26740.3 1878.71   5
  -5   1  18 26261.5 1835.97   5
  -5  -1  18 28532.8 1920.82   5
   1   5  18 26422.8 1643.50   5
  -1   5  18 26611.7 1701.59   5
   5   1  18 28436.3 1409.26   6
  -5   1  20 9208.63 1024.30   5
  -5  -1  20 10457.9 1113.59   5
   1   5  20 10460.1 915.083   5
   5   1  20 11371.9 775.232   6
  -1   5  20 9986.63 968.369   5
  -5   1  22 7461.33 756.377   5
  -5  -1  22 7213.14 767.332   5
   1  -5  22 7162.25 743.942   5
  -1  -5  22 6640.90 783.179   5
  -1   5  22 7284.27 672.386   5
   1   5  22 6484.14 582.166   5
  -5  -2   1 91781.2 3831.97   1
  -2   5   1 93638.7 3796.60   2
   2  -5  -1 94887.2 3651.34   7
  -5   2  -1 96053.9 3917.68   9
  -2  -5  -1 87953.9 3132.79   8
   5  -2  -1 92516.0 3150.73   7
  -5   2   1 95862.2 2594.22   2
  -2   5  -1 100572. 2912.66   9
   5  -2   1 94150.9 3488.61   7
   2  -5   1 92494.8 2595.19   1
  -5   2  -1 93161.4 2207.82   2
  -5  -2  -1 96200.4 4026.51   1
  -2  -5   1 96434.6 3940.75   7
  -2  -5  -1 96694.5 3810.61   1
  -2  -5   1 95098.4 3799.29   1
   2  -5   1 92239.5 3785.50   7
   5   2  -1 94494.3 3169.60   8
  -5   2   3 28299.0 1755.01   2
  -5  -2  -3 29622.6 2105.23   9
  -2   5   3 28357.4 2164.51   2
  -5   2   3 30511.2 1420.50   1
  -2  -5  -3 25044.3 2036.96   1
   2  -5   3 28636.4 2269.00   7
  -2  -5   3 25943.0 2156.48   1
  -5   2  -3 31102.5 2307.75   9
   5  -2  -3 30160.5 1603.27   7
   5  -2   3 30214.7 2186.13   7
   5   2   3 25247.6 997.756   2
   5   2  -3 28759.4 2197.06   8
   2   5   3 28409.1 2071.43   2
  -2  -5  -3 28760.4 2185.47   8
  -2  -5   3 30437.3 2261.47   7
  -5  -2   3 27517.8 2145.32   1
   2  -5   3 28185.0 1736.89   1
   2  -5  -3 31072.4 1989.84   7
  -5   2   5 3848.53 827.040   2
   5   2  -5 4473.83 1206.48   8
  -2  -5  -5 4092.50 1039.60   8
   5  -2   5 2298.64 762.949   7
   2  -5   5 2341.66 757.034   7
  -5  -2   5 3517.79 897.468   1
   5   2   5 4557.08 639.560   2
  -5  -2  -5 3408.55 847.630   9
   2  -5  -5 4045.41 700.996   7
  -5  -2  -5 4389.36 846.532   8
   2  -5   5 4246.08 852.842   1
   2   5  -5 3940.01 892.148   8
   2   5   5 4743.79 936.690   2
  -2   5   5 3113.30 806.313   2
  -2  -5   5 4305.77 1002.82   1
  -2  -5   5 3141.20 767.608   7
  -5   2   5 5132.40 663.752   1
  -5   2   7 6626.09 1230.22   2
   2   5   7 10248.9 1549.44   2
   2  -5   7 8048.50 1441.23   7
   2  -5  -7 8889.74 2178.87   8
  -2   5  -7 7332.49 1687.96   8
   5   2  -7 8078.00 1769.60   8
  -2  -5   7 10842.1 1609.27   1
   2  -5   7 9639.44 1380.11   1
   5  -2   7 9045.07 1461.06   7
   2   5  -7 7934.89 1441.08   8
  -2   5   7 8638.82 1502.31   2
   5  -2  -7 8445.12 2197.32   8
  -2  -5  -7 9006.88 1736.40   8
  -5  -2   7 9365.97 1438.58   1
  -2  -5   7 7323.26 1258.54   7
  -5   2  -7 7185.34 1489.29   8
  -5  -2  -7 7429.85 1336.82   8
  -5   2   9 1842.99 756.246   2
  -5  -2   9 3631.05 947.871   1
  -2   5  -9 2004.72 1076.25   8
   5  -2   9 2352.94 797.375   7
   5   2  -9 1971.81 1232.81   8
   2  -5   9 1896.35 768.784   7
  -5   2  -9 1961.67 988.096   8
   2  -5   9 3430.50 1046.75   1
   2   5  -9 4764.41 1368.46   8
  -2   5   9 2937.31 989.648   2
   2  -5  -9 3460.72 1662.52   8
  -2  -5  -9 1223.85 1027.55   8
  -5  -2  -9 1499.43 560.065   8
  -2  -5   9 3069.74 968.637   1
  -2  -5   9 1794.43 677.683   7
   5  -2  -9 2500.36 1515.40   8
   2   5   9 2536.16 914.650   2
   2   5  11 11977.2 1987.98   2
  -5  -2  11 7659.91 1582.70   1
  -5   2 -11 7062.67 1813.06   8
   2  -5  11 8724.58 1601.42   7
  -5   2  11 10314.2 1781.91   2
  -2  -5 -11 3319.07 1396.82   8
   5   2 -11 5055.13 1845.21   8
  -5  -2 -11 9664.97 2032.25   8
   2  -5 -11 15722.5 3348.06   8
   5  -2  11 11609.3 1769.46   7
   5   2  11 10695.3 1642.17   7
   2  -5  11 9271.45 1734.93   1
  -2   5  11 8812.04 1831.66   2
   2   5 -11 7002.25 1883.18   8
   5  -2 -11 11503.2 2883.16   8
  -2   5 -11 13167.9 2561.47   8
  -2  -5  11 11210.9 1975.99   1
  -2   5  13 4636.57 1390.35   2
   2   5  13 2068.44 982.099   2
  -5   2  13 1340.73 515.636   5
  -5  -2  13 1714.27 852.000   1
   2   5  13 1849.78 576.647   5
  -2   5  13 1552.65 550.005   5
   2   5  13 3164.16 551.612   6
   5  -2 -13-295.336 1207.30   8
   5  -2  13 1605.03 689.443   7
   2   5 -13-2377.94 1161.81   8
  -5   2 -13 915.745 838.908   8
  -5  -2 -13 4817.39 1598.50   8
  -2  -5 -13-977.759 1024.16   8
   5   2 -13-2376.12 1280.37   8
   2  -5  13 1760.88 647.917   1
  -2  -5  13 1083.97 659.966   1
   2  -5  13 3348.51 1010.53   7
  -2   5 -13 2035.27 1160.40   8
   2  -5 -13 8645.37 2646.92   8
   2   5  15 29090.8 1687.92   5
  -2   5  15 27425.0 1827.94   5
  -2   5  15 27745.2 3753.94   2
   5  -2 -15 28253.2 5343.07   8
   5   2 -15 24806.5 4479.67   8
   2   5 -15 25268.2 3935.88   8
  -2   5 -15 27075.4 4140.28   8
  -5   2  15 25981.3 1807.15   5
  -2  -5  15 29195.1 3696.63   1
  -5  -2 -15 27103.9 3858.96   8
  -5  -2  15 30158.2 3493.45   1
   2   5  15 29897.2 1461.60   6
   2  -5  15 24940.9 3338.93   1
   2   5  15 23592.4 3201.59   2
  -5   2 -15 31723.1 4473.13   8
   2  -5 -15 29463.8 5220.66   8
  -2  -5 -15 23404.1 4236.92   8
  -2   5  17 7368.08 1004.37   5
  -5   2  17 7560.23 1032.83   5
   2   5  17 7025.68 871.680   5
   5   2  17 8091.55 813.195   6
   2   5  17 8384.09 794.524   6
  -5  -2  17 8148.72 1090.61   5
   2   5  19 1592.91 450.298   5
  -2   5  19 1601.36 548.539   5
  -5  -2  19 1238.85 545.304   5
  -5   2  19 1792.43 582.109   5
   5   2  19 985.954 323.576   6
   2  -5  21 194.716 327.114   5
  -5  -2  21 18.9132 321.001   5
  -5   2  21-47.5598 346.579   5
  -2  -5  21 443.700 417.554   5
   2   5  21 890.532 271.988   5
  -2   5  21 181.252 304.686   5
  -2   5  23 105.389 193.429   5
  -5  -2  23 58.8525 181.800   5
  -2  -5  23 289.419 267.411   5
  -5   2  23 360.180 244.656   5
  -3  -5   0 30107.9 2357.24   1
   3  -5   0 29119.7 2124.26   7
   5  -3   0 30735.1 2041.57   7
  -3   5   0 31078.0 1838.61   9
  -5  -3   0 32828.1 2506.10   1
  -5   3   0 32930.3 1722.46   2
  -5   3   0 28594.4 2199.01   9
  -5   3  -2 5085.83 1029.45   9
  -5  -3   2 5548.77 1117.05   1
  -5  -3  -2 4769.23 1058.03   1
   3   5   2 6149.34 944.595   2
   5   3   2 5570.86 584.326   2
   3  -5  -2 5216.59 927.740   7
   5  -3  -2 5502.33 818.645   7
  -3  -5  -2 4113.48 1011.00   1
  -3  -5   2 3760.67 954.177   1
  -3   5   2 4726.11 945.998   2
  -5   3   2 4525.59 734.614   2
   3  -5   2 4549.24 1000.98   7
   3  -5   2 5413.18 664.468   1
   5  -3   2 4903.96 932.372   7
   3  -5  -4 46291.5 2358.82   7
  -5  -3  -4 46215.2 2671.55   9
   3  -5   4 40311.6 2237.18   1
   5  -3   4 48609.7 2991.01   7
   3   5   4 42844.8 2643.02   2
   5   3  -4 44789.0 2578.54   8
   5   3   4 44187.9 1968.82   2
  -3  -5  -4 46477.2 2573.30   8
   3  -5   4 46868.7 3027.60   7
  -3   5   4 38446.6 2630.64   2
  -3  -5   4 41541.4 3019.26   1
  -5  -3   4 41054.1 2908.14   1
  -5   3   4 44575.4 2560.41   2
   5  -3  -4 43675.8 1943.42   7
  -5  -3  -6 25067.3 2094.29   9
  -3  -5  -6 27010.3 2575.03   8
  -5  -3  -6 25849.7 2135.78   8
   3   5  -6 21747.5 1996.54   8
  -5   3   6 19625.5 1920.82   2
  -3  -5   6 21580.4 2073.11   7
  -5  -3   6 26231.6 2487.40   1
  -3   5   6 25379.6 2385.60   2
   5  -3  -6 27199.5 3714.43   8
   5   3   6 25995.8 1818.44   2
   3  -5   6 20733.0 1873.83   1
   3  -5  -6 24009.2 3487.30   8
   3  -5   6 25134.8 2382.85   7
   3   5   6 27787.0 2299.09   2
  -3  -5   6 25172.2 2488.82   1
   5   3  -6 26959.3 2670.04   8
   5  -3   6 26956.7 2421.53   7
  -3  -5   8 3707.90 1123.43   1
   5   3  -8 1202.38 815.347   8
   3  -5  -8 2698.08 1343.01   8
  -3  -5  -8 4022.42 1203.82   8
  -5  -3  -8 2054.80 842.650   8
   3   5  -8 760.618 678.478   8
   3  -5   8 2323.98 862.682   7
  -5   3   8 2520.42 862.120   2
   5  -3   8 2803.21 976.304   7
   3  -5   8 2206.83 803.177   1
  -5  -3   8 2113.31 817.261   1
   5   3   8 1052.52 564.672   2
  -3   5  -8 265.318 636.063   8
  -5   3  -8 1700.81 870.151   8
  -3   5   8 2520.84 859.799   2
   5  -3  -8 1593.61 1312.52   8
   3   5   8 3466.11 981.078   2
  -3  -5  10 4890.79 1277.08   1
  -5  -3  10 2717.53 1074.28   1
  -3  -5 -10-721.717 843.118   8
   5   3 -10 2367.57 1052.66   8
   5  -3 -10 1615.19 1573.97   8
  -5  -3 -10-1911.99 867.978   8
   3   5 -10 209.177 282.299   8
   3   5  10 1257.97 707.105   2
   3  -5  10 1126.98 566.292   7
  -3   5 -10 2750.62 1303.78   8
   3  -5  10 3350.29 997.845   1
   5  -3  10 3117.38 1019.05   7
   3  -5 -10 3102.02 1638.98   8
  -5   3 -10-583.269 728.936   8
  -5   3  10 885.700 594.097   2
  -3   5  10 1678.82 813.533   2
   3  -5 -12 5423.72 2247.69   8
   3   5  12 3362.36 1204.83   2
  -3   5  12 4712.03 748.321   5
  -3   5 -12 6331.82 1931.88   8
  -3  -5 -12 7054.53 2138.12   8
  -3   5  12 6166.64 1588.79   2
  -5  -3 -12 1959.30 1208.02   8
   3   5 -12-185.971 901.244   8
   5  -3  12 4185.28 1234.84   7
  -5   3 -12 4645.83 1573.86   8
   5   3  12 4777.58 1113.71   7
   5  -3 -12 4987.68 1976.66   8
  -5   3  12 4677.18 1354.85   2
   3  -5  12 5082.19 1373.66   1
  -5   3  12 4685.42 783.003   5
   3   5  12 4117.16 576.843   6
  -5  -3  12 3644.11 1229.21   1
   3  -5  12 4521.38 1253.94   7
  -3  -5  12 3907.31 1221.16   1
  -5  -3  14 2550.44 1070.19   1
   3   5  14 98.2113 581.113   2
  -3   5  14 828.658 434.017   5
   5  -3 -14-1512.59 1510.63   8
  -5   3 -14 3899.70 1470.18   8
   3  -5 -14 1520.02 1259.87   8
  -3   5 -14 1371.73 1178.87   8
   3  -5  14 3621.06 1078.71   1
  -3   5  14-725.461 566.911   2
   5  -3  14 1171.68 932.059   1
   5  -3  14 2468.35 1181.29   7
  -5   3  14 415.492 430.462   5
  -3  -5  14 764.994 687.732   1
   3   5  14 395.483 351.575   6
   5   3  14 876.251 362.267   6
  -3   5  16 19196.3 1534.84   5
  -5   3  16 22436.5 1673.70   5
   3   5  16 21175.5 1271.99   6
   5   3  16 21306.5 1291.34   6
  -3   5  18 2400.76 645.279   5
  -5   3  18 2217.13 593.815   5
  -5  -3  18 2063.14 603.229   5
   3   5  18 1202.36 384.019   6
   5   3  18 2677.72 520.801   6
  -5   3  20 219.256 348.606   5
   3  -5  20-572.874 374.048   5
  -3   5  20 502.194 356.770   5
  -5  -3  20 359.747 460.695   5
   5   3  20 58.2672 229.657   6
  -3   5  22 0.85591 240.534   5
  -5   3  22-118.428 237.292   5
  -5  -3 -22-105.282 130.971   4
  -5  -3  22-39.2048 284.394   5
  -3  -5  22 227.302 322.082   5
  -4  -5  -1 3910.83 950.332   1
  -5   4  -1 3670.96 763.327   9
  -5  -4  -1 4567.03 1041.63   1
   5  -4   1 2755.01 735.272   7
  -4   5  -1 4169.73 839.199   9
   5  -4  -1 3737.44 813.874   7
   4  -5  -1 3487.25 818.110   7
  -4  -5   1 3044.08 995.142   1
   4   5   1 4368.52 800.352   2
  -5   4  -1 3608.76 667.170   2
   5   4   1 4150.51 653.287   2
  -4   5   1 3122.16 769.263   2
  -5   4   1 3753.98 710.358   2
  -5  -4   1 2807.34 865.915   1
   4  -5   1 2620.00 713.167   7
   4  -5   3 16644.1 1289.02   1
   5  -4   3 18894.8 1935.46   7
   4  -5   3 17756.2 1938.82   7
   5  -4  -3 17977.9 1480.94   7
  -4  -5  -3 17347.1 2014.45   1
   4  -5  -3 18503.7 1634.21   7
   5   4   3 17099.7 1325.01   2
  -5   4   3 16721.6 1596.10   2
   4   5   3 17568.6 1604.60   2
  -5   4  -3 18669.2 1921.74   9
  -4  -5   3 17991.3 2041.02   1
  -4   5   3 17044.5 1766.16   2
  -5  -4   3 15847.8 1902.02   1
   5  -4   5 139491. 5564.15   7
   4  -5   5 131876. 5437.77   7
   4   5   5 126076. 4567.88   2
  -4   5   5 130176. 5189.35   2
  -5   4   5 130037. 4961.33   2
   5   4   5 128168. 4094.24   2
  -5  -4  -5 132528. 4528.72   9
   4  -5   5 134361. 4441.00   1
  -4  -5   5 136755. 5895.41   1
  -5  -4   5 127355. 5622.77   1
   4  -5   7 63335.3 3564.21   1
  -4   5   7 64435.8 4057.72   2
  -5   4   7 58508.2 3783.23   2
   4  -5  -7 69972.9 6497.33   8
   5   4   7 59279.5 3195.34   2
   4   5   7 62118.2 3655.34   2
  -4  -5   7 58454.3 4113.32   1
  -5  -4   7 66067.4 4322.68   1
  -5  -4  -7 62032.4 3359.27   9
   5  -4  -7 78506.1 6783.53   8
   5  -4   7 70311.4 4217.12   7
   4  -5   7 66168.0 4128.53   7
   4  -5   9 16132.5 2069.97   1
   5  -4   9 18467.7 2373.37   7
  -4   5   9 17410.3 2340.67   2
   4   5   9 18180.9 2217.94   2
  -5   4   9 19563.1 2418.96   2
  -5  -4   9 20032.3 2493.99   1
   4  -5  -9 18075.0 3571.16   8
   4  -5   9 23137.0 2665.40   7
  -4  -5   9 17726.8 2477.39   1
   5  -4  -9 17814.3 3705.52   8
  -4   5  11 29629.5 1722.30   5
   4  -5 -11 22586.0 4280.04   8
  -5   4  11 29557.5 1716.86   5
  -5   4 -11 29603.9 3797.16   8
   4  -5  11 26099.1 2964.67   1
  -5  -4  11 24049.6 3009.24   1
   5  -4  11 30235.1 3104.62   7
  -5   4  11 25822.2 3104.25   2
   4   5  11 29851.4 1447.68   6
  -4   5  11 22636.8 2913.88   2
   4  -5  11 31856.4 3243.18   7
   4   5  11 23735.6 2728.20   2
   5   4  11 28339.7 1400.58   6
  -4   5 -11 29083.9 3654.99   8
  -4  -5  11 27183.3 3198.81   1
   5  -4 -11 21476.8 4162.80   8
  -4   5  13 11813.2 1180.28   5
   4  -5  13 8587.09 1852.59   7
   5  -4 -13 6847.53 2747.61   8
  -4   5  13 12935.3 2345.51   2
   5  -4  13 19104.5 2577.95   7
  -4  -5  13 5678.25 1632.44   1
  -4   5 -13 14140.5 2830.79   8
   4  -5  13 14047.3 2386.55   1
   5  -4  13 13944.1 2293.68   1
  -5   4  13 10751.7 1155.82   5
  -5   4 -13 7278.03 1984.36   8
  -5  -4  13 12490.4 2283.23   1
   5   4  13 11356.4 968.808   6
  -5   4  13 10802.5 2083.34   2
   4   5  13 8785.14 1805.65   2
   4  -5 -13 15433.3 3775.76   8
   4   5  13 12394.6 971.248   6
  -5   4  15 2843.14 648.371   5
   4   5  15 3123.37 581.118   6
  -4   5  15 2657.53 613.019   5
   5   4  15 2990.13 554.425   6
  -5   4  17 1313.53 517.412   5
  -4   5  17 2042.20 599.800   5
   4   5  17 2236.09 481.894   6
   5   4  17 2379.09 513.001   6
  -5   4  19 12391.7 1117.02   5
  -4  -5 -19 12290.0 687.607   4
   4   5  19 13042.0 872.507   6
   5   4  19 13702.0 924.394   6
  -4   5  19 10247.7 1032.87   5
  -5  -4  19 12997.2 1254.21   5
  -5  -4  21 10641.0 964.343   5
  -4  -5  21 11377.7 1019.55   5
  -5  -4 -21 10224.1 535.443   4
   5   4  21 10470.0 626.905   6
  -5   4  21 10119.4 705.052   3
  -4   5  21 11064.7 883.517   5
  -5   4  21 10756.1 891.645   5
  -5  -4  23 4259.76 458.489   5
  -4  -5  23 3525.84 441.821   5
  -4   5  23 4577.24 434.074   5
  -5   4  23 4882.58 440.931   5
  -5  -5   0 41912.6 3233.32   1
   5  -5   0 45430.8 2844.53   7
  -5   5   0 43656.1 2654.35   2
  -5   5  -2 46122.4 3026.95   9
   5  -5   2 55121.9 3353.51   7
  -5  -5   2 49156.6 3482.20   1
   5   5   2 53233.4 2636.67   2
   5  -5  -2 53560.6 2938.91   7
  -5  -5  -2 54197.4 3693.40   1
  -5   5   2 51248.3 2982.63   2
  -5  -5   4 93290.8 5001.04   1
   5  -5   4 93416.7 3424.39   1
   5  -5  -4 94892.1 3626.74   7
   5  -5   4 100653. 4834.26   7
  -5   5   4 97627.0 4360.86   2
  -5   5  -4 100650. 4603.92   9
   5   5   4 88663.3 3585.87   2
   5  -5   6 525759. 9746.74   1
   5  -5   6 553256. 12036.4   7
  -5   5   6 526960. 11335.7   2
  -5  -5   6 537806. 12609.0   1
   5  -5   8 173033. 6440.35   1
  -5   5   8 171787. 7184.08   2
  -5  -5   8 172563. 7701.05   1
   5  -5   8 188633. 7512.88   7
   5  -5  -8 191335. 11498.9   8
  -5   5  10 106818. 3125.01   5
   5  -5  10 91713.0 5265.53   1
   5  -5  10 97993.3 5779.30   7
  -5  -5  10 99761.4 6228.76   1
   5   5  10 102143. 2640.20   6
  -5   5  10 94591.2 5804.52   2
   5  -5 -10 107482. 9271.38   8
  -5   5  12 48775.4 2265.92   5
   5  -5 -12 51627.2 7041.96   8
   5  -5  12 48480.7 4251.46   1
  -5   5  12 46137.4 4364.96   2
   5   5  12 49534.6 1945.74   6
  -5  -5  12 53487.0 4818.25   1
   5  -5  12 48555.5 4342.78   7
  -5   5  14 29921.2 1848.88   5
   5  -5  14 24399.2 3177.19   7
   5   5  14 28315.7 1511.20   6
  -5   5  16 2032.91 577.455   5
   5   5  16 1725.36 429.894   6
   5   5  18 52265.7 1841.57   6
  -5   5  18 51972.0 2269.40   5
  -5   5  20 51454.9 1947.69   5
  -5  -5 -20 48441.4 1225.64   4
  -5  -5  20 49613.1 2122.53   5
   5   5  20 48093.5 1473.43   6
  -5   5  20 49258.5 1679.68   3
  -5  -5  22 25374.4 1182.93   5
  -5   5  22 28565.8 1135.61   5
   0  -6   0 383328. 8255.57   7
   0  -6   0 386952. 6891.13   1
   0   6   2 122022. 4850.08   2
   0  -6  -2 136038. 4003.61   1
   0  -6   2 130720. 4974.01   7
   0  -6  -2 124772. 4703.83   7
   0  -6   2 131261. 4342.52   1
  -6   0  -2 133274. 4972.04   9
  -6   0   2 129949. 4295.73   1
   6   0  -4 266961. 9285.14   8
   0  -6   4 267365. 7417.47   7
   0  -6   4 265924. 6740.07   1
   0  -6  -4 271599. 9459.20   8
  -6   0   4 269758. 6305.10   1
  -6   0  -4 271402. 7290.55   9
   0   6   4 277556. 7428.46   2
   0  -6  -6 188071. 8687.81   8
   6   0  -6 198573. 8884.68   8
   6   0   6 203383. 6560.21   7
   0   6   6 203849. 6999.54   2
   0  -6   6 201957. 6501.93   1
  -6   0   6 206429. 5897.69   1
   0  -6   6 204557. 6853.38   7
  -6   0  -8 169236. 7048.45   8
   0  -6  -8 171279. 9080.64   8
   0   6  -8 164426. 7153.21   8
   6   0   8 171282. 6355.94   7
   6   0  -8 157398. 8735.02   8
  -6   0   8 167763. 5824.96   1
   0   6   8 170710. 6939.96   2
   0  -6   8 171718. 6634.54   1
   0  -6   8 173821. 6598.66   7
   0  -6 -10 86713.1 7068.68   8
  -6   0 -10 87455.6 5665.07   8
   6   0 -10 90343.6 7275.32   8
   0   6  10 95276.5 5724.45   2
   0  -6  10 92585.8 5019.74   7
   0  -6  10 96204.7 5496.58   1
   0   6 -10 86993.2 5877.85   8
   6   0  10 94682.6 5008.34   7
  -6   0  10 97704.7 4838.08   1
   0   6  12 194461. 4301.16   5
  -6   0  12 192031. 4448.92   5
   0  -6 -12 203495. 11779.6   8
   6   0 -12 208421. 12049.2   8
   0   6 -12 174216. 9313.54   8
   6   0  12 189693. 7595.97   7
   0  -6  12 191856. 8567.07   1
   0  -6  12 198549. 7568.32   7
   0   6  12 210084. 9233.70   2
   0   6  12 202111. 3518.33   6
  -6   0 -12 182959. 9116.56   8
   0  -6 -14 28701.3 4813.23   8
   6   0 -14 23486.4 4395.49   8
   0   6  14 30114.6 1822.35   5
  -6   0 -14 26781.7 3580.24   8
   0  -6  14 32397.0 3754.61   1
   0   6  14 31548.0 1437.75   6
   0   6  14 31411.0 3842.74   2
   0   6 -14 27275.4 4008.43   8
  -6   0  14 32547.1 1973.44   5
  -6   0  16 39705.5 2217.99   5
   0   6  16 38613.2 2021.76   5
  -6   0  18 31330.9 1929.85   5
   6   0  18 30801.8 1480.29   6
   0   6  18 31637.0 1747.96   5
  -6   0  20 49525.9 2136.73   5
   6   0  20 55818.0 1657.92   6
   0   6  20 49531.8 1900.78   5
  -6   0  22 21943.4 1145.12   5
   0  -6  22 21127.4 1218.30   5
   0   6  22 22823.4 1008.57   5
  -6  -1   1 108583. 4258.62   1
  -6   1  -1 100953. 4419.60   9
  -1  -6  -1 107095. 3961.49   1
   6  -1  -1 110139. 3760.01   7
   1  -6   1 96357.1 4247.08   7
  -1  -6   1 98298.4 4279.48   7
   1  -6  -1 107140. 3069.11   1
   1  -6  -1 104378. 4220.04   7
  -1  -6  -1 105271. 4383.69   7
  -1   6  -1 103088. 2498.43   9
   1  -6   1 102526. 3393.52   1
  -1  -6   1 101808. 4000.28   1
   6  -1   1 103017. 3949.85   7
  -6  -1   3 146944. 4983.45   1
   1   6   3 144525. 5203.86   2
   1  -6   3 139484. 5370.47   7
  -6   1   3 149172. 4190.11   1
  -6  -1  -3 145278. 5196.61   9
   6  -1   3 144081. 5002.79   7
  -1  -6   3 137441. 5183.39   7
   1  -6  -3 142705. 4863.94   7
   1  -6   3 136651. 4418.80   1
  -1  -6  -3 144267. 6003.04   8
   6  -1  -3 136188. 3827.11   7
  -6   1  -3 133767. 5266.31   9
   6   1  -3 140863. 5981.37   8
  -1  -6   3 138185. 4954.00   1
  -1   6   3 145372. 5384.54   2
  -6  -1  -5 53279.4 3254.73   9
  -1  -6  -5 55420.8 4208.69   8
   6   1  -5 54013.5 4192.13   8
   6  -1   5 53759.0 3284.91   7
   1  -6   5 54501.2 3530.74   7
  -6   1   5 62495.5 2807.97   1
  -1   6   5 57493.4 3546.03   2
   1  -6   5 49715.6 2924.29   1
   1  -6  -5 52501.5 4642.88   8
  -1  -6   5 55036.5 3384.29   1
   6  -1  -5 54342.1 4719.61   8
   1   6   5 55794.7 3501.07   2
  -6  -1   5 60300.5 3327.95   1
  -1  -6   5 54891.0 3416.60   7
  -6   1  -5 53987.3 3446.74   9
   1   6   7 54121.9 3673.62   2
  -6  -1  -7 38105.3 3044.63   8
   1   6  -7 45426.9 3381.59   8
   1  -6   7 43548.8 3378.69   7
   6  -1   7 46786.5 3298.90   7
   1  -6   7 48669.0 3289.65   1
  -1  -6   7 48446.5 3346.69   7
  -1  -6   7 45437.6 3382.90   1
  -1  -6  -7 48147.8 4249.38   8
   6   1  -7 51519.4 4586.43   8
   1  -6  -7 48436.6 4807.93   8
  -6  -1   7 46082.0 3187.11   1
  -6   1   7 50376.8 2758.04   1
   6  -1  -7 47303.7 4828.90   8
  -1   6   7 50230.4 3633.74   2
   6   1  -9 54497.0 5165.22   8
   1  -6  -9 60366.8 5876.61   8
   6  -1  -9 56385.6 5726.74   8
   1   6  -9 54114.0 4306.01   8
  -6   1  -9 55118.0 4398.52   8
  -1   6  -9 57008.3 4566.17   8
   6  -1   9 65147.8 4093.84   7
   6   1   9 61587.0 3879.64   7
   1  -6   9 59949.8 4148.24   7
  -1  -6   9 60083.6 3874.27   7
   1  -6   9 64520.4 4208.36   1
  -1   6   9 63488.6 4502.95   2
   1   6   9 60213.8 4339.47   2
  -1  -6   9 61888.8 4287.88   1
  -6  -1  -9 54064.3 4111.99   8
  -6  -1   9 62859.9 3989.41   1
  -1  -6  -9 52023.9 5057.71   8
  -1   6  11 54208.5 2282.29   5
   1  -6 -11 57153.1 6262.77   8
  -6  -1 -11 51082.7 4465.18   8
  -1  -6 -11 55724.4 5635.66   8
   1   6 -11 51156.1 4657.94   8
   6   1  11 56822.9 3940.81   7
   6  -1  11 53547.4 4062.10   7
  -1  -6  11 52708.5 3783.85   7
  -1  -6  11 57723.7 4557.84   1
  -6   1 -11 49058.9 4571.70   8
  -1   6 -11 55118.1 5003.23   8
  -1   6  11 57305.2 4648.86   2
   1   6  11 55494.7 4553.08   2
   6   1 -11 58989.9 5967.63   8
  -6  -1  11 51574.8 3905.84   1
   1  -6  11 52569.3 4213.06   1
   1  -6  11 53090.7 4075.69   7
   6  -1 -11 49899.0 5896.60   8
  -1   6  13 62526.2 2572.10   5
  -6   1  13 60590.5 2595.59   5
   1  -6 -13 59758.5 6839.82   8
  -6  -1 -13 54251.3 5070.67   8
   1   6 -13 59301.5 5607.18   8
  -1   6 -13 50703.9 5242.49   8
   1  -6  13 62984.1 5146.01   1
   6   1  13 57606.0 4137.53   7
  -1  -6 -13 48159.8 5730.65   8
  -1   6  13 65789.0 5514.69   2
   1   6  13 55584.2 4872.44   2
   6   1 -13 63071.4 6866.70   8
   1   6  13 60089.1 2010.84   6
   6  -1  13 59876.6 4396.89   7
  -1  -6  13 66220.9 5268.19   1
   6  -1 -13 63241.0 7142.44   8
  -6   1 -13 60627.2 5452.23   8
  -1   6  13 62050.8 1921.44   6
   1   6  13 57782.3 2371.00   5
  -1   6  15 20140.1 1512.68   5
  -6   1  15 19391.4 1562.11   5
   1   6  15 20095.1 1432.62   5
   1   6  15 20138.1 1199.80   6
  -6  -1  15 20353.7 1599.37   5
  -6   1  17 16265.6 1408.74   5
  -6  -1  17 14195.3 1372.76   5
   6   1  17 17962.2 1174.23   6
   1   6  17 17247.0 1056.98   6
   1   6  17 15422.5 1238.67   5
  -1   6  17 14810.6 1288.06   5
  -1   6  19 16230.6 1244.68   5
   6   1  19 16506.8 1025.84   6
  -6   1  19 13005.1 1190.78   5
   1   6  19 15669.5 1136.90   5
   6  -1  19 17040.9 1014.03   6
  -6   1  21 12727.4 991.346   5
  -6  -1  21 11867.6 988.874   5
  -1  -6  21 11974.5 1079.43   5
   1   6  21 13203.9 840.550   5
   1  -6  21 11462.5 999.437   5
  -1   6  21 12428.7 907.790   5
  -6  -1  23 5941.87 508.500   5
  -1  -6  23 5728.70 552.902   5
  -1   6  23 6187.87 455.910   5
  -1   6  23 6397.59 496.877   3
  -6   1  23 6544.73 525.681   5
   6  -2   0 26777.6 1970.22   7
  -6  -2   0 29236.4 2408.35   1
   2  -6   0 23142.7 2112.21   7
   2  -6   0 29328.7 1436.69   1
  -2  -6   0 27027.6 2190.67   1
  -6  -2   2 45076.5 2931.00   1
   6   2  -2 40949.5 2510.89   8
  -2  -6  -2 46511.0 2891.54   1
   2   6   2 43101.1 2773.94   2
   6  -2   2 43337.6 2717.72   7
   2  -6   2 38423.0 2804.15   7
  -6   2   2 46858.9 2019.07   2
   2  -6   2 44621.6 2201.41   1
  -2  -6  -2 38208.8 2546.65   8
   6  -2  -2 41962.2 2258.75   7
  -2  -6   2 38769.7 2832.12   7
  -2  -6   2 38831.5 2766.37   1
  -2   6   2 45171.5 2942.98   2
   2  -6  -2 43776.3 2680.14   7
  -6   2  -2 39824.6 2855.32   9
  -2  -6   4 6719.53 1217.40   7
   6   2  -4 6167.03 1283.22   8
  -2  -6   4 7793.81 1331.31   1
  -2  -6  -4 8026.45 1389.75   8
   6  -2   4 7553.37 1332.21   7
   6  -2  -4 7496.31 851.746   7
   2  -6   4 7242.22 1023.84   1
   2  -6  -4 6475.14 1076.09   7
   2  -6   4 5457.79 1221.34   7
  -6   2  -4 7114.06 1333.60   9
  -6   2   4 8788.48 1068.69   2
  -2   6   4 7695.93 1350.25   2
  -6  -2  -4 7341.38 1245.03   9
   2   6   4 7901.04 1301.97   2
  -6  -2   4 8010.40 1321.19   1
  -6   2   6 377.016 381.218   2
   6  -2  -6 3828.87 1432.16   8
   2  -6  -6 2696.16 1342.11   8
  -2  -6   6 404.677 472.386   1
   6   2  -6-522.780 642.788   8
   6  -2   6 526.279 559.746   7
   2  -6   6 991.013 689.665   7
  -2  -6   6 417.580 407.457   7
  -6  -2   6 1061.90 553.067   1
  -2  -6  -6 2098.82 845.998   8
  -6  -2  -6 528.458 529.054   9
   2  -6   6 881.471 533.276   1
   2   6   6-20.5566 258.806   2
  -2   6   6 1378.45 653.398   2
  -2  -6   8 2749.42 993.508   1
  -6   2   8 2065.23 738.900   2
  -6  -2   8 825.077 581.205   1
   6  -2   8 1081.77 665.978   7
   6  -2  -8-1610.61 1139.23   8
  -2  -6  -8-2219.54 972.413   8
   6   2  -8 2768.89 1351.30   8
  -6  -2  -8-90.8773 265.086   8
   2   6  -8 2144.25 906.671   8
   2  -6  -8 1402.19 1012.51   8
   2  -6   8 2458.19 937.688   7
  -2  -6   8 2424.14 822.477   7
   2  -6   8 70.7318 476.663   1
  -2   6   8 1800.16 831.109   2
   2   6   8 2894.21 907.331   2
  -6  -2  -8 1168.32 613.475   9
   2  -6 -10 2115.23 1469.72   8
   6  -2 -10 5700.25 2010.00   8
  -2  -6 -10 5629.42 1771.47   8
   2  -6  10 4367.01 1260.94   7
   2   6 -10 4882.79 1343.98   8
  -6  -2 -10 3356.29 1073.28   8
  -6  -2  10 5869.30 1362.35   1
   6  -2  10 6041.55 1368.16   7
   6   2  10 3870.45 1062.02   7
  -2  -6  10 3147.76 941.261   7
  -6   2 -10 6054.92 1554.11   8
  -2   6 -10 1181.12 993.475   8
   2  -6  10 5067.65 1259.37   1
   6   2 -10 5444.56 1770.43   8
  -2   6  10 5504.70 1424.41   2
   2   6  10 3816.56 1249.69   2
  -2  -6  10 5534.37 1425.76   1
  -2   6  12-2319.16 1063.95   2
   2   6  12-162.347 453.246   2
   2   6  12-483.153 384.833   5
  -2   6  12 510.727 419.123   5
   2  -6  12-712.280 638.746   7
   2  -6 -12 2216.29 1500.96   8
  -2  -6 -12-1875.78 1330.17   8
  -6  -2  12 1864.04 832.538   1
   2   6 -12 83.3321 568.784   8
  -6   2 -12-4247.22 1571.52   8
  -2   6 -12-2502.28 1420.57   8
  -6   2  12 630.612 329.888   5
   6   2  12-429.729 491.859   7
   2  -6  12 806.890 767.423   1
   6  -2  12-752.007 554.674   7
  -6  -2 -12-1921.49 983.443   8
   6  -2 -12-1924.38 1599.73   8
   6   2 -12 7494.80 2171.15   8
   2   6  12 472.358 346.660   6
  -2  -6  12 409.468 648.190   1
  -2   6  14 27870.0 1780.53   5
  -6   2  14 26514.4 1778.38   5
   6  -2 -14 29198.6 5160.52   8
   2  -6 -14 26743.7 4862.66   8
  -6   2 -14 20636.6 3379.01   8
  -2  -6  14 31501.4 3834.92   1
   2   6  14 31216.0 3685.61   2
   2   6  14 27691.1 1428.21   6
  -6  -2  14 31341.4 3548.10   1
  -2   6  14 28794.5 3643.07   2
   6  -2  14 28316.8 3124.52   7
   2  -6  14 20391.3 2938.03   1
  -2   6 -14 25536.7 3852.95   8
   2   6  14 24700.5 1540.40   5
   2   6  16 1630.28 507.571   5
  -2   6  16 1059.01 502.972   5
  -6   2  16 1359.08 568.515   5
  -6  -2  16 1178.73 514.874   5
   2   6  16 1391.05 417.746   6
   6   2  16 1516.80 488.719   6
  -2   6  18 1514.38 534.695   5
  -6   2  18 1046.80 510.175   5
   2   6  18 806.752 335.313   6
   6   2  18 725.869 366.745   6
   2   6  18 708.636 385.982   5
  -6  -2  18 935.581 487.652   5
  -2   6  20 471.324 357.804   5
  -6   2  20 1037.55 402.825   5
  -6  -2  20 1314.68 499.199   5
   2   6  20 681.505 274.544   5
   6   2  20 1156.62 315.585   6
  -6   2  22 85.5625 238.071   5
  -6  -2  22 842.695 312.197   5
  -6  -2 -22 46.0613 133.769   4
   2  -6  22 277.016 222.138   5
  -2   6  22-256.562 220.710   5
  -2  -6  22 197.170 319.653   5
  -3  -6  -1 14968.6 1811.48   1
  -3   6  -1 12749.0 1292.22   9
   3   6   1 13191.2 1554.23   2
  -6  -3   1 12757.8 1744.78   1
  -3   6   1 12785.8 1586.20   2
  -6  -3  -1 12519.2 1774.39   1
   6  -3   1 14186.6 1575.82   7
   6  -3  -1 14256.2 1466.94   7
  -6   3  -1 13819.2 1059.02   2
  -6   3  -1 11042.8 1611.38   9
   3  -6  -1 10901.9 1426.70   7
  -6   3   1 14602.0 1214.85   2
   3  -6   1 13625.0 1711.91   7
  -3  -6   1 12538.6 1674.46   1
  -6   3  -3 16174.0 1933.78   9
   3  -6   3 16007.7 1983.45   7
  -3   6   3 13182.5 1712.65   2
   6  -3  -3 13790.1 1266.71   7
   3  -6   3 16426.9 1376.28   1
   3  -6  -3 17311.6 1712.75   7
  -6   3   3 17462.0 1520.04   2
   3   6   3 16267.5 1788.44   2
  -3  -6   3 16750.6 1987.96   1
   6  -3   3 16751.3 1829.78   7
  -3  -6  -3 16096.8 2001.97   1
  -6  -3   3 15159.1 1922.59   1
  -6  -3  -5 2815.74 837.941   9
  -3  -6   5 4452.03 1102.36   1
   3  -6   5 2126.00 1024.11   7
   3  -6  -5 4374.84 830.446   7
  -6   3  -5 3479.39 954.752   9
  -6  -3   5 2504.54 842.551   1
   6  -3   5 2199.80 830.800   7
   3  -6   5 3906.68 827.431   1
   3   6   5 3910.48 1017.76   2
  -3   6   5 3002.39 874.244   2
  -6   3   5 4749.98 933.679   2
  -6   3   7 1411.15 668.642   2
   3  -6   7 1772.33 829.649   7
  -3  -6   7 1979.56 865.245   1
  -6  -3  -7 4144.67 986.339   9
   6  -3   7 2167.49 860.514   7
   3   6   7 2719.74 886.051   2
   6  -3  -7 2167.04 1504.83   8
   3  -6  -7 3102.14 1686.30   8
   3  -6   7 2930.97 805.216   1
  -6  -3   7 2106.60 888.142   1
  -3   6   7 1591.43 637.665   2
  -6   3   9 626.307 583.461   2
  -3  -6   9 1249.48 738.272   1
   3  -6  -9 1191.13 887.441   8
   6  -3  -9-539.951 1095.53   8
   6  -3   9 1746.92 838.163   7
   3  -6   9 97.3477 375.717   7
  -6  -3   9 937.973 783.510   1
   3  -6   9 465.244 478.363   1
  -6  -3  -9 976.782 636.843   9
  -3   6   9-311.084 452.259   2
   3   6   9-4.56895 831.631   2
   6   3  11-1508.54 785.806   7
  -6   3  11 67.2512 460.787   2
  -3   6  11 573.206 350.536   5
  -6   3  11 690.111 390.998   5
   3   6  11 1002.04 765.171   2
   6  -3 -11-613.468 829.463   8
   6  -3  11-228.266 493.323   7
   3  -6  11 38.1445 500.437   7
  -3  -6  11 3687.87 1220.02   1
  -6  -3 -11-873.413 579.194   9
  -6  -3  11 1785.84 871.103   1
  -3   6  11 253.170 583.812   2
   3  -6  11 827.829 611.242   1
   3  -6 -11-497.961 1024.44   8
   3   6  11 833.932 357.858   6
  -3   6  13 937.753 856.181   2
   3   6  13-1562.17 1023.29   2
   3  -6 -13 5494.38 2278.78   8
  -3   6  13-409.366 458.385   5
  -6   3  13 549.278 500.824   5
   3  -6  13 1103.02 738.285   1
  -6  -3  13 945.185 772.684   1
   3  -6  13 3312.86 1138.92   7
   6  -3 -13 298.027 1219.57   8
   6  -3  13-2890.53 1077.95   7
  -3  -6  13-460.044 593.348   1
   3   6  13 597.531 395.594   6
  -6   3  15 11526.0 1180.52   5
   3   6  15 11339.9 962.700   6
  -3   6  15 12446.3 1241.56   5
   6   3  15 11772.9 997.587   6
  -3   6  17-87.3412 467.219   5
  -6   3  17 88.7738 390.548   5
  -6  -3  17 540.411 441.603   5
   3   6  17 415.897 317.560   6
   6   3  17 322.717 312.918   6
  -3   6  19 1205.72 449.580   5
  -6   3  19 483.587 332.546   5
  -6  -3  19 998.513 470.652   5
   3   6  19 806.978 288.186   6
   6   3  19 856.815 324.156   6
  -3   6  21 1182.92 382.829   5
  -6   3  21 1282.64 356.828   5
  -3  -6  21 737.393 388.290   5
  -6  -3 -21 878.209 196.200   4
  -6  -3  21 1092.66 404.279   5
   6   3  21 688.000 213.947   6
   3  -6  21 581.878 282.803   5
  -3  -6  23 206.292 197.561   5
  -3   6  23 185.522 144.603   5
  -4  -6   0 10557.8 1620.76   1
  -6  -4   0 8041.62 1543.12   1
  -4   6   0 8958.17 1330.01   2
   6  -4   0 10461.6 1365.24   7
  -6   4   0 10201.7 1116.96   2
   4  -6   0 9763.45 1463.25   7
  -4   6  -2 10623.8 1385.20   9
  -6  -4   2 10838.5 1687.24   1
  -6   4  -2 11466.4 1184.73   2
  -4  -6  -2 11190.5 1712.07   1
   4   6   2 6977.61 1156.97   2
  -4   6   2 10707.8 1485.89   2
   6  -4   2 12108.4 1611.39   7
   4  -6   2 10356.8 1586.16   7
   4  -6  -2 9797.45 1372.45   7
  -6   4   2 12465.2 1332.77   2
   6  -4  -2 8707.55 1156.28   7
  -6   4  -2 11047.0 1611.85   9
  -6  -4  -2 9034.50 1631.98   1
  -4  -6   2 11125.1 1666.84   1
  -6   4   4 39077.1 2653.74   2
   6  -4   4 41392.5 3117.84   7
   4  -6   4 42846.2 3265.79   7
   4   6   4 37926.6 2704.89   2
  -4   6   4 36231.1 2861.89   2
   4  -6  -4 38984.4 2497.99   7
  -6   4  -4 38822.6 3093.64   9
   4  -6   4 37568.4 2223.72   1
  -4  -6   4 39556.0 3274.54   1
  -6  -4   4 42701.2 3349.29   1
   4  -6   6 63611.1 3401.57   1
   6  -4   6 68708.0 4303.54   7
  -4   6   6 67483.6 4191.95   2
   4   6   6 67137.4 3808.98   2
  -6  -4  -6 56169.1 3351.75   9
  -6   4   6 65454.1 3811.78   2
   4  -6   6 68557.7 4394.26   7
  -4  -6   6 64211.7 4488.29   1
  -6  -4   6 70196.9 4567.18   1
  -6  -4  -8 44956.8 3230.56   9
   4  -6  -8 45910.4 5693.41   8
   6  -4  -8 52073.7 5996.60   8
   4  -6   8 45850.5 3360.92   1
   4  -6   8 51036.1 4072.59   7
   6  -4   8 53693.4 4047.32   7
  -4   6   8 49456.4 3984.97   2
   4   6   8 44083.4 3475.85   2
  -6   4   8 46405.0 3617.43   2
  -4  -6   8 50794.5 4287.96   1
  -6  -4   8 49661.6 4051.88   1
  -6   4  10 19358.9 1314.11   5
   4  -6 -10 23602.4 4396.28   8
   4  -6  10 18604.4 2441.88   1
   6  -4  10 19693.2 2579.11   7
   6  -4 -10 18572.9 3907.26   8
  -4   6  10 17974.9 2579.54   2
   4   6  10 20055.2 2532.40   2
   4  -6  10 20226.2 2776.37   7
  -6   4  10 20079.2 2648.05   2
  -4  -6  10 22153.7 2955.38   1
   4   6  10 22923.8 1270.34   6
  -6  -4  10 16914.0 2528.62   1
  -4   6  10 20681.6 1413.33   5
  -6   4  12 5879.43 845.730   5
  -4   6  12 7439.13 1773.84   2
   4   6  12 8417.80 1802.19   2
   6  -4  12 7162.77 1700.78   1
   6  -4 -12 8923.36 2868.19   8
  -4  -6  12 5500.64 1612.98   1
  -6  -4  12 7287.52 1730.54   1
   6   4  12 6607.33 1391.78   7
   4  -6  12 8542.35 1872.72   7
   6  -4  12 7553.15 1692.12   7
   4  -6  12 5994.23 1631.63   1
   4   6  12 7062.79 776.018   6
   6   4  12 5735.21 699.642   6
  -6   4  12 5581.05 1521.56   2
   4  -6 -12 7228.65 2614.11   8
  -4   6  12 6532.87 900.996   5
  -4   6  14 1911.67 553.475   5
  -6   4  14 1790.97 562.575   5
   6  -4  14 2470.75 1122.29   7
   4   6  14 3079.76 571.899   6
   6   4  14 1956.81 504.911   6
  -6   4  16 13195.2 1247.67   5
  -4  -6 -16 14920.0 857.178   4
   4   6  16 12875.5 1017.68   6
   6   4  16 13614.4 1063.65   6
  -4   6  16 14398.4 1295.29   5
  -6   4  18 3295.60 644.688   5
  -6  -4  18 2515.53 647.686   5
  -4  -6 -18 3533.86 394.195   4
   4   6  18 2161.08 431.587   6
   6   4  18 3238.73 523.950   6
  -4   6  18 4455.73 744.736   5
  -6  -4  20 6470.31 787.290   5
  -4  -6  20 7558.13 906.998   5
  -6  -4 -20 7274.75 511.540   4
  -4   6  20 8512.45 833.297   5
   4   6  20 7383.89 570.772   6
   6   4  20 6521.82 573.228   6
  -6   4  20 6863.81 731.902   5
  -6   4  22 2826.93 380.858   5
  -6  -4  22 2336.24 372.421   5
  -4  -6  22 2457.35 427.379   5
  -4   6  22 2801.49 343.811   3
  -4   6  22 2995.35 394.119   5
  -5  -6   1 53183.2 3830.59   1
  -6   5  -1 51566.8 3421.62   9
  -5  -6  -1 56909.7 3980.99   1
  -6  -5  -1 54125.4 4000.02   1
  -5   6  -1 55553.9 3307.01   2
   5   6   1 53557.1 3050.45   2
   5  -6  -1 51211.7 3272.17   7
  -6   5  -1 54672.4 2922.09   2
  -5   6   1 53341.5 3289.60   2
   6  -5   1 49823.3 3248.21   7
   6  -5  -1 52985.5 3140.37   7
  -6   5   1 56231.9 3020.91   2
  -5   6  -1 46481.4 3006.09   9
   5  -6   1 53003.5 3472.72   7
  -6  -5   1 53639.5 3887.24   1
  -5   6   3 79909.2 4150.18   2
   5  -6   3 80381.6 4511.35   7
   6  -5  -3 63810.7 3259.26   7
   5   6   3 67997.4 3406.12   2
   5  -6  -3 75882.3 3750.62   7
  -6  -5   3 77969.4 4729.96   1
   6  -5   3 76964.2 4318.51   7
  -5   6  -3 76427.7 4044.69   9
  -6   5  -3 80850.6 4421.59   9
  -6   5   3 78518.1 3831.25   2
  -5  -6   3 74715.0 4633.96   1
  -5   6  -5 153165. 6110.56   9
   6  -5   5 159512. 6649.32   7
   5  -6   5 161475. 6766.57   7
  -5   6   5 157928. 6259.75   2
   5   6   5 157571. 5501.50   2
  -6   5  -5 161257. 6553.77   9
  -6   5   5 152767. 5919.47   2
  -5  -6   5 162305. 7093.62   1
  -6  -5   5 161487. 7060.16   1
   5  -6  -7 233808. 13025.4   8
   6  -5   7 221102. 6956.14   1
   5  -6   7 212550. 6798.96   1
   6  -5   7 237781. 8598.47   7
   5  -6   7 234196. 8736.19   7
  -5   6   7 235321. 8427.86   2
  -6   5   7 229391. 8015.39   2
   6  -5  -7 247166. 13288.5   8
  -5  -6   7 236332. 9090.11   1
  -6  -5   7 234057. 8945.52   1
   6  -5  -9 141144. 10691.3   8
   6  -5   9 125459. 5999.95   1
   5  -6   9 124675. 5940.70   1
   5  -6   9 139837. 7152.70   7
   6  -5   9 140493. 7043.50   7
  -5   6   9 138418. 7070.71   2
  -6   5   9 137259. 6746.19   2
   5   6   9 138849. 3092.77   6
   6   5   9 141207. 3120.16   6
  -5  -6   9 127493. 7175.13   1
   5  -6  -9 132200. 10293.2   8
  -6  -5   9 128594. 7076.08   1
  -5   6   9 142382. 3533.71   5
  -6   5   9 139713. 3411.07   5
  -6   5  11 47290.6 2148.68   5
   6  -5 -11 48489.3 6688.17   8
   6  -5  11 45046.1 3948.79   1
   5  -6  11 44321.1 3927.86   1
   5  -6 -11 51553.4 6788.91   8
  -6   5  11 43366.4 4081.35   2
   5  -6  11 50765.1 4561.08   7
   6  -5  11 50493.4 4479.47   7
   5   6  11 51438.1 1978.28   6
  -5  -6  11 45892.6 4615.39   1
   6   5  11 47650.4 1895.36   6
  -5   6  11 47807.2 4481.39   2
  -6  -5  11 47470.6 4502.73   1
  -5   6  11 51633.5 2290.84   5
  -6   5  13 29289.1 1787.13   5
  -5   6  13 22626.3 3238.76   2
   5  -6 -13 32458.3 5672.38   8
   5  -6  13 30282.4 3687.16   7
  -6  -5  13 23909.6 3291.24   1
   6  -5  13 23322.2 3061.25   1
   6  -5  13 23962.2 3155.20   7
   5  -6  13 29326.8 3449.63   1
   5   6  13 30200.1 1564.51   6
  -5  -6  13 31255.6 3906.99   1
   6   5  13 29283.8 1557.00   6
  -6   5  13 26755.9 3435.08   2
  -5   6  13 28282.3 1761.67   5
   5   6  15 10555.4 957.356   6
   6   5  15 11191.9 980.550   6
  -5   6  15 9908.32 1051.30   5
  -6   5  15 10837.7 1105.58   5
  -5  -6 -17 28747.1 1167.26   4
   6   5  17 29447.6 1458.87   6
   5   6  17 28383.1 1419.11   6
  -5   6  17 30212.9 1744.47   5
  -6   5  17 29713.6 1718.16   5
  -6   5  19 35896.6 1667.46   5
  -5  -6 -19 36150.7 1113.73   4
  -6  -5  19 36767.8 1844.88   5
   5   6  19 35191.1 1358.17   6
   6   5  19 33441.3 1347.08   6
  -6   5  19 35905.4 1414.86   3
  -5   6  19 35068.6 1508.44   3
  -6  -5 -19 36943.2 1177.89   4
  -5   6  19 37571.6 1717.19   5
  -6  -5  21 24492.3 1207.30   5
  -6  -5 -21 24260.6 730.153   4
  -5  -6  21 24891.7 1263.29   5
  -6   5  21 28637.9 1195.42   5
   5   6  21 24469.7 816.936   6
   6   5  21 24693.7 865.345   6
  -5   6  21 25167.8 992.549   3
  -5   6  21 29817.4 1232.65   5
  -6  -6   0 77412.7 4963.71   1
   6  -6   0 73152.7 4154.94   7
  -6   6   0 72742.2 3759.52   2
  -6   6  -2 68308.3 4073.58   9
  -6  -6   2 68747.1 4654.21   1
  -6   6  -2 66545.4 3631.88   2
  -6  -6  -2 65292.8 4607.36   1
   6  -6  -2 60838.4 3605.87   7
  -6   6   2 70085.3 3839.02   2
   6  -6   2 62922.9 4052.14   7
   6  -6   4 111564. 5735.43   7
  -6   6   4 110442. 5145.42   2
  -6   6  -4 106217. 5362.83   9
  -6  -6   4 112161. 6185.41   1
  -6   6   6 93797.6 5169.32   2
  -6   6  -6 90026.4 5197.20   9
  -6  -6   6 92879.6 5771.76   1
   6  -6   6 98910.1 5771.32   7
   6  -6  -8 139322. 10717.7   8
  -6   6   8 152574. 7173.46   2
   6  -6   8 145294. 7335.81   7
   6   6   8 139978. 3153.47   6
  -6  -6   8 160123. 8012.15   1
  -6   6   8 156567. 3365.84   3
  -6  -6  -8 159438. 2815.23   4
  -6   6   8 142480. 3402.36   5
   6  -6  10 67301.3 5230.27   7
   6  -6 -10 74390.5 8369.38   8
  -6   6  10 63034.4 4960.82   2
   6   6  10 63834.5 2230.70   6
  -6  -6  10 64870.5 5376.83   1
  -6   6  10 66598.9 2324.18   3
  -6   6  10 66074.5 2484.40   5
  -6   6  12 38773.9 4058.03   2
   6  -6 -12 39521.1 6750.69   8
   6  -6  12 38741.3 4165.85   7
   6   6  12 39806.0 1828.97   6
  -6  -6  12 42263.3 4465.07   1
  -6   6  12 39277.5 2018.63   5
   6   6  14 26033.3 1469.45   6
  -6   6  14 22935.1 1443.71   3
  -6   6  14 24935.7 1622.46   5
  -6   6  16 11142.0 1089.78   5
   6   6  16 10649.8 925.849   6
  -6  -6 -16 11350.7 782.619   4
  -6   6  16 11484.4 989.995   3
  -6  -6 -18 28500.0 1068.95   4
   6   6  18 26793.1 1263.96   6
  -6   6  18 28212.8 1332.76   3
  -6   6  18 26753.9 1474.97   5
  -6  -6  20 23832.4 1266.51   5
   6   6  20 24230.0 963.167   6
  -6  -6 -20 25246.3 803.587   4
  -6   6  20 24467.9 990.027   3
   0  -7  -1 9085.58 1187.90   1
   0  -7   1 6902.91 1276.66   7
   0   7   1 9502.04 1494.10   2
  -7   0   1 10838.1 1418.41   1
   0  -7  -1 8202.11 1435.61   7
   0  -7   1 11469.2 1348.36   1
  -7   0  -3 18408.1 2188.24   9
  -7   0   3 21279.6 1940.97   1
   0  -7   3 20100.9 2233.99   7
   0   7   3 23050.5 2347.43   2
   7   0  -5 72422.8 5497.32   8
  -7   0   5 81228.5 3831.94   1
   0  -7  -5 69879.9 5333.30   8
   7   0   5 77951.6 4222.74   7
   0   7   5 83296.1 4621.62   2
   0  -7   5 73417.6 4363.39   7
   0  -7   5 72511.6 4037.69   1
  -7   0  -5 74607.1 4393.95   9
  -7   0  -7 34677.0 3091.47   9
   7   0   7 35098.0 3033.61   7
   0  -7   7 34308.8 3121.29   7
   0  -7  -7 37852.0 4220.78   8
   0  -7   7 33186.5 3035.98   1
   0   7   7 37504.2 3327.62   2
   7   0  -7 35813.2 4147.51   8
  -7   0   7 34583.8 2648.95   1
   0  -7  -9 39370.3 5047.43   8
   7   0  -9 40773.4 4925.99   8
   7   0   9 39717.3 3451.59   7
   0   7   9 44454.5 3957.27   2
   0  -7   9 39336.3 3597.53   1
   0  -7   9 39108.6 3415.18   7
  -7   0  -9 37005.0 3454.32   9
   0  -7 -11 46788.5 5512.69   8
   7   0 -11 49734.2 5877.13   8
   7   0  11 58480.3 4330.59   7
   0  -7  11 48486.7 3904.00   7
   0  -7  11 53472.4 4527.88   1
   0   7  11 56337.2 4862.64   2
   0   7  11 56116.9 1884.12   6
   0   7  11 52931.3 2234.73   5
   0   7  13 4083.56 1287.81   2
   0   7  13 3548.04 663.894   5
  -7   0  13 4517.79 689.225   5
   0  -7 -13-1080.07 999.047   8
   7   0 -13-190.124 1059.05   8
  -7   0 -13 6410.55 1755.86   8
   0   7 -13 1279.31 909.583   8
   0  -7  13 3638.98 1435.44   1
   0   7  13 3830.95 564.199   6
   7   0  13 5183.75 1370.67   7
  -7   0  15 9971.37 1116.72   5
   0   7  15 12168.2 922.015   6
   0   7  15 10972.6 1089.22   5
  -7   0  17 6405.28 908.948   5
   0   7  17 6339.38 849.388   5
  -7   0  19 7357.99 869.622   5
   7   0  19 7955.46 699.264   6
   0   7  19 6696.18 767.389   5
  -7   0  21 14545.3 952.344   5
   7   0  21 13471.7 687.529   6
   0   7  21 13508.7 825.810   5
   1  -7   0 505.101 366.827   1
   7  -1   0 1417.60 629.977   7
   1  -7   0 2989.54 891.343   7
  -1  -7   0 1850.37 789.904   7
  -1  -7   0 999.392 480.715   1
  -7  -1   0 874.305 550.506   1
  -1  -7  -2 3745.14 848.916   1
  -7  -1   2 2412.02 762.946   1
   7  -1  -2 1453.26 551.057   7
   7  -1   2 2848.72 871.903   7
   1  -7   2 2594.11 990.134   7
   1  -7  -2 2519.86 881.202   7
  -1  -7   2 3426.60 985.816   7
  -7   1  -2 2166.94 974.140   9
  -1  -7   2 3043.57 812.182   1
   1   7   2 3114.70 909.404   2
  -1   7   2 2526.53 808.194   2
   1  -7   2 2568.24 668.621   1
  -7  -1   4 9755.33 1520.68   1
  -7  -1  -4 8328.01 1493.24   9
  -7   1  -4 9456.16 1674.98   9
  -1   7   4 10239.0 1671.21   2
   7  -1  -4 10574.5 1146.42   7
   1   7   4 11671.1 1671.91   2
  -1  -7  -4 10954.2 1911.05   8
  -1  -7   4 10221.7 1722.97   7
   7  -1   4 9348.86 1493.07   7
   1  -7   4 7999.06 1531.58   7
   1  -7   4 9467.67 1287.75   1
  -7   1   4 14352.6 1457.82   1
  -1  -7   4 10978.6 1633.29   1
   7   1  -4 8636.90 1777.92   8
  -7  -1  -6 3046.19 979.268   9
   7   1  -6 2762.70 1023.96   8
  -1  -7   6 2445.77 916.299   1
   7  -1  -6 2572.76 1383.08   8
  -1  -7  -6 2159.83 965.356   8
   1  -7  -6 1983.83 1087.23   8
  -1  -7   6 1678.15 771.982   7
   7  -1   6 3189.18 962.845   7
   1   7   6 3358.00 1015.78   2
  -1   7   6 2680.39 923.609   2
   1  -7   6 2769.38 1017.28   7
  -7   1  -6 2288.38 905.028   9
   1  -7   6 1505.97 636.270   1
  -7  -1   6 2433.13 804.648   1
  -1  -7   8 7407.39 1537.62   1
  -1  -7  -8 7122.24 1846.86   8
  -7  -1  -8 4720.10 1219.57   9
  -7   1  -8 6242.99 1421.76   9
   7  -1  -8 354.328 1051.14   8
   7   1  -8 3920.48 1430.82   8
   1  -7  -8 5014.99 1764.13   8
   7  -1   8 5149.18 1278.27   7
   7   1   8 5601.11 1267.50   7
  -1  -7   8 6203.30 1335.53   7
  -7  -1   8 4398.93 1065.25   1
   1  -7   8 6934.59 1491.59   7
   1  -7   8 6931.51 1452.48   1
  -1   7   8 6336.23 1489.48   2
   1   7   8 7265.89 1537.01   2
  -1  -7  10 5653.13 1489.78   1
   1  -7 -10 7107.70 2183.16   8
  -1  -7  10 4589.37 1243.21   7
  -1  -7 -10 1643.59 961.028   8
   7   1 -10 9872.11 2456.04   8
   1   7  10 5582.77 649.604   6
   7   1  10 6174.03 1382.94   7
   7  -1  10 3131.23 1060.44   7
   1  -7  10 5204.68 1332.39   7
  -7  -1  10 6670.94 1378.89   1
  -1   7  10 6128.89 626.472   6
  -7  -1 -10 5017.07 1298.80   9
   7  -1 -10 6792.42 2135.88   8
   1  -7  10 3277.05 1182.64   1
  -1   7  10 6461.21 1702.58   2
   1   7  10 6305.44 1592.82   2
  -1   7  10 5762.51 787.021   5
   1   7  12 540.387 359.384   5
  -1   7  12 740.698 423.528   5
   7  -1 -12 2777.73 1825.77   8
  -7  -1  12 1752.82 532.935   5
   1  -7  12 1023.34 714.639   7
  -7   1  12 1038.22 422.327   5
   1   7 -12-1315.37 862.596   8
   7  -1  12 2933.61 1059.45   7
  -7  -1 -12 1255.84 895.352   9
   7   1  12 983.868 602.463   7
   1  -7 -12 1181.09 975.997   8
  -1   7  12 1088.81 368.378   6
   1  -7  12 618.040 580.954   1
   1   7  12 1580.52 413.362   6
  -1   7  12-1186.03 932.659   2
  -1  -7  12 1441.17 844.104   1
   1   7  12-2883.66 1353.97   2
   1   7  14 44.3494 315.494   5
  -1   7  14 1075.00 457.473   5
  -7   1  14 612.036 449.296   5
  -7  -1  14 456.436 411.049   5
  -1   7  14 538.714 359.059   6
   1   7  14 926.891 357.260   6
   1   7  16 175.311 355.428   5
  -1   7  16 645.592 421.574   5
  -7   1  16 880.428 463.973   5
  -7  -1  16-321.486 414.095   5
   1   7  16 434.156 273.354   6
   1   7  18 493.227 321.830   5
  -1   7  18 128.843 384.984   5
  -7   1  18 324.730 403.503   5
  -7  -1  18 479.651 377.202   5
   1   7  18 737.132 279.779   6
   7   1  18-56.3914 297.111   6
   1   7  20 2014.18 398.101   5
  -1   7  20 2091.21 421.137   5
  -7   1  20 1793.16 429.019   5
  -7  -1  20 2125.13 507.528   5
   7   1  20 3154.08 432.459   6
   7  -1  20 2128.48 340.868   6
  -7   1  22 1881.44 322.995   5
  -7  -1  22 1368.92 301.597   5
   1  -7  22 1362.80 322.759   5
  -1   7  22 2066.45 336.261   3
  -1  -7  22 1797.20 408.318   5
  -1   7  22 1623.24 278.668   5
  -2  -7  -1 10215.6 1436.95   1
   2   7   1 10785.3 1609.75   2
  -2   7   1 10126.0 1600.57   2
   7  -2   1 14599.0 1747.42   7
   7  -2  -1 13401.8 1481.00   7
   2  -7  -1 12500.8 1670.11   7
  -7  -2   1 7153.85 1289.93   1
   2  -7   1 12315.5 1690.69   7
  -2  -7   1 11546.7 1616.05   1
  -7   2  -3 64638.8 4056.81   9
   2  -7  -3 63427.9 3572.64   7
   7  -2   3 61520.1 3666.33   7
  -2   7   3 58790.9 3773.89   2
   7  -2  -3 58879.8 2824.08   7
   2  -7   3 58740.9 3918.66   7
  -2  -7   3 61034.0 3929.09   7
   2  -7   3 50152.7 2712.22   1
   2   7   3 58647.6 3638.35   2
  -2  -7   3 56411.3 3620.37   1
  -7  -2   3 55313.6 3541.39   1
  -7   2  -5 8036.46 1560.38   9
  -7  -2  -5 6627.70 1412.98   9
  -2   7   5 9840.00 1623.47   2
   7  -2   5 8630.40 1518.37   7
   2  -7   5 7034.60 1465.83   7
  -2  -7   5 7988.62 1461.59   7
  -7  -2   5 8248.76 1406.47   1
  -2  -7   5 10069.5 1682.94   1
   2   7   5 8446.32 1502.06   2
   2  -7   5 8318.16 1276.52   1
  -7  -2  -7 11497.8 1791.37   9
  -7   2  -7 13807.7 2040.80   9
   2  -7  -7 10505.2 2502.02   8
   7  -2   7 13381.8 1985.70   7
   2  -7   7 11098.1 2012.93   7
  -2  -7   7 9461.64 1625.15   7
  -2  -7   7 11854.3 1991.60   1
   7  -2  -7 12878.3 2859.70   8
  -7  -2   7 11229.7 1712.33   1
   2  -7   7 10396.0 1596.84   1
  -2   7   7 10589.7 1836.79   2
   2   7   7 9830.98 1666.38   2
   7  -2  -9 31041.4 4679.94   8
   2  -7   9 30698.8 3270.70   7
   2  -7   9 30157.8 2974.08   1
  -2   7   9 32859.6 3522.96   2
  -2  -7   9 27660.1 3185.40   1
   2  -7  -9 32885.6 4740.44   8
  -7  -2   9 30755.2 3039.09   1
   2   7   9 29632.9 3171.68   2
  -7  -2  -9 33100.1 3176.16   9
   7  -2   9 33155.6 3174.61   7
  -2  -7   9 26695.9 2939.18   7
  -7  -2 -11 20604.8 2704.11   9
  -7   2  11 22926.2 1510.96   5
   7  -2 -11 21283.4 4126.92   8
   7   2  11 27271.2 2955.39   7
   7  -2  11 26216.8 2968.19   7
   2  -7  11 21896.4 2922.63   1
  -2   7  11 24995.7 3257.21   2
   2   7  11 25143.7 3211.46   2
  -7  -2  11 18187.9 2517.38   1
   2  -7  11 24084.6 3059.76   7
  -2  -7  11 24014.3 3188.78   1
  -2   7  11 26213.4 1237.03   6
   2   7  11 26004.2 1384.39   6
  -2  -7 -11 24202.3 1060.60   4
   2   7  11 23480.7 1434.49   5
  -2   7  11 25900.4 1610.44   5
  -2   7  13-4870.73 1622.68   2
   2   7  13 1449.48 1027.15   2
  -2  -7  13 860.580 710.927   1
   2   7  13 404.528 375.129   5
  -2   7  13 704.793 426.176   5
  -7   2  13 825.238 418.723   5
   2  -7 -13-2181.00 1670.81   8
   7  -2 -13-4482.99 2171.51   8
   7   2  13 957.785 873.936   7
   7  -2  13-2558.44 966.487   7
   2  -7  13 2864.04 1084.20   7
  -7  -2 -13-463.003 711.087   9
   2  -7  13-4284.58 1357.30   1
  -2   7  13 948.488 343.534   6
   2   7  13-225.524 367.198   6
  -7   2  15 15562.0 1377.08   5
   2   7  15 14878.1 1077.49   6
   2   7  15 13416.5 1159.65   5
  -2   7  15 14265.7 1286.65   5
  -7  -2  15 15282.2 1366.65   5
  -7   2  17 7586.62 958.575   5
  -7  -2  17 6255.83 869.990   5
   2   7  17 7634.39 724.130   6
   7   2  17 7528.73 784.495   6
   2   7  17 7747.63 807.806   5
  -2   7  17 7726.30 951.100   5
  -7  -2  19 2187.08 530.052   5
   2   7  19 2832.35 488.887   5
  -2   7  19 2960.05 577.597   5
  -7   2  19 3524.95 606.436   5
   2   7  19 4073.28 470.111   6
   7   2  19 3415.54 503.577   6
   7  -2  19 3043.06 474.621   6
  -7  -2  21 5058.42 597.807   5
   2  -7  21 4022.96 548.202   5
   7   2  21 4535.95 414.920   6
  -2  -7  21 4938.37 674.556   5
  -2   7  21 4999.86 547.411   5
  -7   2  21 4991.61 550.142   5
  -3  -7   0 11267.9 1681.34   1
  -3   7   0 10218.1 1588.63   2
  -7  -3   0 10127.5 1606.40   1
   7  -3   0 13810.0 1630.16   7
   3  -7   0 14608.0 1843.89   7
  -7   3  -2 27385.4 2670.24   9
  -7  -3   2 24191.7 2518.28   1
   3   7   2 23124.7 2315.89   2
  -3  -7  -2 26830.8 2609.82   1
   7  -3   2 25816.0 2384.43   7
   3  -7   2 25649.6 2582.74   7
   3  -7  -2 27908.5 2437.41   7
  -3   7   2 25350.8 2478.16   2
   7  -3  -2 25714.4 2038.80   7
  -3  -7   2 23796.6 2437.14   1
  -7   3  -4 63258.9 4148.14   9
   7  -3   4 63687.9 3963.37   7
  -3   7   4 61791.6 4007.89   2
   3   7   4 57713.5 3686.36   2
   3  -7  -4 63982.5 3498.46   7
   3  -7   4 60086.5 4164.02   7
  -3  -7   4 56587.5 3933.70   1
  -7  -3   4 55731.9 3827.07   1
  -7  -3  -6 11995.1 1742.78   9
   7  -3  -6 8794.23 2356.23   8
  -3  -7   6 8802.59 1697.79   1
   3  -7   6 9591.13 1784.13   7
  -7   3  -6 10223.7 1804.44   9
   3  -7  -6 8546.73 2584.76   8
   3  -7   6 8145.26 1313.28   1
   7  -3   6 11236.9 1822.29   7
   3   7   6 9735.32 1617.35   2
  -3   7   6 7803.39 1532.36   2
  -7  -3   6 7789.01 1499.04   1
  -7  -3  -8 35555.1 3146.82   9
   3  -7  -8 33261.1 4973.82   8
   7  -3  -8 42051.4 5437.76   8
   7  -3   8 40835.3 3613.81   7
   3  -7   8 35347.8 3564.19   7
   3  -7   8 36570.1 3056.53   1
  -3   7   8 37605.2 3589.14   2
   3   7   8 37949.6 3395.08   2
  -3  -7   8 37490.8 3616.31   1
  -7   3   8 32042.6 2820.46   2
  -7  -3   8 38272.7 3462.15   1
  -7   3  -8 40930.6 3653.98   9
  -7   3  10 35315.6 1762.22   5
  -7  -3 -10 34082.0 3249.96   9
   3  -7 -10 33050.7 5062.56   8
   7  -3 -10 34946.3 5272.27   8
   3  -7  10 31351.5 3231.62   1
   3  -7  10 30940.3 3417.56   7
  -3  -7 -10 36909.7 1314.97   4
   7  -3  10 36264.9 3566.81   7
  -3   7  10 32993.1 3742.00   2
   3   7  10 31090.8 3322.88   2
  -3   7  10 38278.2 1418.62   6
  -3  -7  10 36242.1 3926.19   1
   3   7  10 36940.8 1625.52   6
  -7  -3  10 34742.6 3568.89   1
  -3   7  10 36451.4 1904.07   5
   3   7  12 12040.3 2307.42   2
  -7   3  12 15275.6 1262.36   5
  -3  -7  12 12426.2 2503.24   1
   7  -3 -12 20129.3 4313.34   8
   7   3  12 14369.3 2175.59   7
   7  -3  12 15850.1 2462.46   7
   3  -7  12 15255.8 2263.70   7
  -7  -3  12 13199.3 2280.05   1
  -3  -7 -12 15765.6 898.145   4
   3   7  12 15046.9 1119.19   6
   3  -7  12 13404.5 2341.23   1
  -3   7  12 14149.0 1279.66   5
  -3   7  12 17438.7 2844.79   2
  -3   7  14 2090.73 579.310   5
  -7   3  14 1894.85 572.510   5
  -3  -7 -14 2801.11 430.018   4
   7   3  14 3008.87 575.855   6
   3   7  14 2726.08 536.657   6
  -7   3  16 15701.3 1295.38   5
  -7  -3  16 14498.3 1329.19   5
   3   7  16 16083.2 1107.75   6
   7   3  16 14576.8 1092.13   6
  -3   7  16 15470.6 1333.10   5
  -7   3  18 4934.66 728.082   5
  -3   7  18 3460.67 612.601   5
  -7  -3  18 3689.41 675.284   5
   3   7  18 4891.73 569.565   6
   7   3  18 5017.83 628.313   6
  -7  -3  20 10181.6 878.277   5
   3   7  20 11277.3 641.218   6
  -3   7  20 10416.9 825.163   3
   7   3  20 11050.8 728.085   6
  -3   7  20 11520.4 889.560   5
  -7   3  20 10463.5 837.042   5
  -3  -7  22 8430.24 681.328   5
  -3   7  22 8317.24 548.256   3
  -3   7  22 9692.63 615.310   5
  -7   3  22 8551.03 561.517   5
  -7  -4   1 404.774 425.814   1
  -4   7  -1-50.7820 168.113   2
  -4  -7  -1-850.611 572.942   1
   7  -4  -1 249.064 321.037   7
   4  -7  -1 883.016 598.017   7
   4   7   1-156.898 440.703   2
   4  -7   1 533.823 490.357   7
  -4   7   1-352.151 346.151   2
  -7  -4  -1 17.9393 299.910   1
  -4  -7   1-104.062 494.995   1
   7  -4   1 13.2662 374.008   7
  -4   7  -3 1655.25 619.841   9
   7  -4   3 2253.65 940.231   7
   7  -4  -3 2953.98 721.173   7
   4  -7   3 1877.31 965.919   7
   4  -7  -3 2209.93 754.512   7
  -7  -4   3 3938.85 1143.27   1
  -7   4  -3 2972.34 1040.35   9
   4   7   3 3191.75 872.460   2
  -4   7   3 2390.85 779.377   2
  -4  -7   3 1126.65 755.841   1
  -7  -4   5 7730.71 1565.09   1
   7  -4   5 6832.86 1534.44   7
  -4  -7   5 6622.37 1551.34   1
   4  -7   5 5968.96 1423.97   7
  -7   4  -5 6063.52 1434.40   9
   4   7   5 8140.87 1404.56   2
  -4   7   5 8624.25 1536.77   2
  -7   4   7-298.763 278.952   2
  -7  -4  -7 23.4661 362.772   9
   7  -4  -7-383.559 951.789   8
   4   7   7 1792.51 794.626   2
   7  -4   7 1178.60 787.203   7
  -4  -7   7 1610.47 897.228   1
   4  -7   7 3240.13 1119.35   7
  -7   4  -7 1850.55 873.429   9
  -7  -4   7 1764.13 812.852   1
  -4   7   7 635.213 537.791   2
   4  -7  -7 4278.22 1941.19   8
  -4   7   9 438.224 354.028   5
   7  -4  -9 1833.15 1512.97   8
  -4  -7   9 328.743 532.295   1
   7  -4   9 191.792 429.667   7
  -4  -7  -9 689.119 279.753   4
  -7  -4   9-551.322 733.340   1
   4  -7   9 143.865 519.387   1
   4  -7   9 1304.80 726.402   7
   4   7   9 648.874 352.003   6
  -4   7   9 429.377 536.500   2
   4   7   9 1004.04 629.242   2
   4   7  11 404.536 636.159   2
  -4   7  11 1386.94 556.706   5
  -7   4  11 852.205 393.343   5
   4  -7 -11-748.532 1214.75   8
   7  -4 -11 3410.25 2118.88   8
  -4  -7  11-1171.35 736.895   1
   7  -4  11 749.121 541.445   7
   4  -7  11-2303.09 1096.91   7
  -7  -4  11 1349.81 777.076   1
  -4  -7 -11 1530.31 339.905   4
   4  -7  11 1138.36 847.942   1
   4   7  11 1733.77 459.541   6
   7   4  11 1482.68 446.153   6
  -4   7  11 1776.34 914.076   2
  -7   4  13 5229.87 732.595   5
  -4  -7 -13 4954.77 533.211   4
   4   7  13 5340.21 711.049   6
   7   4  13 6106.31 757.067   6
  -4   7  13 5771.80 867.498   5
  -4   7  15 752.769 437.994   5
  -7   4  15 1159.90 466.398   5
  -4  -7 -15 641.297 239.477   4
   4   7  15 288.502 343.232   6
   7   4  15 735.091 394.479   6
  -4   7  17 162.758 364.748   5
  -7   4  17 394.750 393.171   5
  -7  -4  17 656.397 461.502   5
  -4  -7 -17 265.262 212.352   4
   4   7  17 709.580 341.283   6
   7   4  17 335.190 311.062   6
  -4   7  19 1359.79 422.206   5
  -7   4  19 1318.67 382.974   5
  -7  -4  19 1180.96 453.889   5
  -4   7  19 1208.29 382.490   3
  -7  -4 -19 1002.97 249.682   4
   4   7  19 1255.64 324.324   6
   7   4  19 1058.03 354.223   6
  -7   4  21 1508.75 287.797   5
  -7  -4  21 1104.16 301.213   5
  -4   7  21 1183.16 269.208   3
  -7  -4 -21 1203.41 203.672   4
   7   4  21 1141.53 217.480   6
  -4   7  21 1281.57 302.095   5
  -4  -7  21 1188.08 360.139   5
  -5  -7   0 26863.6 2959.46   1
  -7  -5   0 30560.8 3158.69   1
   5   7   0 25258.6 2383.18   2
   7  -5   0 28817.6 2556.78   7
  -5   7   0 27526.7 2588.48   2
   5  -7   0 25089.8 2551.73   7
  -5  -7   2 16713.8 2347.85   1
  -7   5  -2 16696.2 2161.54   9
  -7  -5   2 18881.9 2423.81   1
  -5   7  -2 14916.3 1882.72   2
   5   7   2 17459.7 1880.21   2
  -5  -7  -2 15192.5 2266.36   1
   7  -5   2 17849.5 2124.39   7
  -5   7   2 18575.4 2122.73   2
   7  -5  -2 18469.1 1925.03   7
   5  -7   2 17163.1 2238.05   7
   5  -7  -2 14944.8 1934.49   7
  -5   7  -2 18708.6 2021.74   9
  -7  -5   4 23555.6 2789.73   1
  -7   5  -4 20522.8 2523.84   9
  -5   7  -4 23479.1 2376.54   9
   7  -5   4 25039.4 2724.68   7
   5  -7   4 21029.6 2732.17   7
   5   7   4 22403.7 2237.06   2
  -5   7   4 26692.9 2633.22   2
  -5  -7   4 23886.3 2935.80   1
  -7  -5   6 1483.10 783.592   1
  -7   5  -6 1129.20 756.502   9
   7  -5   6 2648.02 1074.70   7
   5  -7   6 589.583 676.168   7
  -5   7  -6 3197.74 941.082   9
  -5  -7   6 933.412 786.966   1
  -5   7   6 902.377 641.702   2
   5  -7  -8 18020.8 3865.16   8
   7  -5  -8 18151.9 3855.48   8
   7  -5   8 19535.9 2685.95   7
   5  -7   8 19547.1 2772.49   7
  -5  -7  -8 20269.4 1053.09   4
  -5   7   8 17920.9 2667.79   2
  -7   5   8 22148.5 2588.24   2
   5   7   8 19624.0 1214.90   6
  -7   5  -8 14532.4 2316.44   9
   7   5   8 19249.8 1189.21   6
  -5  -7   8 19475.4 2853.72   1
  -7  -5   8 19493.9 2734.77   1
  -7   5   8 20387.3 1191.39   3
  -5   7   8 20673.5 1291.99   3
  -5   7   8 20375.7 1346.22   5
   7  -5 -10 10895.6 3269.22   8
  -7   5 -10 17826.8 2706.39   9
   7  -5  10 14549.8 2400.25   7
  -5  -7 -10 18206.7 1004.59   4
  -5  -7  10 16011.3 2687.27   1
   5  -7 -10 15434.1 3728.87   8
   5  -7  10 18924.2 2857.26   7
   5   7  10 16911.5 1180.01   6
  -7  -5  10 11585.8 2231.58   1
   7   5  10 15914.9 1143.86   6
  -7   5  10 17372.5 1157.12   3
  -5   7  10 16896.0 1226.89   3
  -5   7  10 15883.2 1256.90   5
  -5   7  10 15267.3 2543.65   2
  -7   5  10 14605.6 1173.81   5
  -5   7  12 6313.51 1846.46   2
  -5   7  12 3245.19 652.839   5
  -7   5  12 3825.77 682.377   5
  -7   5  12 3235.47 549.960   3
  -5  -7 -12 3906.54 512.416   4
   7  -5  12 9118.10 1962.11   7
   5  -7  12-1420.00 932.533   7
  -7  -5  12 3488.75 1378.70   1
   5   7  12 4042.26 646.145   6
   7   5  12 3372.85 604.250   6
  -5   7  14 1659.55 509.414   5
  -7   5  14 1531.60 499.892   5
  -7   5  14 1805.97 412.017   3
  -5  -7 -14 1983.18 371.561   4
   5   7  14 1349.82 476.077   6
   7   5  14 1801.48 505.214   6
  -5  -7 -16 22325.8 1035.01   4
   5   7  16 20482.7 1226.80   6
   7   5  16 21437.5 1283.14   6
  -7   5  16 20242.1 1210.55   3
  -5   7  16 20799.8 1358.17   3
  -5   7  16 21085.5 1454.74   5
  -7   5  16 20566.5 1387.40   5
  -5   7  18 3300.98 573.339   5
  -7   5  18 3639.67 555.477   5
  -7  -5  18 3694.31 650.848   5
  -5  -7 -18 3502.78 389.812   4
  -7  -5 -18 3307.04 414.958   4
   5   7  18 3605.96 507.785   6
   7   5  18 3059.39 482.430   6
  -5   7  18 3757.67 549.019   3
  -7   5  20 1395.64 332.991   5
  -7  -5  20 1230.24 335.949   5
  -5  -7  20 1116.89 376.123   5
  -5   7  20 1420.61 304.334   3
  -7  -5 -20 1223.90 224.298   4
  -5   7  20 1076.50 292.790   5
   5   7  20 1491.79 278.575   6
   7   5  20 1107.71 264.936   6
  -6  -7   1 26636.7 3125.97   1
  -7  -6   1 26935.5 3055.84   1
  -6   7  -1 24721.1 2464.11   2
  -6  -7  -1 29021.6 3289.09   1
  -7  -6  -1 28250.8 3182.15   1
   7  -6   1 22527.8 2470.82   7
  -6   7   1 25980.6 2536.79   2
   6  -7   1 24726.5 2668.85   7
   6  -7  -1 23548.3 2561.35   7
   7  -6  -1 23028.5 2362.99   7
  -6  -7   3 20732.7 2795.24   1
  -7   6  -3 21112.8 2550.45   9
  -7  -6   3 17957.7 2530.53   1
  -6   7  -3 18571.7 2101.30   2
   7  -6   3 17671.3 2418.56   7
   6  -7   3 15504.1 2282.76   7
  -6   7   3 18823.2 2196.16   2
  -6   7  -3 17203.1 2153.80   9
  -6  -7   5 13532.5 2290.60   1
  -6   7  -5 9248.68 1729.99   9
   7  -6   5 9745.56 1934.41   7
  -7  -6   5 8134.99 1755.54   1
  -6  -7  -5 11095.9 778.236   4
  -7  -6  -5 11682.0 774.527   4
   6  -7   5 10521.4 1982.69   7
  -7   6  -5 8764.15 1753.55   9
  -7   6  -5 10619.1 826.290   3
  -6   7  -5 10516.4 837.915   3
  -6   7   5 11537.3 931.724   3
  -6   7   5 8739.31 1662.62   2
  -6   7   7 2426.60 513.585   5
  -7   6   7 4872.49 637.406   5
  -7   6   7 2383.30 473.873   3
   6  -7  -7-159.511 843.401   8
   7  -6  -7 3738.56 1931.64   8
  -6   7   7 3128.67 551.686   3
  -6   7  -7 2952.36 1016.60   9
  -7  -6  -7 3580.57 459.177   4
   7  -6   7 3427.35 1191.00   7
  -7   6  -7-958.487 654.692   9
   6  -7   7 2796.57 1144.21   7
  -6  -7  -7 2730.07 450.117   4
  -6   7  -7 2864.42 470.563   3
  -6  -7   7 2729.90 1165.76   1
   6   7   7 2351.45 518.635   6
   7   6   7 2498.27 527.791   6
  -6   7   7 5481.26 1407.60   2
  -7  -6   7 2413.04 1114.16   1
  -7   6  -9 8178.57 1816.54   9
  -6   7  -9 7984.87 1700.79   9
   6  -7  -9 7479.94 2694.39   8
   7  -6  -9 10815.8 3129.06   8
  -6  -7  -9 9827.37 774.194   4
  -7  -6  -9 10811.1 795.918   4
   7  -6   9 9163.10 1959.31   7
   6  -7   9 9133.24 2069.38   7
   6   7   9 8256.51 843.135   6
   7   6   9 9463.46 895.701   6
  -6  -7   9 8004.68 1934.03   1
  -7  -6   9 9756.99 2112.03   1
  -7   6   9 11011.2 944.295   3
  -6   7   9 10073.1 944.624   3
  -6   7   9 8642.03 921.322   5
  -7   6   9 8606.49 864.368   5
  -6   7   9 14790.1 2410.04   2
  -6   7  11 17222.2 2777.19   2
  -7   6 -11 10371.8 2092.95   9
  -6  -7 -11 11775.8 866.276   4
  -7  -6 -11 14414.6 928.181   4
   6  -7  11 10692.1 2291.25   7
   6   7  11 11054.4 1004.20   6
   7   6  11 12754.4 1050.51   6
  -7  -6  11 13885.2 2601.54   1
  -7   6  11 13685.1 1078.67   3
  -6   7  11 12550.9 1081.30   3
  -6   7  11 12422.8 1132.84   5
  -7   6  11 12390.0 1096.35   5
  -6  -7 -13 8190.58 702.590   4
  -7  -6 -13 7538.44 712.158   4
   6   7  13 7416.88 841.788   6
   7   6  13 8232.44 866.607   6
  -7   6  13 7897.10 837.493   3
  -6   7  13 7223.09 858.358   3
  -6   7  13 7528.45 909.982   5
  -7   6  13 8158.64 932.864   5
  -6  -7 -15 7648.26 655.376   4
  -7  -6 -15 7298.73 663.152   4
   6   7  15 6245.75 726.111   6
   7   6  15 7349.19 801.886   6
  -7   6  15 7895.45 807.967   3
  -6   7  15 7427.48 821.102   3
  -6   7  15 7212.14 891.392   5
  -7   6  15 7221.31 861.824   5
  -6   7  17 2171.35 493.048   5
  -7   6  17 2635.78 506.491   5
  -7  -6  17 2206.53 566.448   5
  -6  -7 -17 2748.60 380.556   4
  -6   7  17 3190.86 517.644   3
  -7  -6 -17 2336.13 356.377   4
  -7   6  17 3242.86 465.226   3
   6   7  17 2386.35 467.301   6
   7   6  17 2680.00 499.137   6
  -7   6  19 1719.13 361.395   5
  -6   7  19 2020.12 339.366   3
  -7  -6  19 1867.29 375.785   5
  -6  -7  19 1831.42 452.321   5
  -6  -7 -19 2263.41 272.762   4
  -7  -6 -19 2146.17 292.587   4
  -6   7  19 1614.92 359.798   5
   6   7  19 1874.81 335.380   6
   7   6  19 1802.85 337.887   6
  -6   7  21 2570.79 315.865   5
  -7  -7   0 15098.2 2439.60   1
  -7  -7   0 13845.6 838.235   4
  -7   7   0 13156.4 920.780   3
  -7  -7   2 6508.93 1645.09   1
  -7  -7   2 8240.21 669.722   4
  -7  -7  -2 9532.45 720.918   4
   7  -7   2 6035.94 1506.42   7
  -7   7   2 9520.46 774.423   6
  -7   7  -2 8614.63 768.447   3
  -7   7   2 9371.13 819.976   3
  -7   7   4 3258.48 557.067   3
  -7  -7   4 3950.44 498.593   4
   7  -7   4-641.713 636.401   7
  -7  -7   4 1494.59 928.819   1
  -7   7  -4 4073.40 544.970   3
  -7   7   4 4687.85 561.226   6
  -7  -7  -4 3512.24 466.684   4
  -7   7  -4 6731.58 1521.88   9
  -7   7   6 2528.23 490.527   5
  -7   7   6 2628.44 490.320   3
  -7  -7   6 3015.67 1131.08   1
   7  -7   6 948.176 874.560   7
  -7  -7   6 2557.52 447.309   4
  -7  -7  -6 2751.34 438.513   4
  -7   7  -6 2102.80 950.555   9
   7   7   6 3035.09 545.661   6
  -7   7  -6 2777.83 513.712   3
  -7  -7   8 15467.7 2812.69   1
   7  -7  -8 17491.0 4094.29   8
   7  -7   8 17250.8 2744.82   7
   7   7   8 17376.9 1189.52   6
  -7   7  -8 18456.0 2661.88   9
  -7  -7  -8 17058.5 1016.31   4
  -7   7   8 16760.6 1174.54   3
  -7   7   8 17422.0 1224.15   5
  -7   7  10 1484.19 450.150   5
  -7   7  10 664.208 353.629   3
  -7  -7 -10 1379.95 377.986   4
   7   7  10 1537.45 505.322   6
  -7   7  12 1086.47 420.792   5
  -7   7  12 2031.15 462.511   3
  -7  -7 -12 1296.16 339.740   4
   7   7  12 1305.15 454.399   6
  -7   7  14-361.493 344.183   5
  -7   7  14 507.743 326.331   3
  -7  -7 -14-206.529 256.661   4
   7   7  14-80.9128 319.299   6
  -7   7  16 2859.48 537.778   5
  -7   7  16 2103.90 432.025   3
  -7  -7 -16 2545.26 390.678   4
   7   7  16 2781.61 499.103   6
  -7   7  18 1047.75 291.472   5
  -7   7  18 1488.09 310.433   3
  -7  -7  18 1026.69 349.097   5
  -7  -7 -18 1105.54 233.882   4
   7   7  18 1681.50 349.163   6
  -7   7  20 788.525 209.754   5
   7   7  20 692.812 192.788   6
   0  -8   0 1302.13 709.332   7
   0  -8   0 2094.21 621.199   1
   0  -8   2 7012.44 1506.02   7
   0  -8  -2 7928.21 1510.61   7
   0   8   2 7011.10 1444.53   2
   0  -8   2 6832.14 1156.23   1
  -8   0  -4 6192.33 1386.95   9
   0  -8  -4 6273.99 1647.65   8
   8   0  -4 5050.21 1616.94   8
   8   0   4 4629.38 1232.15   7
   0  -8   4 7648.59 1327.92   1
   0  -8   4 4424.75 1221.94   7
  -8   0   4 5054.53 1017.42   1
   0   8   4 5455.97 1279.58   2
   0  -8  -6 6611.30 1872.79   8
   8   0  -6 10796.3 2347.40   8
   0  -8   6 11014.2 1765.54   1
   8   0   6 8381.81 1635.61   7
   0  -8   6 9492.84 1733.51   7
   0   8   6 10889.4 1882.28   2
  -8   0  -6 10285.5 1867.05   9
  -8   0  -8 15183.6 2326.86   9
   0  -8   8 14396.9 2139.73   1
   0   8   8 15868.2 1001.66   6
   0  -8  -8 13198.3 2706.42   8
   8   0  -8 12029.5 2572.43   8
   8   0   8 15640.8 2205.43   7
   0  -8   8 10275.5 2003.37   7
   0   8   8 12774.9 2262.13   2
   0  -8 -10 35723.5 4784.93   8
   8   0  10 32522.6 3355.21   7
   0  -8  10 27663.2 3138.84   7
   0   8  10 38167.8 4107.74   2
   0  -8  10 29605.1 3393.36   1
   0   8  10 33930.6 1499.45   6
  -8   0 -10 29984.9 3387.19   9
   0   8  10 33682.7 1773.43   5
   0  -8  12 21541.3 3151.04   1
   8   0  12 24647.6 2957.12   7
   0  -8  12 19419.9 2723.34   7
   0   8  12 23794.8 3482.17   2
   0   8  12 25221.6 1336.75   6
  -8   0 -12 22772.4 3115.77   9
   0   8  12 24501.2 1587.33   5
  -8   0  14 2546.99 571.599   5
   0   8  14 2492.22 574.896   5
   0   8  14 3240.45 529.951   6
   0   8  16 1018.64 434.589   5
  -8   0  16 1677.34 485.484   5
   0   8  16 1391.87 358.762   6
   0   8  18 2704.26 523.914   5
  -8   0  18 3473.09 587.448   5
   8   0  18 2979.21 503.994   6
  -8   0  20-422.281 258.206   5
   0   8  20-362.947 242.011   5
   8   0  20 324.564 220.947   6
   0   8  22 924.264 208.633   3
  -1  -8  -1 17044.1 1880.59   1
   1   8   1 15913.0 2044.62   2
  -1   8   1 17853.1 2239.18   2
   8  -1   1 16310.2 1875.16   7
   8  -1  -1 17031.1 1847.62   7
  -8  -1   1 17302.2 1993.21   1
   1  -8   1 15655.6 2089.60   7
   1  -8  -1 15699.5 2086.64   7
  -1  -8   1 15100.9 2074.14   7
  -1  -8   1 17879.6 1957.86   1
  -8   1  -3 1122.22 776.918   9
  -1  -8   3 247.161 343.444   1
   8  -1   3-89.1497 439.911   7
   8  -1  -3 1501.90 595.104   7
  -8  -1   3-445.647 317.839   1
   1  -8   3 706.946 599.076   7
   1  -8   3 1922.54 604.956   1
  -1  -8   3-2062.95 860.250   7
   1  -8  -3 152.718 655.575   7
   1   8   3 1269.43 682.597   2
  -1   8   3 407.847 445.450   2
  -8  -1  -5 1554.97 830.277   9
  -8   1  -5 941.616 742.861   9
   8  -1  -5 3460.48 1339.59   8
   1  -8   5 220.138 320.456   1
  -1  -8   5 803.776 548.502   1
   8  -1   5 2100.92 857.263   7
   1  -8   5 617.873 657.473   7
  -1  -8   5 732.045 677.385   7
  -8  -1   5 577.286 426.604   1
   1  -8  -5 3348.06 1341.27   8
   1   8   5 1355.16 718.645   2
  -1   8   5 2234.97 934.937   2
  -8  -1  -7 1015.05 766.529   9
   1  -8   7 1593.38 738.517   1
   1  -8  -7 182.986 662.488   8
   8  -1  -7 1295.58 1036.47   8
  -1  -8   7 998.069 642.158   1
  -8  -1   7 1221.20 617.343   1
   8   1   7 864.341 621.413   7
   8  -1   7 506.937 540.541   7
   1  -8   7 1760.04 763.430   7
  -1  -8   7 341.872 482.389   7
  -8   1  -7 1663.67 874.920   9
   1   8   7 981.901 670.406   2
  -1   8   7 2441.30 1027.24   2
   1  -8   9 2435.38 991.302   1
   1  -8   9 2685.64 1001.79   7
  -8   1  -9 3111.97 1183.03   9
   1   8   9 2731.98 539.670   5
  -1   8   9 2539.50 565.429   5
  -1  -8   9 2353.23 1029.43   1
   1  -8  -9 438.834 956.229   8
   8  -1  -9 2158.75 1663.70   8
   8   1   9 2414.47 896.185   7
   8  -1   9 2457.67 1006.99   7
  -1  -8   9 1534.44 832.168   7
  -8  -1  -9 3478.19 1200.77   9
  -1   8   9 2345.60 443.664   6
   1   8   9 2384.32 483.761   6
  -1   8   9 3690.53 1322.13   2
   1   8   9 1731.35 901.465   2
  -8  -1 -11 5054.58 1463.85   9
   1   8  11 4627.37 695.709   5
  -1   8  11 4733.81 748.452   5
  -1  -8  11 4332.47 1539.34   1
   1  -8 -11 10690.5 2956.90   8
   8  -1 -11-2369.72 1695.00   8
   8   1  11 4324.13 1305.10   7
   8  -1  11 5753.68 1492.14   7
   1  -8  11 4197.84 1285.75   7
  -1  -8  11 4793.60 1346.25   7
  -8   1 -11 3154.27 1219.26   9
  -1   8  11 4338.19 596.636   6
   1   8  11 4186.50 618.616   6
   1  -8  11 4911.04 1440.17   1
  -1   8  11 3054.53 1217.77   2
   1   8  11 4841.35 1453.32   2
  -8   1  13 9420.57 1006.81   5
  -1   8  13 11096.0 882.996   6
   1   8  13 10762.0 920.780   6
  -8  -1 -13 11793.5 2214.65   9
   1   8  13 10976.2 1073.70   5
  -1   8  13 10224.4 1094.15   5
   1   8  15 941.541 473.201   5
  -1   8  15 1047.88 490.076   5
  -8   1  15 1238.31 490.103   5
  -8  -1  15 524.303 378.542   5
  -1   8  15 1600.11 372.866   6
   1   8  15 1652.98 429.748   6
   1   8  17 713.495 343.790   5
  -1   8  17 922.288 416.430   5
  -8   1  17-324.362 337.864   5
  -8  -1  17 726.547 404.083   5
   1   8  17 524.921 300.320   6
   8   1  17 695.283 384.921   6
   1   8  19 489.060 238.249   5
  -8   1  19 172.513 229.072   5
  -8  -1  19 173.275 308.027   5
  -1   8  19 318.581 258.219   5
   8   1  19 531.464 275.195   6
   8  -1  19-47.5771 245.981   6
  -8   1  21 240.897 178.466   5
  -8  -1  21 230.587 179.747   5
  -1   8  21 734.673 264.999   3
   1  -8  21 391.167 255.518   5
  -1  -8  21 1012.96 351.185   5
   1   8  21 104.698 222.968   3
   8   1  21 856.004 198.947   6
  -1   8  21 718.382 250.802   5
  -2  -8   0 41969.4 3161.82   1
  -2   8   0 43429.2 3460.70   2
   8  -2   0 43460.2 3028.60   7
   2  -8   0 45733.2 3510.76   7
  -8  -2   2 90430.0 4883.63   1
   2   8   2 93810.4 4969.71   2
  -2   8   2 94545.8 5137.35   2
   8  -2   2 92923.8 4673.41   7
   8  -2  -2 91110.2 4034.89   7
  -2  -8  -2 90897.8 4601.71   1
   2  -8   2 92874.4 5155.91   7
   2  -8  -2 91205.0 4747.42   7
  -2  -8   2 83655.7 4606.70   1
  -8   2  -4 34781.4 3315.50   9
  -8  -2   4 37746.3 3117.60   1
   8  -2   4 38600.8 3228.71   7
   2   8   4 40027.1 3337.29   2
  -2   8   4 36273.6 3259.87   2
   2  -8   4 33811.4 3287.17   7
  -2  -8   4 36509.8 3402.79   7
   2  -8  -4 36631.2 2946.76   7
  -2  -8   4 33207.7 3056.92   1
  -8  -2   6 19531.2 2328.72   1
  -8  -2  -6 17206.3 2378.17   9
  -8   2  -6 18761.2 2514.28   9
   2  -8  -6 12740.5 2840.41   8
   2   8   6 21129.5 2531.43   2
  -2   8   6 20075.4 2548.40   2
  -2  -8   6 15515.6 2321.14   7
   2  -8   6 16110.8 1972.87   1
   8  -2  -6 18413.6 3516.28   8
  -2  -8   6 17094.9 2371.28   1
   8  -2   6 18586.6 2400.62   7
   2  -8   6 18385.7 2678.31   7
  -2  -8   8 19671.4 2748.48   7
  -8  -2  -8 26468.7 2983.93   9
  -8   2  -8 27325.5 3219.72   9
   2  -8  -8 32050.9 4684.87   8
   8  -2  -8 20727.4 3795.77   8
   2   8   8 24373.4 2988.03   2
   8  -2   8 27243.9 3058.85   7
   2  -8   8 26564.4 3118.67   7
  -2   8   8 25838.6 3133.17   2
   2  -8   8 22865.6 2555.63   1
  -2   8   8 28890.7 1278.13   6
   2   8   8 28630.1 1390.88   6
  -2  -8   8 25500.8 3145.67   1
  -8  -2   8 24931.0 2813.39   1
  -2   8   8 27468.7 1555.18   5
  -8  -2 -10 70699.7 5106.28   9
   2  -8 -10 76847.8 7688.97   8
   8  -2 -10 68183.5 7361.08   8
   8  -2  10 76719.8 5322.23   7
   2  -8  10 71380.7 5390.91   7
  -2  -8  10 71089.1 5495.23   1
  -2  -8 -10 75111.4 1881.38   4
   2  -8  10 66748.1 4952.24   1
  -2   8  10 71766.8 5643.72   2
   2   8  10 75516.6 5591.40   2
  -8   2 -10 72612.2 5415.25   9
  -2   8  10 74112.4 2116.07   6
   2   8  10 75573.5 2351.83   6
   8   2  10 71796.5 4978.81   7
  -2  -8  10 71185.9 4943.68   7
  -8  -2  10 72511.3 4886.31   1
   2   8  10 70888.3 2427.96   5
  -2   8  10 76642.7 2760.00   5
   2   8  12 2050.73 503.413   5
  -2   8  12 3083.21 637.551   5
  -2  -8  12 3947.61 1451.80   1
   8  -2  12 4033.38 1387.85   7
   8   2  12 4293.54 1327.64   7
   2  -8  12 3860.30 1256.69   7
  -8   2 -12 534.801 687.144   9
  -2   8  12 3889.26 547.557   6
  -8  -2 -12 2057.19 908.670   9
   2   8  12 3463.55 590.823   6
   2  -8  12 2635.58 1080.20   1
  -2   8  12 2658.48 1236.80   2
   2   8  12 2680.77 1305.83   2
  -8   2  14 41376.5 2030.02   5
  -8  -2  14 39074.2 2022.73   5
  -2   8  14 46778.6 1644.87   6
   2   8  14 42815.0 1793.55   6
   2   8  14 39385.0 1869.93   5
  -2   8  14 41439.8 2110.62   5
  -8   2  16 26630.1 1609.25   5
  -8  -2  16 27484.2 1664.46   5
   2   8  16 29494.6 1400.36   6
   8   2  16 26821.9 1446.53   6
   2   8  16 27775.9 1499.38   5
  -2   8  16 27813.9 1665.13   5
  -8   2  18 18487.1 1199.89   5
  -8  -2  18 17209.3 1216.68   5
   2   8  18 20880.0 1036.99   6
   8   2  18 18958.3 1110.56   6
   2   8  18 17722.8 1062.69   5
  -2   8  18 19161.0 1263.40   5
  -8  -2  20 4841.87 549.007   5
   8   2  20 4428.47 467.565   6
   8  -2  20 5008.15 463.870   6
  -2   8  20 4882.39 566.278   3
  -2   8  20 5188.86 574.788   5
  -8   2  20 4288.15 496.847   5
  -2  -8  22 7183.24 579.472   5
  -3  -8   1 49263.6 3661.56   1
  -3  -8  -1 52841.3 3750.11   1
   3   8   1 52862.7 3710.09   2
  -3   8   1 47719.7 3653.69   2
  -8  -3   1 53624.9 4006.86   1
   8  -3   1 54306.3 3516.05   7
   8  -3  -1 48524.9 3149.25   7
   3  -8   1 48091.9 3783.90   7
   3  -8  -1 48537.4 3542.57   7
  -8   3  -3 67085.5 4556.49   9
  -8  -3   3 69554.9 4526.42   1
   8  -3   3 71434.7 4370.75   7
   3   8   3 64126.5 4139.38   2
  -3   8   3 69852.0 4597.05   2
   3  -8   3 68436.8 4646.21   7
   3  -8  -3 69558.0 4100.04   7
  -3  -8   3 64821.0 4298.36   1
  -8  -3   5 48922.6 3890.98   1
  -8   3  -5 45385.8 3924.21   9
   8  -3   5 50782.3 3936.82   7
   3  -8   5 45952.4 4028.56   7
  -3   8   5 46455.0 3892.48   2
   3   8   5 49951.4 3873.84   2
  -3  -8   5 47018.6 3984.89   1
  -8  -3  -7 32438.7 3248.93   9
  -8   3  -7 37011.4 3666.01   9
   3  -8  -7 39687.6 5338.79   8
   8  -3  -7 35274.8 5369.90   8
   8  -3   7 41285.7 3749.38   7
  -3   8   7 39616.0 3784.74   2
   3   8   7 37480.7 3442.81   2
   3   8   7 38625.0 1610.09   6
   3  -8   7 36276.0 3717.16   7
  -3  -8   7 34764.9 3626.61   1
  -3   8   7 39963.6 1779.07   3
  -3   8   7 41932.1 1890.62   5
  -8  -3   7 39141.1 3539.39   1
  -8  -3  -9 73975.2 4970.01   9
  -8   3  -9 78071.5 5552.02   9
   3  -8  -9 84967.8 8161.83   8
  -3   8   9 79659.7 5804.83   2
   8  -3   9 78911.3 5428.19   7
   3  -8   9 72227.7 5490.65   7
  -3  -8  -9 80098.6 1995.75   4
   3   8   9 74258.8 5430.79   2
  -3   8   9 79278.0 2103.34   6
   3   8   9 73837.6 2331.44   6
   8  -3  -9 78025.9 7979.54   8
  -3  -8   9 80849.4 5860.08   1
  -8  -3   9 76705.7 5238.82   1
  -3   8   9 78157.5 2698.77   5
  -8   3 -11 24443.7 3229.87   9
   3  -8 -11 44031.6 6044.52   8
   8  -3 -11 31707.7 5345.68   8
   8   3  11 29152.5 3216.66   7
   8  -3  11 30970.3 3540.75   7
   3  -8  11 26576.6 3390.37   7
  -3  -8 -11 29246.0 1248.29   4
  -3   8  11 30134.4 3753.35   2
   3   8  11 29098.6 3525.93   2
  -3   8  11 29885.4 1315.20   6
   3   8  11 28548.8 1508.82   6
  -3  -8  11 30786.7 3770.73   1
   3  -8  11 25203.7 3143.83   1
  -8  -3  11 27967.4 3295.01   1
   3   8  11 28301.9 1507.19   5
  -3   8  11 30404.1 1789.77   5
  -8   3  13 14431.8 1189.36   5
  -3  -8 -13 14739.9 883.906   4
   3   8  13 15030.9 1125.07   6
   3   8  13 13122.1 1044.99   5
  -3   8  13 13574.1 1241.41   5
  -8   3  15 46182.1 2078.43   5
  -8  -3  15 43286.7 2093.80   5
   3   8  15 44447.5 1810.99   6
   8   3  15 41974.7 1823.97   6
  -3   8  15 44917.6 2182.34   5
  -8  -3  17 25157.9 1513.26   5
   3   8  17 31022.9 1368.48   6
   8   3  17 27255.0 1367.22   6
  -3   8  17 31497.5 1689.77   5
  -8   3  17 28327.8 1528.57   5
  -8  -3  19 11927.2 910.956   5
   3   8  19 13027.8 739.385   6
   8   3  19 13570.2 850.704   6
  -3   8  19 13270.2 952.522   3
  -3   8  19 13925.5 994.193   5
  -8   3  19 12828.2 891.381   5
  -3  -8  21 11307.1 824.249   5
  -8  -3 -21 11879.9 527.229   4
   8   3  21 10802.7 564.908   6
  -3   8  21 12566.8 718.726   3
  -3   8  21 12631.4 728.261   5
  -8   3  21 11421.4 617.422   5
   8  -4   0 3432.32 955.459   7
   4   8   0 4227.86 1138.16   2
  -4   8   0 3550.93 996.483   2
  -8  -4   0 3370.40 1086.14   1
  -4  -8   0 3153.08 1021.52   1
   4  -8   0 1924.30 790.798   7
  -4  -8  -2 4497.79 1373.51   1
  -8  -4   2 4634.99 1255.30   1
  -4  -8   2 4677.60 1239.48   1
   8  -4   2 4993.39 1142.75   7
   8  -4  -2 3379.15 872.122   7
   4  -8   2 2539.56 934.852   7
   4  -8  -2 3401.49 1048.09   7
   4   8   2 4844.30 1194.12   2
  -4   8   2 4647.52 1186.90   2
  -8   4  -4 13944.8 2257.43   9
   4  -8   4 12013.3 2083.84   7
   8  -4   4 15489.7 2172.69   7
   4   8   4 14970.0 2052.81   2
  -4   8   4 14044.8 2108.95   2
  -8  -4   4 15125.1 2228.01   1
  -4  -8   4 16472.6 2367.81   1
  -8  -4   6 36595.7 3578.98   1
  -8   4  -6 29976.6 3320.47   9
   4  -8  -6 32441.0 5224.56   8
   8  -4  -6 29373.4 4777.40   8
  -4  -8   6 35019.5 1407.47   4
   4  -8   6 33431.0 3562.33   7
  -4  -8  -6 35503.7 1337.82   4
  -4   8   6 35350.2 3532.90   2
   4   8   6 33424.9 3206.54   2
   4   8   6 32073.5 1475.98   6
  -4   8  -6 36526.3 1496.83   3
  -4  -8   6 32005.2 3509.51   1
  -4   8   6 36835.0 1671.58   3
   8  -4   6 35722.9 3508.96   7
  -4   8   6 35423.3 1702.89   5
  -8   4  -8 19172.0 2725.12   9
   4  -8  -8 18489.5 4006.84   8
   8  -4  -8 18508.8 4569.85   8
   8  -4   8 20420.0 2768.22   7
  -4  -8  -8 21658.0 1082.96   4
  -4   8   8 17318.5 2581.12   2
   4  -8   8 18678.6 2842.03   7
   4   8   8 19515.9 2611.33   2
  -4   8   8 21825.0 1083.78   6
   4   8   8 20876.5 1266.93   6
  -4  -8   8 19995.3 2899.43   1
  -4   8   8 21556.2 1355.52   3
  -8  -4   8 20042.1 2803.77   1
  -4   8   8 22828.0 1465.78   5
  -8   4 -10 8556.66 1880.83   9
   4  -8 -10 9056.87 2958.86   8
   8  -4 -10 8607.71 3043.45   8
  -4  -8 -10 8681.07 720.042   4
   8  -4  10 8904.99 1928.10   7
  -4  -8  10 4920.30 1617.56   1
   4  -8  10 8306.16 1909.14   7
  -4   8  10 7201.94 677.516   6
   4   8  10 8359.80 868.735   6
  -8  -4  10 6707.54 1699.10   1
  -4   8  10 8286.04 904.713   3
  -4   8  10 8491.25 971.174   5
  -4   8  10 7220.92 1862.66   2
   4   8  10 10102.1 2058.91   2
  -4  -8 -12 12364.3 853.033   4
   4   8  12 11211.1 1007.51   6
   8   4  12 10952.3 993.739   6
  -4   8  12 11464.9 1139.89   5
  -8   4  12 12030.7 1072.69   5
  -4   8  14 981.493 480.739   5
  -8   4  14 2172.31 556.281   5
  -4  -8 -14 1892.34 363.772   4
   4   8  14 1129.31 446.473   6
   8   4  14 1680.84 459.306   6
  -4   8  16 3441.51 666.099   5
  -8   4  16 3043.58 588.490   5
  -8  -4  16 3322.64 622.342   5
  -4   8  16 3828.70 644.472   3
  -4  -8 -16 2720.25 372.747   4
   4   8  16 3909.51 588.760   6
   8   4  16 3041.95 540.621   6
  -4   8  18 3276.91 546.348   5
  -8   4  18 3711.35 537.953   5
  -8  -4  18 3020.40 528.641   5
  -8  -4 -18 3908.92 433.970   4
   4   8  18 3731.08 484.772   6
   8   4  18 3960.38 531.450   6
  -4   8  18 3970.09 586.406   3
  -8  -4  20 5222.52 493.731   5
  -4  -8  20 5691.08 662.352   5
  -8  -4 -20 6467.98 437.128   4
   4   8  20 6016.31 433.449   6
   8   4  20 6290.26 509.172   6
  -4   8  20 6537.49 574.270   3
  -4   8  20 6101.91 582.076   5
  -8   4  20 6258.38 532.310   5
  -5  -8  -1 8696.07 1776.89   1
   5   8  -1 6820.65 1336.54   2
   8  -5   1 5744.79 1417.92   7
   5  -8   1 6663.75 1508.99   7
   5  -8  -1 6809.07 1393.20   7
   8  -5  -1 9139.95 1478.11   7
  -5   8  -1 6304.37 1323.72   2
  -8  -5  -1 9375.82 1872.06   1
   5   8   1 6874.74 1445.50   2
  -5   8   1 8958.23 1622.29   2
  -8  -5   1 7092.50 1621.75   1
  -5  -8   1 7847.88 1702.48   1
  -5  -8   3 12614.2 2218.54   1
   8  -5   3 13231.1 2119.06   7
  -5   8   3 13901.1 2069.56   2
   5  -8   3 13762.8 2214.68   7
   5   8   3 13384.7 1848.86   2
  -8  -5   3 13241.8 2177.29   1
  -8   5  -3 11635.1 1953.08   9
  -5  -8   5-370.185 618.745   1
  -5   8   5 689.670 306.095   3
   8  -5   5-1073.54 799.218   7
   5  -8   5 725.071 713.511   7
  -5  -8   5 882.239 334.443   4
  -5   8   5-57.0264 272.436   5
  -8  -5   5-976.636 654.606   1
  -5  -8  -5 654.246 289.880   4
  -8  -5  -5 790.926 241.695   4
  -8   5  -5 425.067 248.647   3
  -5   8   5 978.978 325.899   6
  -8   5  -5 525.276 617.866   9
   5   8   5 247.834 291.079   6
  -5   8   5 2189.06 878.192   2
  -5   8  -5 641.389 280.159   3
  -8   5  -7 7172.74 1694.87   9
  -8  -5   7 7431.82 1725.48   1
  -5  -8  -7 7430.91 684.910   4
   8  -5   7 6935.96 1753.49   7
  -8  -5  -7 6845.64 621.000   4
   5  -8   7 3324.56 1320.99   7
   5  -8  -7 6579.04 2411.78   8
  -5   8   7 6898.44 645.952   6
  -5   8  -7 7012.02 719.231   3
   5   8   7 6309.78 748.835   6
   8   5   7 5316.81 671.968   6
   8  -5  -7 7630.50 2775.28   8
  -5  -8   7 8508.15 1924.48   1
  -5   8   7 6845.50 788.415   3
  -5   8   7 4427.87 1383.79   2
  -5   8   7 6979.24 795.638   5
  -8  -5   9 1824.23 1003.04   1
  -8   5  -9 208.709 368.235   9
  -5   8   9 423.520 396.833   5
   5  -8  -9 1600.20 1592.51   8
  -5   8   9 188.478 303.701   3
   8  -5   9 1067.85 701.120   7
  -5  -8  -9 622.753 287.271   4
   8  -5  -9 628.273 1514.88   8
  -5  -8   9 1571.83 855.326   1
  -5   8   9 519.934 280.867   6
   5   8   9 577.928 337.183   6
   8   5   9-161.991 317.263   6
  -5   8   9-207.356 477.323   2
  -5   8  11 757.774 390.713   5
  -8   5  11 664.780 355.399   5
  -5   8  11 513.551 322.051   3
  -5  -8 -11 607.631 273.028   4
   5   8  11 517.244 348.247   6
   8   5  11 680.115 369.183   6
  -5   8  13 930.482 442.172   5
  -8   5  13 706.064 405.198   5
  -5   8  13 47.7634 343.765   3
  -5  -8 -13 530.436 259.318   4
   5   8  13 229.141 365.175   6
   8   5  13 740.158 421.444   6
  -5  -8 -15 7463.94 631.389   4
   5   8  15 7985.87 820.600   6
   8   5  15 7249.28 781.722   6
  -5   8  15 7679.30 867.920   3
  -5   8  15 7890.78 927.163   5
  -8   5  15 7415.14 831.969   5
  -5   8  17 1226.11 388.066   5
  -8   5  17 1720.66 409.276   5
  -8  -5  17 1024.36 307.879   5
  -5   8  17 1518.53 411.545   3
  -5  -8 -17 1296.23 258.738   4
  -8  -5 -17 1091.92 287.534   4
   5   8  17 1412.70 356.823   6
   8   5  17 1707.83 393.129   6
  -8   5  19 1031.54 291.830   5
  -5   8  19 640.469 255.786   3
  -5   8  19 860.205 303.197   5
  -8  -5 -19 677.632 199.377   4
   5   8  19 586.568 233.157   6
   8   5  19 459.772 239.553   6
  -6   8   0 1639.95 400.415   3
   8  -6   0-52.4379 334.740   7
   6  -8   0 2985.24 1090.12   7
  -6  -8   0 1295.53 297.910   4
  -8  -6   0 1589.46 317.488   4
  -8  -6   0 1959.91 1028.54   1
  -6   8   0 1554.53 390.881   6
  -6   8   0 1190.15 631.312   2
  -6  -8   0 2585.29 1039.09   1
  -6  -8   2 19356.8 2763.36   1
  -8  -6   2 17109.8 2618.89   1
  -6  -8   2 19055.6 1026.89   4
   8  -6   2 17031.4 2426.43   7
  -6  -8  -2 19499.2 1030.50   4
  -6   8   2 19399.1 2502.05   2
  -8  -6  -2 19356.6 991.675   4
   6  -8   2 14750.8 2320.61   7
   6  -8  -2 16410.6 2127.59   7
  -6   8   2 19800.4 1103.71   6
  -8   6  -2 19361.9 1075.63   3
  -6   8  -2 14795.9 2067.96   2
  -6   8  -2 19409.0 1140.18   3
  -8   6   2 19324.4 1093.54   3
  -6   8   2 19373.5 1186.45   3
  -6   8  -4 820.848 298.358   3
  -8   6   4 439.878 242.532   3
  -6   8   4 794.633 353.418   3
   6  -8   4 1630.06 877.106   7
  -6  -8   4 1738.85 967.285   1
   8  -6   4 871.677 654.169   7
  -8   6  -4 1329.58 868.330   9
  -6  -8   4 631.652 286.588   4
  -6  -8  -4 728.267 305.399   4
  -8  -6  -4 1023.19 329.966   4
  -6   8  -4 182.113 317.716   2
  -6   8   4 836.897 337.626   6
  -8  -6   4-76.1122 520.196   1
   6   8   4 792.297 397.151   6
  -6   8   4-412.004 389.973   2
  -8   6  -4 770.994 296.820   3
  -6   8   6 1823.35 473.142   5
  -8   6  -6 662.619 768.358   9
   6  -8  -6 8043.93 2671.82   8
   8  -6  -6 8340.77 1988.50   8
  -6  -8   6 148.865 625.101   1
  -8   6   6 1600.42 380.278   3
  -6   8   6 1374.29 401.222   3
  -8  -6   6 1332.47 790.633   1
   8  -6   6 4384.89 1419.51   7
  -6  -8   6 1413.39 340.205   4
   6  -8   6 2828.72 1164.16   7
  -6  -8  -6 1645.30 354.244   4
  -8  -6  -6 1801.33 377.134   4
  -6   8   6 1496.17 394.882   6
   6   8   6 1518.16 414.703   6
   8   6   6 1686.60 416.762   6
  -6   8   6 938.155 622.563   2
  -6   8  -6 1960.93 447.377   3
  -6   8   8 2612.94 542.893   5
  -8   6   8 3307.36 549.073   3
  -8  -6   8 3883.34 1361.13   1
  -6   8   8 3100.71 579.337   3
   6  -8  -8 3882.14 2257.52   8
   8  -6  -8 4559.17 2221.68   8
  -6  -8  -8 3751.18 506.403   4
   8  -6   8 5071.26 1608.09   7
   6  -8   8 2266.03 1107.04   7
  -8   6  -8 3177.47 1178.10   9
  -8  -6  -8 4179.31 519.417   4
  -6   8   8 3402.52 506.070   6
   6   8   8 3971.67 656.206   6
   8   6   8 2714.28 578.753   6
  -6   8   8 3004.06 1203.84   2
  -6  -8   8 964.127 896.822   1
  -6   8  10 452.362 395.309   5
  -8   6  10 879.249 418.230   5
  -8   6  10 675.999 294.586   3
  -6   8  10 542.290 375.417   3
  -6  -8 -10 212.419 240.474   4
  -8  -6 -10 98.1798 242.641   4
   6   8  10-269.867 430.585   6
   8   6  10 134.035 308.838   6
  -6   8  12 1566.18 519.968   5
  -8   6  12 1381.45 432.416   5
  -8   6  12 961.639 357.004   3
  -6   8  12 1555.58 500.675   3
  -6  -8 -12 1276.06 365.937   4
  -8  -6 -12 840.719 304.238   4
   6   8  12 1128.81 433.178   6
   8   6  12 507.486 381.291   6
  -8   6  14 4059.94 639.813   5
  -6  -8 -14 4453.56 532.384   4
  -8  -6 -14 4548.61 540.108   4
   6   8  14 4522.65 649.936   6
   8   6  14 4614.16 682.775   6
  -8   6  14 4680.82 586.335   3
  -6   8  14 5218.37 731.033   3
  -6   8  14 4997.21 750.101   5
  -6   8  16 436.966 334.668   5
  -8   6  16 332.646 323.325   5
  -6   8  16 842.871 354.411   3
  -6  -8 -16 375.585 202.800   4
  -8  -6 -16 448.250 227.582   4
   6   8  16 353.179 318.257   6
   8   6  16 1009.02 396.668   6
  -6   8  18 66.6369 238.068   5
  -8   6  18 169.999 195.702   5
  -6   8  18-56.9447 199.793   3
  -6  -8 -18 270.604 161.474   4
  -8  -6 -18 301.566 182.756   4
   6   8  18 824.377 274.367   6
   8   6  18 194.744 235.187   6
   8   6  20 477.994 176.132   6
  -6   8  20 177.373 150.591   5
  -7  -8  -1 8066.43 1843.55   1
  -8  -7   1 12995.3 2197.08   1
  -7  -8   1 10042.4 782.391   4
  -8  -7   1 10303.2 757.102   4
  -7  -8  -1 10035.5 779.417   4
  -8  -7  -1 10629.2 774.196   4
   8  -7   1 7891.74 1776.42   7
   7  -8   1 10574.8 1962.69   7
   7  -8  -1 10992.4 2047.95   7
  -7   8   1 11587.8 880.583   6
  -8   7  -1 9336.53 800.786   3
  -7   8  -1 11265.2 901.990   3
  -8   7   1 10163.3 836.946   3
  -7   8   1 10635.2 889.902   3
  -8  -7   3 20968.9 3231.03   1
  -7  -8   3 25274.0 1220.92   4
  -8  -7   3 25047.7 1170.38   4
   8  -7   3 24484.9 3003.82   7
  -7  -8  -3 25098.8 1205.08   4
   7  -8   3 23154.8 3073.67   7
  -8  -7  -3 24052.3 1168.44   4
  -7   8   3 27849.3 1354.80   6
  -8   7  -3 27020.2 1322.05   3
  -7   8  -3 26566.9 1343.31   3
  -8   7   3 24239.1 1289.51   3
  -7   8   3 23671.0 1323.72   3
  -7  -8   3 19565.4 2965.16   1
  -8   7  -5 8334.64 1780.15   9
  -7  -8   5 12934.3 905.535   4
  -8  -7   5 13736.0 880.481   4
  -7  -8  -5 14220.3 937.575   4
  -8  -7  -5 12882.5 885.431   4
   8  -7   5 13507.1 2378.55   7
   7  -8   5 10321.9 2142.04   7
  -7   8   5 16222.9 1043.12   6
  -7  -8   5 11348.3 2307.21   1
  -8   7  -5 12914.7 961.553   3
   7   8   5 11566.6 960.394   6
  -7   8  -5 13401.1 995.116   3
   8   7   5 12267.8 962.575   6
  -8  -7   5 12908.7 2429.04   1
  -8   7   5 13135.6 993.723   3
  -7   8   5 12832.0 1011.03   3
  -8   7  -7 10686.0 2133.90   9
   7  -8  -7 8358.72 3041.16   8
   8  -7  -7 12260.9 3490.22   8
  -7  -8   7 15336.1 2690.97   1
  -7  -8  -7 13917.6 940.136   4
  -8  -7  -7 13420.2 907.072   4
   8  -7   7 9214.58 2125.17   7
   7  -8   7 8303.49 2011.20   7
  -8  -7   7 13140.4 2482.54   1
   7   8   7 11866.9 995.964   6
   8   7   7 13166.6 1033.62   6
  -8   7   7 12681.6 999.130   3
  -7   8   7 12700.2 1051.27   3
  -7   8   7 12583.4 1048.70   5
  -7  -8  -9 20057.4 1126.48   4
  -8  -7  -9 21480.1 1154.67   4
   7   8   9 18914.7 1261.96   6
   8   7   9 18828.0 1239.97   6
  -8   7   9 19896.6 1248.68   3
  -7   8   9 18566.4 1274.03   3
  -7   8   9 18948.1 1304.53   5
  -8   7   9 19114.1 1250.21   5
  -7  -8 -11 7102.82 714.983   4
  -8  -7 -11 7614.82 709.877   4
   7   8  11 6375.19 794.451   6
   8   7  11 6709.71 801.020   6
  -8   7  11 6497.24 743.322   3
  -7   8  11 6303.65 767.040   3
  -7   8  11 6186.68 785.511   5
  -8   7  11 6572.07 756.908   5
  -7   8  13 1687.85 492.548   5
  -8   7  13 1253.23 394.454   5
  -8   7  13 1449.89 419.276   3
  -7   8  13 1539.57 451.873   3
  -7  -8 -13 1634.96 363.267   4
  -8  -7 -13 1429.32 357.183   4
   7   8  13 1166.32 436.586   6
   8   7  13 2435.13 531.450   6
  -7  -8 -15 7878.29 634.559   4
  -8  -7 -15 8426.35 663.916   4
   7   8  15 7327.11 748.246   6
   8   7  15 8194.24 780.013   6
  -8   7  15 8954.80 735.536   3
  -7   8  15 7616.41 744.204   3
  -7   8  15 8284.88 833.367   5
  -8   7  15 8270.92 782.747   5
  -7  -8  17 6637.56 701.568   5
  -7  -8 -17 7569.53 534.031   4
  -8  -7 -17 7996.51 556.597   4
   7   8  17 7818.88 648.319   6
   8   7  17 8183.96 677.277   6
  -7   8  17 7872.94 637.560   3
  -7   8  17 8749.09 740.805   5
  -8   7  17 8483.36 694.975   5
  -8  -7 -19 3375.20 289.327   4
   7   8  19 4123.77 375.092   6
   8   7  19 4029.70 380.422   6
  -8  -8   0 7618.02 693.382   4
  -8   8   0 8429.03 778.757   3
  -8  -8   2 72054.1 6044.93   1
  -8  -8   2 71775.1 2059.66   4
  -8  -8  -2 71599.2 2073.61   4
  -8   8  -2 76622.3 2288.72   3
  -8   8   2 71408.3 2246.16   3
  -8  -8   4 34361.0 4157.03   1
  -8  -8   4 36883.3 1491.10   4
  -8  -8  -4 40365.6 1572.54   4
   8  -8   4 34854.5 3912.69   7
  -8   8  -4 41603.1 1712.38   3
  -8   8   4 38428.9 1688.44   3
  -8  -8  -6 23158.3 1216.63   4
   8   8   6 19600.3 1212.93   6
  -8   8   6 23168.8 1343.51   3
  -8  -8  -8 12182.6 933.591   4
   8   8   8 10145.1 923.050   6
  -8   8   8 10721.2 932.590   3
  -8   8   8 12204.0 995.869   5
  -8  -8 -10 23159.8 1217.72   4
   8   8  10 22714.2 1366.92   6
  -8   8  10 23016.2 1351.55   3
  -8   8  10 24372.4 1409.53   5
  -8  -8 -12 14870.0 953.032   4
   8   8  12 15740.5 1135.58   6
  -8   8  12 15565.8 1061.98   3
  -8   8  12 15918.8 1128.04   5
  -8  -8 -14 29363.5 1213.60   4
   8   8  14 26520.2 1322.54   6
  -8   8  14 26493.1 1287.54   3
  -8   8  14 28324.1 1401.88   5
  -8  -8 -16 18413.2 849.489   4
   8   8  16 17833.3 961.044   6
  -8   8  16 18803.4 911.174   3
  -8  -8 -18 11731.7 529.724   4
   8   8  18 11568.9 627.579   6
   0   9   1 48651.0 3947.11   2
   9   0  -1 44702.8 3225.89   7
   9   0   1 49119.6 3540.92   7
   0  -9   1 48403.4 4003.84   7
   0  -9  -1 46443.9 3860.74   7
   9   0   3 7185.93 1481.59   7
   9   0  -3 7434.52 1257.25   7
   0  -9   3 8578.66 1691.63   7
   0   9   3 7372.48 1562.78   2
   0  -9   3 5624.52 1135.46   1
  -9   0  -5 11514.2 2101.03   9
   9   0   5 9470.34 1882.52   7
   0  -9   5 9644.91 1884.39   7
   0  -9   5 8417.35 1598.21   1
   0   9   5 9233.93 1817.54   2
  -9   0  -7 12849.0 2278.31   9
   9   0   7 12398.2 2046.29   7
   0  -9   7 13346.5 2244.81   7
   0  -9   7 12173.8 2058.46   1
   0   9   7 13933.9 958.452   6
   0   9   7 10755.4 2182.09   2
   0   9   7 13942.5 1120.99   5
   0   9   7 12786.9 1029.71   3
  -9   0  -9 16375.3 2658.21   9
   0  -9   9 18107.6 2681.34   1
   9   0   9 16665.7 2527.06   7
   0   9   9 20859.0 3027.57   2
   0  -9   9 18733.0 2727.60   7
   0   9   9 19072.2 1164.22   6
   0   9   9 18777.3 1351.80   5
  -9   0 -11 1656.45 1082.92   9
   0   9  11 1225.92 396.192   5
   0  -9  11 1688.25 1011.84   1
   9   0  11 96.3915 252.366   7
   0  -9  11-851.005 839.054   7
   0   9  11 1029.96 343.183   6
   0   9  13 21662.5 1249.03   6
   0   9  13 20640.3 1440.21   5
   0   9  15 11233.2 867.001   6
   0   9  15 9237.76 949.017   5
   0   9  17 15568.4 875.884   6
   0   9  17 13491.1 1044.08   5
   0   9  19 1835.99 362.900   5
   0   9  19 1447.90 369.746   3
   9   0  19 1197.97 322.476   6
   0   9  21 151.137 162.688   3
   0  -9  21 751.050 260.954   5
  -1  -9   0 2451.43 861.478   1
   1   9   0 4314.68 1211.80   2
   9  -1   0 3185.72 996.907   7
   1  -9   0 3752.65 1161.28   7
  -1   9   0 4031.78 1134.10   2
  -1  -9   2 3413.44 979.727   1
   9  -1   2 1507.13 726.124   7
   9  -1  -2 2240.99 874.221   7
   1  -9   2 2110.09 925.511   7
  -1  -9   2-265.853 575.057   7
   1  -9  -2 1335.22 741.005   7
   1   9   2 2188.92 912.108   2
  -1   9   2 2280.76 854.753   2
  -9  -1   4-512.709 478.044   1
  -9   1  -4 48.2928 549.135   9
   9  -1  -4 115.786 884.918   8
   1  -9  -4 238.728 845.777   8
   9  -1   4 2317.79 890.260   7
   1  -9   4 116.534 564.131   7
  -1  -9   4-615.123 603.738   7
  -1  -9   4-482.564 372.892   1
   1   9   4 1212.41 716.164   2
  -1   9   4 1218.36 793.212   2
  -9   1  -6 74.1351 549.748   9
  -1   9   6 1196.02 417.174   5
  -9  -1  -6-399.075 554.880   9
   1  -9  -6 461.509 567.304   8
  -1   9   6 904.011 356.997   3
   9   1   6 288.804 503.227   7
   9  -1   6 1754.06 824.851   7
  -1  -9   6 1185.88 726.286   1
   1  -9   6-1037.78 780.028   7
  -1  -9   6 514.283 579.138   7
  -1   9   6 445.934 256.253   6
   1   9   6 275.804 281.050   6
   1   9   6 1448.89 815.900   2
  -1   9   6 398.025 614.259   2
   1   9   6 687.069 354.144   5
  -9   1  -8 1658.79 973.828   9
   1  -9  -8 2794.54 1687.48   8
   1  -9   8 1336.15 820.298   1
  -1  -9   8 3297.38 1189.45   1
   9   1   8 2609.88 1032.64   7
   9  -1   8 3357.04 1083.59   7
  -9  -1  -8 3399.05 1254.92   9
  -1   9   8 2686.30 566.268   5
   1  -9   8 709.906 677.299   7
  -1  -9   8 2702.63 1066.39   7
   1   9   8 2356.18 560.422   5
  -1   9   8 2223.04 434.497   6
   1   9   8 2130.45 472.900   6
  -1   9   8 343.365 375.882   2
   1   9   8 24.6082 458.113   2
  -9  -1 -10-2985.52 1121.65   9
   1   9  10 1534.48 485.982   5
  -9   1 -10 2730.50 1192.98   9
  -1   9  10 961.903 440.220   5
   1  -9  10-1107.74 693.313   1
  -1  -9  10 2746.89 1193.18   1
   9   1  10 750.796 594.736   7
   9  -1  10-1818.54 923.101   7
   1  -9  10 1871.78 987.404   7
  -1  -9  10 30.8866 635.393   7
  -1   9  10 1001.91 375.137   6
   1   9  10 1344.33 445.353   6
  -1   9  10 1883.02 980.516   2
   1   9  10 2051.86 1057.52   2
   1   9  12-284.843 346.985   5
  -1   9  12 9.24487 352.533   5
  -1   9  12 590.851 349.752   6
   1   9  12 596.539 356.723   6
   1   9  14 524.599 363.680   5
  -1   9  14 615.415 386.082   5
  -1   9  14 700.887 324.565   6
   1   9  14 889.315 377.137   6
   1   9  16 972.113 400.768   5
  -1   9  16 732.003 412.346   5
  -1   9  16 588.787 276.516   6
   1   9  16 1315.41 371.715   6
   1   9  18 350.425 234.229   5
  -1   9  18 45.7957 272.723   5
  -1   9  18 2.13088 294.364   3
   1   9  18 484.267 211.912   6
   9   1  18 4.38180 256.589   6
   9  -1  18 44.3349 248.686   6
  -1   9  20 371.837 212.317   3
   1   9  20 349.416 205.449   3
   9   1  20 188.857 161.151   6
   9  -1  20 660.405 222.660   6
  -1   9  20 662.787 238.302   5
  -2   9  -1 30527.3 3166.09   2
   2   9   1 29927.3 3104.64   2
  -2  -9  -1 33547.0 3086.96   1
  -2   9   1 32153.1 3180.16   2
   9  -2   1 31354.9 2872.70   7
   9  -2  -1 35787.4 2861.10   7
   2  -9   1 31026.6 3164.92   7
   2  -9  -1 31910.8 3121.90   7
  -2  -9   1 31942.7 2981.19   1
  -9  -2   3 19671.2 2429.86   1
   9  -2   3 19291.1 2374.86   7
   2   9   3 19108.3 2456.55   2
  -2   9   3 17117.2 2383.78   2
   2  -9   3 18642.0 2576.27   7
   2  -9  -3 16415.1 2179.92   7
  -2  -9   3 19233.2 2366.08   1
  -9   2  -5 5501.84 1581.95   9
  -9  -2   5 8585.05 1492.54   1
   9  -2  -5 11766.1 2935.38   8
   9  -2   5 9938.85 1797.06   7
   2  -9   5 5874.33 1539.46   7
  -2  -9   5 8367.97 1794.03   7
   2  -9  -5 2364.17 1397.86   8
  -2   9   5 9231.20 756.953   6
   2   9   5 8931.95 782.212   6
  -2  -9   5 7528.36 1658.21   1
   2   9   5 6550.31 1536.90   2
  -2   9   5 6571.73 1592.09   2
  -2   9   5 9126.73 874.484   3
  -2   9   5 8735.53 867.960   5
  -9  -2  -7 7851.97 1742.19   9
  -9   2  -7 5318.25 1533.74   9
   2  -9  -7 3393.21 1721.48   8
   9  -2  -7 10306.0 2775.64   8
  -2  -9  -7 8799.32 669.655   4
   9  -2   7 7747.80 1823.65   7
   2  -9   7 6658.09 1697.97   7
  -2  -9   7 6740.82 1616.35   7
  -2  -9   7 9457.51 1963.98   1
  -2   9   7 8491.22 735.957   6
   2   9   7 7316.11 751.102   6
  -2   9  -7 8817.14 781.922   3
  -9  -2   7 6875.89 1529.21   1
  -2   9   7 10530.0 2071.92   2
   2   9   7 8427.89 1922.83   2
   2   9   7 8697.14 866.766   5
  -2   9   7 8292.79 870.436   3
  -2   9   7 8785.20 931.050   5
  -9  -2  -9 22357.8 3027.21   9
  -9   2  -9 20004.7 3016.81   9
   2  -9  -9 20761.9 4060.01   8
   9  -2  -9 25088.4 4397.11   8
   9   2   9 19666.4 2757.96   7
   9  -2   9 23467.9 3001.75   7
  -2  -9  -9 21823.6 1056.56   4
  -2   9   9 20359.9 2995.84   2
   2   9   9 19271.5 2988.99   2
   2  -9   9 18506.4 2953.67   7
  -2   9   9 21329.8 1177.48   6
   2   9   9 21497.6 1274.30   6
  -2  -9   9 22697.9 3102.83   1
   2   9   9 20777.5 1355.03   5
  -2   9   9 22297.5 1463.45   3
  -2   9   9 20936.6 1446.18   5
   2   9  11 118.568 393.734   5
  -9  -2 -11-12.7899 568.599   9
  -9   2 -11 1605.57 909.618   9
   2  -9 -11 1172.81 1414.36   8
  -2  -9  11-1728.86 1085.49   1
   9   2  11 259.668 404.995   7
  -2   9  11 643.776 416.832   5
  -2   9  11-20.0376 285.339   6
   2   9  11-76.1538 332.436   6
   2   9  11-2627.61 1099.11   2
  -2   9  13 30407.2 1355.07   6
   2   9  13 30373.9 1522.47   6
   2   9  13 29816.1 1610.99   5
  -2   9  13 30019.0 1777.08   5
  -2   9  15 9527.47 723.905   6
   2   9  15 10429.6 885.945   6
   9   2  15 7972.65 836.003   6
   2   9  15 9565.79 890.310   5
  -2   9  15 9196.20 989.824   5
   2   9  17 12702.9 836.936   6
   9   2  17 11571.6 897.157   6
   2   9  17 12055.3 885.292   5
  -2   9  17 12959.3 1049.94   3
  -2   9  17 11841.8 1004.57   5
  -9   2  17 11245.9 869.483   5
   2   9  19 5193.92 447.453   6
   9   2  19 5200.63 531.116   6
   9  -2  19 4714.14 482.031   6
  -2   9  19 5501.40 609.175   3
  -2   9  19 5473.59 587.802   5
   2   9  19 4489.79 504.845   3
  -2   9  21 1029.33 227.752   3
  -2  -9  21 1135.42 291.539   5
  -9  -2 -21 1282.40 182.868   4
  -3  -9   0 45191.2 3767.82   1
   3   9   0 45921.1 3792.76   2
  -3   9   0 48802.7 4020.34   2
   9  -3   0 49856.2 3565.04   7
   3  -9   0 44733.5 3743.09   7
  -3  -9   2 23298.2 2742.99   1
   3   9   2 25750.9 2836.66   2
  -9  -3   2 25799.8 2907.66   1
  -3   9   2 29394.3 3156.09   2
   9  -3   2 27672.0 2876.29   7
  -3  -9  -2 30125.4 2964.19   1
   3  -9   2 27964.8 3063.76   7
   3  -9  -2 24068.2 2653.78   7
  -9   3  -4 16604.9 2579.91   9
  -9  -3   4 22852.5 2743.76   1
  -3  -9   4 21294.5 1141.26   4
   9  -3   4 20353.9 2596.38   7
  -3  -9  -4 21265.6 1065.90   4
   3   9   4 20808.6 2632.47   2
  -3   9   4 20775.9 2696.08   2
   3  -9   4 21051.8 2814.34   7
  -3   9  -4 23566.8 1234.48   6
  -3   9   4 21234.7 1086.93   6
   3   9   4 20598.9 1140.57   6
  -3   9  -4 22229.6 1184.81   3
  -3   9   4 21566.0 1289.57   3
  -3  -9   4 17335.1 2535.58   1
  -9   3  -6 17945.9 2651.15   9
  -9  -3   6 20127.0 2632.52   1
   3  -9  -6 12511.3 3117.71   8
   9  -3  -6 14877.5 3314.97   8
   9  -3   6 18258.7 2621.66   7
  -3  -9  -6 18140.8 989.320   4
   3   9   6 15384.8 2441.15   2
   3  -9   6 17005.7 2639.77   7
  -3   9   6 18540.4 1035.82   6
   3   9   6 16887.3 1113.79   6
  -3   9  -6 17578.8 1073.84   3
  -3  -9   6 15861.8 2410.37   1
  -3   9   6 16508.1 2491.34   2
  -3   9   6 20654.9 1319.00   3
  -3   9   6 17492.6 1260.95   5
  -9  -3   8 26307.0 3077.59   1
  -9   3  -8 22480.5 3065.36   9
   3  -9  -8 24439.6 4439.02   8
   9  -3  -8 20264.1 4089.17   8
   9  -3   8 23111.2 3060.88   7
  -3  -9  -8 24332.9 1166.42   4
   3  -9   8 24941.8 3297.19   7
  -3   9   8 30604.2 3624.52   2
   3   9   8 30620.2 3434.41   2
  -3   9   8 23923.4 1203.23   6
   3   9   8 25439.7 1397.98   6
  -3  -9   8 24615.5 3291.69   1
  -3   9   8 25902.8 1534.04   3
  -3   9   8 27380.7 1634.78   5
  -9   3 -10 6667.20 1736.41   9
  -3   9  10 4059.91 722.359   5
   3  -9 -10 4213.81 2434.31   8
   9  -3 -10 4266.48 2165.72   8
  -3   9  10 4419.72 700.032   3
  -3  -9 -10 4553.45 532.576   4
   9   3  10 3461.97 1165.30   7
   9  -3  10 4039.91 1341.46   7
   3  -9  10 4917.17 1554.34   7
  -3  -9  10 6436.36 1735.93   1
  -3   9  10 4249.60 529.386   6
   3   9  10 4262.44 653.147   6
   3   9  10 5182.69 687.685   5
  -3   9  10 3122.58 1228.20   2
   3   9  10 5191.57 1556.02   2
  -3  -9 -12 13111.1 854.939   4
  -3   9  12 13051.1 892.189   6
   3   9  12 12234.6 1024.20   6
   3   9  12 11384.4 974.029   5
  -3   9  12 12460.0 1145.22   3
  -3   9  12 12304.1 1177.69   5
   3   9  14 26893.5 1416.47   6
   9   3  14 26005.2 1459.05   6
  -3   9  14 27715.7 1654.16   3
  -3   9  14 28285.5 1734.78   5
   3   9  16 21133.3 1164.66   6
   9   3  16 18622.1 1147.15   6
  -3   9  16 19802.3 1311.59   3
  -3   9  16 20699.6 1362.11   5
  -9   3  16 22128.5 1246.61   5
   3   9  18 12291.9 753.087   6
   9   3  18 12371.9 830.356   6
  -3   9  18 12322.5 926.814   3
  -3   9  18 11645.9 901.553   5
  -9   3  18 11472.8 786.548   5
   3   9  20 2853.89 330.251   3
  -9  -3 -20 3469.42 318.628   4
   9   3  20 3162.39 353.594   6
  -3   9  20 3610.64 417.993   3
   9  -3  20 2618.91 279.023   6
  -3   9  20 3742.98 428.579   5
  -4   9  -1 1147.21 337.999   3
  -4   9   1 939.696 303.799   3
   4   9  -1 295.430 387.581   2
  -9  -4   1 493.692 434.024   1
   9  -4   1-625.091 474.752   7
   9  -4  -1-1578.96 704.716   7
   4  -9   1 664.895 722.102   7
   4  -9  -1-1472.13 833.798   7
  -4  -9   1 1200.36 302.953   4
  -4  -9  -1 352.367 530.538   1
  -4  -9  -1 1298.83 345.064   4
  -4   9  -1-76.0865 344.307   2
   4   9   1 50.5453 389.426   2
  -4   9  -1 1390.79 372.372   6
  -4   9   1 1730.28 399.747   6
  -4   9   1 1140.07 645.222   2
  -4  -9   1 490.960 661.605   1
  -4   9   3 3992.57 595.887   3
  -4  -9   3 4550.86 530.858   4
  -4  -9  -3 4057.17 512.655   4
  -4  -9   3 2517.45 950.024   1
   9  -4   3 5737.21 1405.67   7
   4  -9   3 2254.50 946.717   7
   4  -9  -3 4019.80 1109.64   7
  -4   9  -3 4251.13 609.081   6
  -9  -4   3 3224.09 1173.90   1
  -4   9   3 5318.95 596.451   6
  -4   9  -3 3944.24 554.189   3
   4   9   3 4648.49 1225.26   2
  -4   9   3 4661.84 1285.37   2
   4   9   3 4150.54 552.864   6
  -4  -9   5 2982.87 1192.79   1
  -9   4  -5 3879.78 1279.76   9
  -4   9   5 2978.07 569.529   3
   9  -4   5 1827.31 909.981   7
  -4  -9   5 2616.06 433.568   4
   4  -9   5 3251.05 1307.65   7
  -4  -9  -5 2779.06 451.165   4
  -9  -4  -5 2869.99 387.640   4
  -4   9   5 2497.80 425.964   6
   4   9   5 2478.70 493.723   6
  -4   9   5 2142.96 960.577   2
  -9  -4   5 3667.08 1175.24   1
  -4   9   5 2545.94 542.777   5
  -4   9  -5 2464.30 460.814   3
  -9   4  -7 7145.14 1733.52   9
   4  -9  -7 9651.94 2958.51   8
   9  -4  -7 5726.92 2377.22   8
  -4  -9  -7 8756.82 722.733   4
   9  -4   7 10254.9 2062.57   7
   4  -9   7 3966.16 1411.18   7
  -4   9   7 7631.91 695.500   6
  -9  -4   7 8717.43 1850.10   1
  -4   9  -7 8643.80 810.566   3
   4   9   7 7343.55 816.552   6
  -4  -9   7 7851.91 1953.66   1
  -4   9   7 9718.24 987.307   3
  -4   9   7 8653.18 1969.03   2
   4   9   7 8699.98 1866.67   2
  -4   9   7 8869.16 944.986   5
  -4   9   9 557.063 389.746   5
   4  -9  -9-1056.85 1649.40   8
   9  -4  -9 5578.55 2454.95   8
  -4   9   9 440.746 364.926   3
  -9  -4   9 2124.64 1050.07   1
   9  -4   9 1351.30 807.444   7
   4  -9   9 3774.14 1370.75   7
  -4  -9  -9 679.552 337.298   4
  -4  -9   9 1468.10 990.469   1
  -4   9   9 227.322 246.749   6
   4   9   9 223.050 346.880   6
  -4   9   9 3112.53 1275.63   2
  -9   4  -9-752.210 579.275   9
  -4   9  11 2810.42 650.200   5
  -4   9  11 2047.21 547.555   3
  -4  -9 -11 2298.31 416.226   4
  -4   9  11 2297.99 419.024   6
   4   9  11 1667.53 460.870   6
   9   4  11 2233.63 556.448   6
  -4   9  13 990.246 464.417   5
  -4   9  13 608.636 373.207   3
  -4  -9 -13 745.744 276.167   4
   4   9  13 481.821 370.107   6
   9   4  13 457.889 436.849   6
  -4   9  15 1332.43 462.326   5
  -9   4  15 998.275 353.896   5
  -4   9  15 1019.08 436.691   3
  -4  -9 -15 1587.11 301.424   4
   4   9  15 1220.14 413.218   6
   9   4  15 1832.30 486.534   6
  -4   9  17 2236.00 488.552   5
  -9   4  17 1136.73 318.890   5
  -4   9  17 2227.43 471.482   3
  -9  -4 -17 1793.38 324.349   4
   4   9  17 1720.01 371.225   6
   9   4  17 2036.94 415.520   6
  -4   9  19-181.002 223.073   5
  -4   9  19 897.669 289.432   3
   4   9  19 59.4357 150.805   3
  -9  -4 -19 675.784 192.526   4
   4   9  19 401.828 179.728   6
   9   4  19 265.435 215.329   6
   9  -4  19 258.535 178.806   6
  -5  -9   0 34490.4 3760.22   1
   5   9   0 33298.5 3217.32   2
  -5   9   0 41639.9 3809.80   2
  -5  -9   0 39166.7 1526.82   4
   9  -5   0 35297.5 3213.96   7
   5  -9   0 38459.8 3535.78   7
  -5   9   0 47174.0 1748.19   6
  -5   9   0 41207.0 1721.22   3
  -9  -5   2 3494.29 1252.75   1
   5   9  -2 2195.39 942.843   2
  -5  -9   2 7135.11 697.103   4
  -5  -9  -2 7089.65 665.777   4
  -9  -5  -2 6983.62 594.275   4
   9  -5   2 8027.40 1645.23   7
   5  -9   2 6279.15 1616.31   7
   5  -9  -2 3915.28 1133.05   7
  -5   9  -2 8118.89 794.395   6
  -5   9   2 6938.99 698.206   6
  -9   5  -2 6936.86 634.172   3
  -5   9  -2 8186.28 1627.26   2
  -5   9  -2 7254.40 748.498   3
   5   9   2 6499.97 1365.48   2
  -5   9   2 6058.82 1451.45   2
  -5   9   2 7352.61 761.505   3
  -5  -9   2 5679.93 1633.79   1
  -9  -5   4 8789.89 1900.64   1
  -5  -9   4 10269.6 828.075   4
  -5  -9  -4 10271.4 798.477   4
  -9  -5  -4 10424.6 743.393   4
  -5  -9   4 12524.6 2306.21   1
   9  -5   4 8090.76 1750.71   7
   5  -9   4 9438.71 2074.21   7
  -5   9   4 11120.4 840.927   6
  -9   5  -4 9772.60 778.549   3
   5   9   4 9119.38 824.439   6
  -5   9  -4 10384.8 866.232   3
  -5   9   4 9691.62 911.800   3
  -5   9   4 8147.45 1699.22   2
  -5   9   6 3102.42 582.848   5
  -5  -9   6 3179.31 1278.18   1
  -5   9   6 2385.55 522.743   3
   5  -9  -6 5215.89 2448.07   8
   9  -5  -6 4958.49 2493.48   8
   9  -5   6 997.509 886.202   7
   5  -9   6 3349.80 1263.03   7
  -5  -9  -6 2329.98 432.721   4
  -9  -5  -6 2166.12 368.521   4
  -5   9   6 3079.60 497.175   6
  -9   5  -6 2060.10 950.752   9
  -9  -5   6 3697.50 1274.14   1
   5   9   6 2342.86 522.571   6
  -5   9   6 4332.72 1361.70   2
   9   5   6 1913.85 474.039   6
  -5   9  -6 2719.08 499.410   3
  -5   9   8 834.999 459.477   5
  -9   5  -8 2196.44 1082.41   9
  -5   9   8 879.626 335.576   3
   5  -9  -8-2251.75 2125.16   8
   9  -5  -8-144.907 943.582   8
   9  -5   8-2869.20 1164.19   7
   5  -9   8-1227.65 1022.57   7
  -9  -5   8-2001.67 1082.44   1
  -5  -9  -8 903.418 331.612   4
  -9  -5  -8 663.794 280.574   4
  -5   9   8 1567.86 379.267   6
   5   9   8 940.270 447.166   6
   9   5   8 1508.43 430.514   6
  -5  -9   8 799.428 704.075   1
  -5   9   8 569.641 597.721   2
  -5   9  10 1248.55 461.664   5
  -5   9  10 758.176 440.682   3
  -5  -9 -10 1305.50 384.178   4
  -9  -5 -10 1273.53 343.549   4
  -5   9  10 1495.58 374.323   6
   5   9  10 986.605 408.822   6
   9   5  10 585.695 345.355   6
  -5  -9 -12 6800.34 658.781   4
  -9  -5 -12 6938.26 675.614   4
   5   9  12 6373.33 801.350   6
   9   5  12 6894.59 795.607   6
  -5   9  12 7146.32 869.438   3
  -5   9  12 7485.98 901.672   5
  -5  -9 -14 7397.75 636.848   4
  -9  -5 -14 8201.80 701.112   4
   5   9  14 8476.51 833.615   6
   9   5  14 9152.74 866.235   6
  -5   9  14 8633.37 900.337   3
  -5   9  14 8593.55 916.715   5
  -5  -9 -16 4675.93 445.164   4
  -9  -5 -16 4614.74 490.120   4
   5   9  16 5305.12 610.359   6
   9   5  16 6330.83 683.077   6
  -5   9  16 5671.75 690.570   3
  -5   9  16 5983.87 734.707   5
  -9   5  16 5597.00 610.990   5
  -5   9  18 1276.70 349.170   5
  -9   5  18 911.782 255.380   5
  -5   9  18 954.918 288.927   3
  -9  -5 -18 1279.65 249.563   4
   5   9  18 1688.63 317.361   6
   9   5  18 1413.80 323.676   6
  -9  -6   1 6023.94 1626.58   1
  -6  -9   1 5378.52 609.602   4
  -6  -9  -1 4866.27 588.022   4
  -9  -6   1 4933.79 512.397   4
  -9  -6  -1 6227.60 591.151   4
   9  -6   1 4959.99 1349.77   7
   6  -9   1 2351.66 1072.51   7
   6  -9  -1 5382.86 1494.15   7
  -6   9  -1 5939.12 697.917   6
  -6   9   1 5844.20 678.808   6
  -6  -9   1 7395.16 1841.17   1
  -9   6  -1 4713.52 585.136   3
  -9   6   1 5758.23 635.261   3
  -6   9  -1 5176.17 629.450   3
  -6   9  -1 3718.29 1174.37   2
  -6   9   1 5669.49 683.318   3
  -6   9   1 4679.03 1266.22   2
  -6  -9  -1 5534.34 1577.23   1
  -6  -9   3 16134.1 1021.15   4
  -6  -9  -3 16405.0 1037.09   4
  -9  -6  -3 16179.9 941.651   4
   9  -6   3 14320.2 2280.18   7
   6  -9   3 16063.6 2604.90   7
  -6   9   3 17499.5 1081.27   6
  -9  -6   3 17288.5 2785.44   1
   6   9   3 14763.5 982.196   6
  -9   6  -3 15934.3 1012.46   3
  -6   9  -3 17805.1 1129.69   3
  -9   6   3 16517.8 1014.57   3
  -6   9   3 16062.8 1137.82   3
  -6  -9   3 14607.7 2571.99   1
  -6   9   3 14806.2 2257.86   2
  -9  -6   5 5410.02 1593.85   1
  -9   6   5 4593.60 568.062   3
  -6  -9   5 5258.75 629.700   4
  -6  -9  -5 4444.71 570.684   4
  -9  -6  -5 5572.72 594.043   4
   9  -6   5 3440.72 1318.14   7
   6  -9   5 4526.76 1586.39   7
  -6  -9   5 3171.05 1366.01   1
  -6   9   5 5344.95 628.776   6
  -6   9  -5 4455.40 608.218   3
  -6   9   5 4263.49 676.827   3
   6   9   5 4194.82 629.871   6
   9   6   5 3368.11 531.703   6
  -6   9   5 1335.97 745.071   2
  -6   9   7 1701.01 487.524   3
   6  -9  -7-1682.56 1744.20   8
   9  -6  -7-3536.81 2375.13   8
  -6  -9   7 2144.54 1182.73   1
  -9  -6  -7 3126.30 494.570   4
   9  -6   7 4001.70 1425.90   7
  -9   6  -7 4270.62 1427.51   9
   6  -9   7 2771.15 1282.04   7
  -6  -9  -7 2790.69 471.164   4
  -9  -6   7 1426.16 962.533   1
  -6   9   7 2456.49 473.029   6
   6   9   7 1937.39 477.941   6
   9   6   7 2207.87 453.509   6
  -6   9   7 2307.39 541.183   5
  -6   9   7 2459.95 1074.33   2
  -6   9   9 534.757 304.660   5
  -6   9   9 614.397 374.427   3
  -6  -9  -9 133.896 246.374   4
  -9  -6  -9 159.652 227.581   4
  -6   9   9-64.2768 212.911   6
   6   9   9 78.7063 356.552   6
   9   6   9 473.409 342.517   6
  -6   9  11 1303.26 432.298   5
  -6   9  11 1526.79 457.992   3
  -6  -9 -11 1862.42 410.315   4
  -9  -6 -11 1478.88 368.804   4
   6   9  11 1088.95 433.336   6
   9   6  11 1586.30 444.419   6
  -6  -9 -13 7102.14 659.967   4
  -9  -6 -13 7586.62 680.133   4
   6   9  13 7584.99 809.927   6
   9   6  13 8161.20 853.040   6
  -6   9  13 7982.54 843.995   3
  -6   9  13 7083.47 851.238   5
  -9   6  13 5706.68 673.471   5
  -9   6  15 3469.11 469.592   5
  -6  -9 -15 4588.72 475.892   4
  -9  -6 -15 4232.16 484.600   4
   6   9  15 3959.08 563.329   6
   9   6  15 4998.38 633.668   6
  -6   9  15 4137.35 578.000   3
  -6   9  15 4394.30 653.673   5
  -6   9  17 1651.05 368.907   5
  -6   9  17 1712.35 348.164   3
  -9   6  17 1441.13 299.930   5
  -6  -9 -17 1799.93 266.324   4
  -9  -6 -17 1818.85 303.796   4
   6   9  17 1829.31 370.368   6
   9   6  17 1646.37 358.094   6
  -9  -6 -19 293.896 125.251   4
   6   9  19 173.422 141.778   6
   9   6  19 27.8538 157.381   6
  -7  -9   0 29034.1 1342.47   4
  -9  -7   0 27193.9 1222.55   4
  -7  -9   0 26438.6 3540.19   1
   7  -9   0 21596.2 2769.43   7
  -9   7   0 27483.3 1334.64   3
  -7   9   0 27125.1 1422.91   3
  -7   9  -2 1921.97 427.750   3
  -9   7   2 1288.83 321.268   3
  -7   9   2 1518.31 438.329   3
   9  -7   2-2195.36 1022.86   7
   7  -9   2-715.767 846.000   7
  -7  -9   2 1763.38 408.433   4
  -9  -7   2 943.335 301.146   4
  -7  -9  -2 1643.91 393.163   4
  -9  -7   2 4363.00 1536.28   1
  -9  -7  -2 1622.73 363.031   4
  -7  -9   2 1251.14 947.532   1
  -7   9   2 1583.58 454.971   6
  -9   7  -2 1641.32 372.203   3
  -9   7   4 3278.14 519.392   3
  -7   9   4 2797.01 547.053   3
  -9  -7   4 2399.95 1158.83   1
   9  -7   4-1152.00 799.452   7
   7  -9   4 1644.24 1075.82   7
  -7  -9   4 2280.64 420.940   4
  -9  -7   4 3067.46 418.509   4
  -7  -9  -4 2750.94 470.056   4
  -9  -7  -4 2895.62 461.524   4
  -7   9   4 3577.39 542.919   6
   7   9   4 2668.41 507.663   6
  -9   7  -4 3059.72 512.308   3
  -7   9  -4 3204.76 543.520   3
  -7  -9   4-722.223 764.319   1
  -9   7   6 2159.70 430.342   3
  -7   9   6 1511.42 468.648   3
  -7  -9  -6 1897.66 432.405   4
  -9  -7  -6 1075.43 329.661   4
  -7   9   6 1552.95 386.938   6
   7   9   6 1094.03 409.384   6
   9   7   6 702.721 337.412   6
  -7   9  -6 1409.93 422.023   3
  -9   7   8 2952.93 509.248   3
  -7   9   8 2883.02 541.537   3
  -7  -9  -8 3083.52 506.811   4
  -9  -7  -8 2653.58 453.093   4
  -7   9   8 2729.53 456.783   6
   7   9   8 1898.81 470.372   6
   9   7   8 2611.48 500.501   6
  -7   9  10 867.606 363.388   5
  -9   7  10 2171.43 435.317   3
  -7   9  10 1712.73 469.729   3
  -7  -9 -10 1466.84 390.810   4
  -9  -7 -10 1628.63 393.293   4
   7   9  10 1299.92 408.516   6
   9   7  10 1364.74 448.966   6
  -7   9  12 3244.34 569.880   5
  -9   7  12 2980.64 477.774   3
  -7   9  12 3942.07 592.193   3
  -7  -9 -12 4477.17 553.408   4
  -9  -7 -12 3975.14 525.141   4
   7   9  12 3087.01 567.626   6
   9   7  12 3412.17 598.879   6
  -7   9  14 2869.27 509.545   5
  -9   7  14 2226.64 422.288   5
  -7   9  14 2522.98 474.816   3
  -7  -9 -14 2629.88 407.017   4
  -9  -7 -14 2459.26 390.824   4
   7   9  14 2351.12 479.468   6
   9   7  14 2455.53 494.927   6
  -7   9  16 1551.41 330.802   3
  -7  -9 -16 2314.75 321.451   4
  -9  -7 -16 1860.82 317.142   4
   7   9  16 1908.28 380.075   6
   9   7  16 1601.26 362.191   6
  -7   9  16 1704.81 350.345   5
  -9   7  16 1701.92 320.547   5
  -7   9  18 794.640 191.859   3
  -9  -7 -18 862.607 180.518   4
   7   9  18 1014.70 230.666   6
   9   7  18 821.351 230.097   6
  -8  -9   1 20613.3 1164.51   4
  -9  -8   1 20288.3 1109.27   4
  -8  -9  -1 21132.5 1175.19   4
  -9  -8  -1 19872.0 1108.44   4
  -9   8  -1 21726.4 1226.75   3
  -8   9  -1 21916.9 1271.58   3
  -9   8   1 21340.7 1224.85   3
  -8   9   1 21484.0 1270.02   3
  -8  -9   3 21391.0 1189.42   4
  -9  -8   3 21395.7 1136.94   4
  -8  -9  -3 21676.1 1197.06   4
  -9  -8  -3 22057.4 1169.65   4
  -9   8  -3 22819.0 1268.25   3
  -8   9  -3 22782.1 1293.38   3
  -9   8   3 22988.8 1267.11   3
  -8   9   3 21003.7 1277.96   3
  -8  -9   5 12793.4 935.080   4
  -9  -8   5 11128.5 828.962   4
  -8  -9  -5 12097.8 927.914   4
  -9  -8  -5 11198.9 858.705   4
   8   9   5 11368.7 911.904   6
  -8   9  -5 13476.1 1014.51   3
  -9   8   5 12556.1 955.561   3
  -8   9   5 12767.1 1018.59   3
  -8  -9  -7 5754.06 658.566   4
  -9  -8  -7 5588.07 640.780   4
   9   8   7 4823.33 655.327   6
  -9   8   7 5189.26 653.234   3
  -8   9   7 5515.09 695.180   3
   8   9   7 4100.03 612.876   6
  -9   8   9 2984.70 493.178   3
  -8   9   9 3733.73 585.229   3
  -9  -8  -9 2935.15 489.449   4
  -8  -9  -9 2643.83 461.755   4
   8   9   9 1970.93 481.436   6
   9   8   9 2418.93 495.531   6
  -8  -9 -11 10843.0 833.787   4
  -9  -8 -11 10956.2 828.361   4
   8   9  11 8727.78 828.732   6
   9   8  11 9340.19 856.470   6
  -9   8  11 8420.80 742.535   3
  -8   9  11 10645.8 903.923   3
  -8  -9 -13 22504.9 1077.14   4
  -9  -8 -13 21787.9 1071.17   4
   8   9  13 20786.6 1147.61   6
   9   8  13 21058.4 1146.71   6
  -9   8  13 20997.6 1055.02   3
  -8   9  13 21273.1 1146.90   3
  -8  -9 -15 11375.9 672.257   4
  -9  -8 -15 11145.4 677.024   4
   8   9  15 10985.2 763.466   6
   9   8  15 11060.6 763.313   6
  -8   9  15 10677.0 717.822   3
  -8  -9 -17 6110.75 394.352   4
  -9  -8 -17 5805.71 407.581   4
   8   9  17 6053.06 468.907   6
   9   8  17 5746.65 467.359   6
  -9   9   0 310.585 235.681   3
  -9  -9   0 595.713 286.173   4
  -9  -9   2 16028.1 1021.06   4
  -9  -9  -2 15777.7 1028.12   4
  -9   9  -2 16026.9 1087.93   3
  -9   9   2 16452.5 1099.26   3
  -9  -9   4 6147.77 656.146   4
  -9  -9  -4 6929.38 699.100   4
  -9   9  -4 6391.76 716.383   3
  -9   9   4 8453.96 804.742   3
  -9   9   6 3405.70 535.593   3
  -9  -9  -6 3709.81 531.209   4
   9   9   6 3110.10 492.989   6
  -9   9   8 4.13140 239.046   3
  -9  -9  -8-3.76693 236.064   4
   9   9   8-178.187 286.481   6
  -9   9  10 1016.75 333.774   3
  -9  -9 -10 1352.20 373.887   4
   9   9  10 473.417 340.390   6
  -9  -9 -12 8671.80 682.107   4
   9   9  12 6512.38 665.368   6
  -9   9  12 7808.37 670.206   3
  -9  -9 -14 8821.34 608.002   4
   9   9  14 7831.88 638.414   6
  -9   9  14 8414.67 576.303   3
  -9  -9 -16 2467.33 276.292   4
   9   9  16 2558.40 329.262   6
   0  10   0 194719. 8412.33   2
  10   0   0 194228. 7309.53   7
   0  10   0 199307. 3226.91   6
  10   0   2 74513.0 4768.07   7
  10   0  -2 66714.8 4068.14   7
   0  10   2 68615.2 5129.20   2
   0 -10   2 68433.7 5242.03   7
   0  10  -2 81622.8 2029.96   6
   0  10   2 79524.3 2111.33   6
  10   0   4 32144.2 3263.22   7
   0  10   4 32394.8 3582.45   2
   0 -10   4 30988.4 3547.73   7
   0  10  -4 34700.4 1398.64   6
   0  10   4 34383.4 1486.37   6
   0  10   4 32069.3 1537.59   3
  10   0   6 39505.3 3805.40   7
   0  10   6 41661.1 4085.94   2
   0 -10   6 30973.5 3707.74   7
   0  10   6 41167.4 1663.23   6
   0  10   6 40877.3 1816.54   3
 -10   0  -8 17802.7 2822.32   9
  10   0   8 19544.3 2763.24   7
   0 -10   8 18359.7 2867.77   7
   0  10   8 20299.1 1209.90   6
   0  10   8 17618.9 2803.83   2
   0  10   8 19510.1 1366.55   3
   0  10   8 20969.3 1442.70   5
   0  10  10 1476.63 519.273   5
   0  10  10 1522.77 470.613   3
   0  10  10 1173.54 417.381   6
   0  10  12 102572. 2664.81   6
   0  10  12 98455.9 3083.92   5
   0  10  14 47187.3 1715.53   6
   0  10  14 43683.6 1982.71   3
   0  10  16 36087.4 1317.02   6
   0  10  16 37024.3 1651.66   5
  10   0  18 13188.5 825.097   6
   0  10  18 12027.9 841.302   3
  10   0  20 4709.49 373.664   6
   0  10  20 4066.55 395.483   3
   1  10  -1 39254.9 3795.22   2
  -1 -10   1 44480.7 1581.55   4
  -1  10  -1 38702.2 3777.20   2
  -1 -10  -1 43202.5 1514.56   4
   1  10   1 42088.6 3897.59   2
  10   1  -1 41479.7 3351.34   7
  -1  10   1 44671.6 4045.81   2
  10  -1   1 40357.3 3460.31   7
  10  -1  -1 42569.0 3364.91   7
   1 -10   1 37694.3 3849.74   7
   1 -10  -1 46107.3 3975.50   7
  -1  10  -1 45965.1 1590.37   6
  -1  10   1 43814.5 1582.90   6
   1  10   1 41081.0 1534.05   6
  -1  10   1 42729.5 1674.84   3
  -1 -10  -3 19889.2 1023.33   4
  10   1   3 17650.1 2409.40   7
  10  -1   3 22338.3 2693.88   7
   1  10   3 19459.7 2700.51   2
  -1  10   3 20562.8 2781.99   2
   1 -10   3 19360.6 2960.40   7
  -1 -10   3 23827.6 3093.92   7
  -1  10  -3 20838.9 1115.30   6
  -1  10   3 20358.4 1129.19   6
   1  10   3 20431.7 1148.78   6
  -1  10  -3 19820.6 1082.73   3
  -1  10   3 18961.2 1185.05   3
  -1 -10  -5 13310.6 842.668   4
  10   1   5 15045.6 2326.62   7
  10  -1   5 12895.3 2143.41   7
   1 -10   5 13208.2 2466.73   7
  -1 -10   5 15996.4 2579.35   7
  -1  10  -5 17366.9 1044.79   6
  -1  10   5 13894.2 953.211   6
   1  10   5 13796.8 1002.97   6
  -1  10  -5 13229.1 908.190   3
   1  10   5 12956.5 2329.67   2
  -1  10   5 13026.6 2189.82   2
  -1  10   5 14376.2 1114.80   3
   1  10   5 13262.6 1015.54   3
  -1 -10   5 9295.70 1772.56   1
 -10   1  -7 10784.3 2196.09   9
  10   1   7 8707.31 1894.79   7
  10  -1   7 8052.34 1686.18   7
   1 -10   7 12156.9 2430.28   7
  -1 -10   7 8063.84 1900.21   7
  -1 -10   7 3694.13 1277.22   1
  -1  10   7 9529.51 820.266   6
   1  10   7 10151.8 873.985   6
  -1  10   7 9450.35 2011.47   2
   1  10   7 10975.2 2152.76   2
  -1  10   7 10176.2 1002.19   3
   1  10   7 8073.61 877.568   3
  -1  10   7 9761.18 1001.05   5
 -10  -1  -9 2804.83 1174.36   9
  -1  10   9 2419.72 595.676   5
 -10   1  -9 1860.96 1007.42   9
  -1  10   9 2118.77 538.748   3
   1  10   9 2190.98 520.078   3
  10   1   9 2871.51 1126.18   7
  10  -1   9 3240.34 1151.25   7
   1 -10   9 4502.81 1533.51   7
  -1 -10   9 3002.67 1273.59   7
  -1 -10   9 3916.61 1406.27   1
  -1  10   9 2166.05 463.501   6
   1  10   9 2751.85 540.149   6
   1  10   9 2492.91 578.166   5
   1  10   9 3426.66 1287.12   2
  -1  10  11 15787.6 1073.68   6
   1  10  11 16002.2 1129.95   6
   1  10  11 15916.1 1239.80   5
  -1  10  11 15504.6 1270.27   3
  -1  10  11 17027.1 1343.18   5
   1  10  11 14740.0 1217.60   3
  -1  10  13 26693.8 1313.04   6
   1  10  13 25180.4 1341.92   6
   1  10  13 25145.2 1509.85   5
  -1  10  13 23737.5 1519.92   3
  -1  10  13 25141.8 1596.63   5
  -1  10  15 19324.0 1011.19   6
   1  10  15 12937.2 889.246   6
   1  10  15 17009.0 1146.26   5
  -1  10  15 16952.4 1226.43   3
  -1  10  15 17450.4 1273.42   5
   1  10  15 13382.5 1059.96   3
   1  10  17 7535.47 595.197   6
  10   1  17 7199.12 688.418   6
  -1  10  17 7006.91 733.043   3
   1  10  17 6554.26 676.557   3
  -1  10  17 7090.97 720.592   5
   1  10  19 2601.43 366.957   3
  10   1  19 3812.15 420.529   6
  10  -1  19 3344.94 385.925   6
  -1  10  19 2628.99 385.933   3
  -2 -10   0 5477.35 591.402   4
  10  -2   0 3576.79 1158.16   7
   2 -10   0 4216.52 1239.02   7
  -2  10   0 6202.19 640.302   6
   2  10   0 4653.79 561.206   6
   2  10   0 4987.42 1367.18   2
  -2  10   0 3701.73 1184.23   2
  -2  10   0 5561.30 639.503   3
  -2  10  -2 168.899 274.570   3
  -2  10   2 838.807 415.720   3
  -2  10  -2-1829.56 835.190   2
  10  -2   2 1013.36 774.217   7
  -2 -10   2 464.816 289.793   4
   2 -10   2 1902.13 1063.18   7
  -2 -10  -2 516.640 284.880   4
   2 -10  -2-3204.93 1158.33   7
  -2 -10   2-647.658 544.133   1
  -2  10  -2 784.322 308.042   6
   2  10   2-731.135 663.160   2
  -2  10   2 772.836 632.734   2
  -2  10   2 554.957 307.129   6
   2  10   2 28.6500 323.182   6
  -2  10  -4 412.607 297.271   3
 -10  -2   4 172.168 432.219   1
   2 -10  -4 619.260 1200.07   8
  -2  10   4 599.638 357.177   3
  -2 -10   4-350.022 401.337   1
  10  -2   4 647.446 742.970   7
   2 -10   4-788.561 838.815   7
  -2 -10  -4 408.931 237.964   4
  -2  10  -4 421.536 326.086   6
  -2  10   4 472.440 275.952   6
   2  10   4 2755.85 1078.62   2
  -2  10   4 2387.26 1055.26   2
   2  10   4 395.226 319.921   6
 -10   2  -6 829.774 759.832   9
  -2  10   6 434.345 391.487   3
  10   2   6-138.765 635.403   7
  10  -2   6-3068.38 1192.19   7
   2 -10   6 831.491 758.714   7
  -2 -10  -6 393.441 251.640   4
  -2  10   6 421.446 294.842   6
   2  10   6 604.850 379.628   6
   2  10   6 178.311 576.024   2
  -2  10   6-340.534 510.201   2
  -2 -10   6-2258.17 1078.26   1
  -2  10  -6 124.331 241.251   3
  -2  10   8 652.845 432.442   5
 -10   2  -8 984.885 744.965   9
  -2  10   8 406.571 332.678   3
   2  10   8 189.011 334.959   3
  10   2   8 1750.98 853.919   7
  10  -2   8 1022.80 825.748   7
   2 -10   8-1736.86 1022.52   7
  -2 -10  -8 101.908 200.292   4
  -2 -10   8 1140.45 984.402   1
  -2  10   8 405.316 320.798   6
   2  10   8 451.141 323.819   6
  -2  10   8 3051.86 1243.81   2
   2  10   8 2626.51 1168.31   2
  -2  10  10 10522.9 870.856   6
   2  10  10 9061.82 900.903   6
  -2  10  10 9227.53 987.039   3
  -2  10  10 10544.4 1104.32   5
   2  10  10 9210.48 944.237   3
  -2  10  12 3028.10 638.599   5
  -2  10  12 3646.95 665.436   3
   2  10  12 3829.46 638.991   6
  -2  10  12 3377.59 502.223   6
  -2  10  14 9.81008 373.060   5
  -2  10  14 72.3683 334.451   3
   2  10  14 146.716 297.633   3
  -2  10  14 236.406 283.556   6
   2  10  14 358.434 317.733   6
  10   2  14 423.293 364.188   6
  -2  10  16 1011.11 394.368   5
  -2  10  16 898.810 372.857   3
   2  10  16 258.170 283.587   3
   2  10  16 312.050 270.518   6
  10   2  16 806.905 337.316   6
  -2  10  18 21.2874 250.898   3
   2  10  18 87.1818 163.559   3
   2  10  18-321.545 198.182   6
  10   2  18 198.895 239.135   6
  10  -2  18 142.220 220.893   6
  -2  10  18-87.3996 253.925   5
  -2  10  20 328.516 165.383   3
 -10  -2 -20 199.650 116.607   4
  10   2  20 293.094 147.093   6
  -3 -10   1 8349.66 1676.39   1
  -3 -10   1 9406.89 803.274   4
  -3 -10  -1 9861.32 791.074   4
  10  -3   1 8825.88 1703.97   7
   3 -10   1 5842.33 1638.22   7
   3 -10  -1 7402.75 1676.77   7
  -3  10  -1 10478.5 850.355   6
  -3  10   1 9288.40 791.103   6
   3  10   1 8928.45 758.684   6
  -3 -10  -1 13506.9 2113.99   1
   3  10  -1 8804.65 1750.55   2
  -3  10  -1 8903.15 1819.99   2
   3  10   1 8379.42 1744.59   2
  -3  10   1 9897.96 1958.50   2
  -3  10  -1 10350.2 863.071   3
  -3  10   1 11462.1 929.586   3
  -3  10  -3 384.651 312.274   3
  -3  10   3 424.070 317.911   3
  10  -3   3 2006.34 930.160   7
  -3 -10   3 404.757 266.532   4
   3 -10   3 771.233 757.310   7
   3 -10  -3-3359.78 1211.54   7
  -3 -10  -3 47.3777 253.360   4
  -3 -10   3-3476.12 1197.98   1
 -10  -3   3 566.351 672.753   1
  -3  10  -3 352.939 363.770   6
  -3  10   3 316.657 257.728   6
   3  10   3 2126.44 968.234   2
  -3  10   3-2382.06 968.229   2
   3  10   3 344.583 291.382   6
  -3 -10   5 2921.41 1101.44   1
  -3  10   5 1076.21 379.485   3
   3 -10  -5 1463.14 1051.57   8
  10  -3  -5 176.151 869.633   8
  10  -3   5 163.235 626.741   7
   3 -10   5-609.008 893.508   7
  -3 -10  -5 1038.09 339.351   4
 -10  -3  -5 1474.22 306.029   4
  -3  10   5 898.343 326.759   6
   3  10   5 1117.34 383.825   6
   3  10   5 692.271 745.151   2
  -3  10   5 3339.26 1202.81   2
 -10  -3   5-877.726 581.971   1
  -3  10  -5 1574.11 371.024   3
 -10   3  -7-612.127 559.941   9
  -3  10   7 607.157 379.269   3
   3 -10  -7-3388.33 2095.24   8
  10  -3   7 1130.57 797.213   7
   3 -10   7-3603.56 1423.40   7
  -3 -10  -7 322.468 243.139   4
  -3  10  -7 506.459 269.933   3
  -3  10   7 310.096 274.381   6
   3  10   7 323.530 323.834   6
  -3  10   7 2342.99 1043.24   2
   3  10   7-3740.27 1281.62   2
  -3 -10   7 2199.17 974.272   1
  -3  10   7 581.538 409.946   5
  -3 -10  -9 6100.27 623.706   4
  -3  10   9 7477.41 713.170   6
   3  10   9 6979.40 811.438   6
  -3  10   9 7141.45 904.186   3
  -3  10   9 6518.16 888.980   5
  -3  10  11 618.785 423.125   5
  -3  10  11 535.310 394.385   3
   3  10  11-252.696 312.121   3
  -3 -10 -11 629.238 239.754   4
  -3  10  11 448.955 303.523   6
   3  10  11 605.756 396.966   6
  -3  10  13 7179.23 638.562   6
   3  10  13 6549.78 749.933   6
  10   3  13 6055.92 745.089   6
  -3  10  13 7046.34 873.781   3
  -3  10  13 7350.28 908.964   5
   3  10  13 5748.73 734.513   3
  -3  10  15 3934.21 670.182   5
  -3  10  15 4364.73 653.268   3
   3  10  15 3740.38 526.318   3
   3  10  15 4186.78 568.102   6
  10   3  15 4046.39 596.242   6
  -3  10  17 395.724 276.859   5
  -3  10  17 911.185 335.246   3
   3  10  17 345.974 206.563   3
 -10  -3 -17 722.367 223.265   4
   3  10  17 971.109 285.625   6
  10   3  17 896.389 320.200   6
  -3  10  19 689.869 231.484   3
 -10  -3 -19 214.479 139.411   4
   3  10  19 128.407 142.071   6
  10   3  19 460.926 197.711   6
  10  -3  19-119.558 183.383   6
  -4 -10   0 4347.44 569.925   4
  -4 -10   0 4462.24 1323.05   1
  10  -4   0 4195.16 1252.01   7
   4 -10   0 2641.28 1154.58   7
  -4  10   0 5009.73 644.349   6
   4  10   0 3841.38 1172.86   2
  -4  10   0 3386.48 1152.39   2
  -4  10   0 4229.18 605.973   3
  -4 -10   2 2968.66 1081.09   1
  -4 -10   2 6480.79 679.666   4
  -4 -10  -2 6293.37 680.107   4
  10  -4   2 5372.84 1397.74   7
   4 -10   2 6043.44 1608.44   7
   4 -10  -2 6880.60 1615.24   7
  -4  10  -2 8937.08 842.361   6
  -4  10   2 7461.99 738.710   6
   4  10   2 6269.46 682.933   6
 -10  -4   2 7774.20 1867.11   1
   4  10  -2 1419.91 744.765   2
  -4  10  -2 4145.97 1327.57   2
  -4  10  -2 7644.60 795.587   3
   4  10   2 5954.43 1515.97   2
  -4  10   2 4847.70 1411.62   2
  -4  10   2 5927.33 715.986   3
  -4  10  -4 589.704 339.943   3
  -4  10   4 182.746 280.129   3
 -10  -4   4-83.4822 422.999   1
  10  -4   4 929.608 686.178   7
  -4 -10   4 136.199 245.831   4
  -4 -10   4-1081.31 948.188   1
  -4 -10  -4 254.493 261.420   4
 -10  -4  -4 509.944 250.047   4
  -4  10   4 494.771 310.605   6
   4  10   4 226.822 582.000   2
   4  10   4 620.799 362.325   6
  -4  10   4 1021.98 701.368   2
 -10   4  -6 8016.76 1885.51   9
  -4 -10   6 9835.36 2077.42   1
   4 -10  -6 6095.03 2439.95   8
  10  -4  -6 3475.92 2227.99   8
  -4 -10  -6 8509.75 749.916   4
 -10  -4   6 8862.08 1970.42   1
 -10  -4  -6 8499.78 679.255   4
  10  -4   6 9410.10 2038.10   7
   4 -10   6 11024.7 2363.95   7
  -4  10   6 9640.14 820.470   6
   4  10   6 8784.18 856.401   6
  -4  10  -6 9122.71 829.930   3
  10   4   6 7952.79 804.047   6
  -4  10   6 8727.48 934.656   3
  -4  10   6 9443.43 2054.34   2
   4  10   6 9353.96 1955.96   2
  -4 -10  -8 12390.7 885.060   4
 -10  -4  -8 12655.0 846.188   4
  -4  10   8 14516.7 959.023   6
   4  10   8 12916.0 1043.51   6
  10   4   8 10631.3 937.582   6
  -4  10   8 12196.9 1107.99   3
  -4  10   8 14186.3 1203.60   5
  -4  10  10 2234.51 613.756   5
  -4  10  10 1876.18 515.728   3
  -4 -10 -10 2343.38 423.081   4
  -4  10  10 2304.05 432.116   6
   4  10  10 2342.94 524.241   6
  10   4  10 2413.85 544.470   6
  -4  10  12 3220.72 671.946   5
  -4  10  12 2990.54 615.231   3
  -4 -10 -12 3362.55 463.913   4
  -4  10  12 4053.00 493.543   6
   4  10  12 3741.60 631.735   6
  10   4  12 3524.04 612.773   6
  -4  10  14 879.454 485.537   5
  -4  10  14 1144.54 442.223   3
  -4 -10 -14 833.157 254.334   4
 -10  -4 -14 997.165 298.353   4
   4  10  14 1167.53 377.098   6
  10   4  14 947.087 384.402   6
  -4  10  16 479.608 314.210   5
  -4  10  16 142.129 274.321   3
 -10  -4 -16 709.163 249.163   4
   4  10  16 693.397 309.755   6
  10   4  16 647.098 324.066   6
  -4  10  18 1997.25 369.375   3
 -10  -4 -18 2000.00 281.260   4
   4  10  18 2413.75 323.763   6
  10   4  18 2526.18 369.183   6
  -5 -10   1 62609.9 5080.47   1
  -5 -10   1 66425.3 2075.82   4
  -5 -10  -1 65293.4 2029.07   4
  -5  10  -1 62430.6 4769.66   2
  10  -5   1 62210.6 4593.63   7
  -5  10   1 59886.9 4856.05   2
 -10  -5  -1 64473.6 1749.66   4
   5 -10   1 56593.1 4649.23   7
   5 -10  -1 53672.1 4460.23   7
  -5  10  -1 74135.0 2305.36   6
  -5  10   1 73865.9 2250.15   6
  -5  10  -1 63696.8 2167.46   3
  -5  10   1 63156.1 2193.06   3
   5  10  -3 5165.68 1422.38   2
  -5 -10   3 13811.2 985.149   4
  -5 -10  -3 14088.4 963.751   4
 -10  -5  -3 13125.1 830.355   4
  10  -5   3 12533.3 2155.19   7
   5 -10   3 16412.4 2771.06   7
  -5  10   3 14941.0 1008.40   6
   5  10   3 13461.6 978.063   6
 -10  -5   3 18688.7 2900.11   1
  -5  10  -3 16417.7 2466.45   2
  -5  10  -3 13354.7 998.628   3
  -5  10   3 12749.5 1035.65   3
  -5  10   3 13391.3 2298.04   2
  -5 -10   3 10053.4 2109.89   1
  -5 -10   5 30509.6 3830.54   1
   5 -10  -5 47253.5 6537.82   8
  10  -5  -5 42515.1 6247.02   8
 -10  -5   5 38698.4 4249.28   1
  -5 -10   5 39463.1 1641.86   4
  -5  10  -5 32407.8 3514.65   2
  -5 -10  -5 41637.5 1630.25   4
  10  -5   5 34786.3 3791.31   7
   5 -10   5 38948.7 4191.11   7
 -10  -5  -5 40415.7 1462.83   4
  -5  10   5 44170.9 4281.90   2
  -5  10   5 42175.8 1636.43   6
   5  10   5 38992.4 1676.08   6
  -5  10  -5 38584.6 1679.98   3
  -5  10   5 39717.3 1854.07   3
  -5 -10  -7 48895.7 1760.18   4
 -10  -5  -7 48961.3 1645.13   4
  -5  10   7 49164.4 1751.94   6
   5  10   7 45746.0 1899.84   6
  10   5   7 42612.1 1797.15   6
  -5  10   7 46724.2 2063.44   3
  -5 -10  -9 8543.51 774.497   4
 -10  -5  -9 7809.60 701.823   4
  -5  10   9 9178.09 770.771   6
   5  10   9 8636.23 884.075   6
  10   5   9 8734.13 866.326   6
  -5  10   9 8660.97 940.327   3
  -5  10   9 9059.98 991.201   5
  -5 -10 -11 25898.1 1231.55   4
 -10  -5 -11 24764.9 1197.24   4
  -5  10  11 26554.2 1213.75   6
   5  10  11 26049.4 1429.11   6
  10   5  11 25020.4 1403.87   6
  -5  10  11 23767.2 1499.16   3
  -5  10  11 27047.4 1643.23   5
  -5 -10 -13 22788.2 1075.49   4
 -10  -5 -13 23900.5 1140.38   4
   5  10  13 25056.7 1335.91   6
  10   5  13 25234.2 1349.03   6
  -5  10  13 23591.1 1429.56   3
  -5  10  13 25739.4 1523.65   5
  -5 -10 -15 15368.7 765.763   4
 -10  -5 -15 15723.6 863.536   4
   5  10  15 16577.8 994.270   6
  10   5  15 15710.3 1007.58   6
  -5  10  15 15234.7 1059.36   3
  -5  10  15 18007.4 1187.55   5
 -10  -5 -17 10753.8 623.650   4
   5  10  17 10944.0 684.956   6
  10   5  17 10646.3 725.554   6
  -5  10  17 11165.1 778.805   3
 -10  -5 -19 12186.8 506.902   4
  10   5  19 11896.8 570.432   6
  -6 -10   0 48066.5 1776.46   4
 -10  -6   0 46814.7 1551.84   4
  -6 -10   0 48336.0 4618.31   1
  -6  10   0 41755.0 3891.57   2
   6 -10   0 40858.4 4018.59   7
  -6  10   0 54438.5 1973.30   6
  -6  10   0 46344.9 1885.27   3
  -6 -10   2 12962.4 995.083   4
  -6 -10  -2 13437.3 973.782   4
 -10  -6  -2 15049.9 910.965   4
  10  -6   2 13492.1 2354.91   7
   6 -10   2 13223.1 2479.42   7
  -6  10   2 17085.9 1140.70   6
 -10   6  -2 15651.4 986.762   3
  -6  10  -2 14080.2 1051.70   3
  -6 -10   2 13158.6 2582.46   1
 -10  -6   2 12417.7 2438.04   1
  -6  10   2 14151.9 1084.54   3
  -6  10   2 16620.6 2530.23   2
  -6 -10   4 37840.8 4175.29   1
  -6 -10   4 42879.1 1706.12   4
 -10  -6   4 39770.7 4408.57   1
  -6 -10  -4 43242.6 1680.48   4
  10  -6   4 34493.2 3960.21   7
 -10  -6  -4 41528.6 1519.17   4
  -6  10   4 38657.8 3907.10   2
  -6  10   4 45465.8 1770.11   6
   6  10   4 38797.4 1620.17   6
  -6  10  -4 44102.6 1802.37   3
  -6  10   4 41506.8 1854.72   3
  -6 -10  -6 35375.3 1548.75   4
 -10  -6  -6 34662.8 1434.80   4
  -6  10   6 36553.3 1554.15   6
   6  10   6 32220.9 1537.67   6
  -6  10  -6 36347.8 1659.86   3
  10   6   6 32923.8 1511.32   6
  -6  10   6 34665.3 1754.69   3
  -6 -10  -8 19189.0 1138.51   4
 -10  -6  -8 20486.1 1113.63   4
  -6  10   8 22357.7 1184.14   6
   6  10   8 18393.6 1218.13   6
  10   6   8 19011.4 1208.14   6
  -6  10   8 20035.1 1353.91   3
  -6 -10 -10 11621.6 865.587   4
 -10  -6 -10 12387.6 875.309   4
  -6  10  10 12029.0 824.379   6
   6  10  10 11339.8 961.816   6
  10   6  10 12472.6 1012.44   6
  -6  10  10 11641.8 1046.16   3
  -6 -10 -12 19033.9 1032.02   4
 -10  -6 -12 20231.4 1066.57   4
   6  10  12 19241.5 1200.21   6
  10   6  12 20468.5 1225.48   6
  -6  10  12 18593.7 1259.68   3
  -6  10  12 21784.6 1378.85   5
  -6 -10 -14 13577.9 776.933   4
 -10  -6 -14 12634.7 797.844   4
   6  10  14 13343.9 918.707   6
  10   6  14 12041.2 896.988   6
  -6  10  14 12858.4 969.855   3
  -6 -10 -16 12710.7 615.170   4
 -10  -6 -16 12149.4 682.836   4
   6  10  16 12420.4 770.547   6
  10   6  16 12816.4 805.934   6
  -6  10  16 12157.8 813.253   3
 -10  -6 -18 7744.78 442.893   4
   6  10  18 8250.65 481.535   6
  10   6  18 8182.02 510.208   6
  -6  10  18 8016.64 498.334   3
 -10   7   1 278.490 227.997   3
  -7  10  -1 627.742 320.661   3
  -7  10   1 306.165 294.221   3
  -7 -10   1 613.938 304.184   4
 -10  -7   1 637.109 246.327   4
  -7 -10  -1 751.911 316.583   4
 -10  -7  -1 782.768 269.137   4
 -10   7  -1 852.291 297.134   3
  -7 -10   3 5941.65 676.202   4
  -7 -10  -3 6584.60 710.748   4
 -10  -7  -3 6953.78 664.128   4
  -7  10   3 7320.64 764.801   6
 -10   7  -3 7776.00 728.924   3
  -7  10  -3 7531.34 782.179   3
 -10   7   3 6542.70 657.814   3
  -7  10   3 6852.89 780.060   3
  -7 -10  -5 6056.67 679.366   4
 -10  -7  -5 5524.07 615.613   4
   7  10   5 5224.84 634.506   6
  -7  10  -5 6937.76 777.350   3
 -10   7   5 6124.23 638.548   3
  -7  10   5 5875.20 731.334   3
  -7  10   7 3611.29 611.383   3
 -10  -7  -7 3807.43 530.409   4
  -7 -10  -7 3012.03 501.244   4
  -7  10   7 3781.45 544.538   6
   7  10   7 3528.35 607.022   6
  10   7   7 3016.87 521.577   6
  -7 -10  -9 4498.65 599.219   4
 -10  -7  -9 4498.65 555.577   4
  -7  10   9 4532.81 545.965   6
   7  10   9 3935.34 635.535   6
  -7  10   9 4260.16 659.706   3
  10   7   9 3492.13 579.455   6
  -7  10  11 523.487 351.159   3
  -7 -10 -11 954.885 319.630   4
 -10  -7 -11 495.323 272.438   4
   7  10  11 591.181 333.843   6
  10   7  11 839.901 391.166   6
  -7  10  13 455.566 284.229   3
  -7 -10 -13 439.690 237.491   4
 -10  -7 -13 240.361 210.987   4
   7  10  13 488.941 333.487   6
  10   7  13-355.449 330.403   6
  -7  10  15 349.031 230.580   3
  -7 -10 -15 594.780 206.704   4
 -10  -7 -15 538.527 208.347   4
   7  10  15 529.112 255.472   6
  10   7  15-233.381 278.928   6
  -7  10  17 985.353 196.114   3
 -10  -7 -17 1170.99 207.986   4
   7  10  17 1183.73 247.023   6
  10   7  17 904.660 213.333   6
  -8 -10   0 19594.5 1163.53   4
 -10  -8   0 19921.8 1080.01   4
 -10   8   0 21941.1 1198.50   3
  -8  10   0 19869.6 1235.50   3
 -10   8   2 802.747 290.482   3
  -8  10   2 234.563 273.193   3
  -8 -10   2 456.501 284.214   4
 -10  -8   2 155.304 197.565   4
  -8 -10  -2 634.160 349.479   4
 -10  -8  -2 402.574 228.995   4
 -10   8  -2 715.095 273.622   3
  -8  10  -2 557.251 298.656   3
 -10   8   4 676.013 279.017   3
  -8  10   4 379.954 295.161   3
  -8 -10   4 468.450 274.126   4
 -10  -8   4 489.801 268.020   4
  -8 -10  -4 496.423 273.059   4
 -10  -8  -4 527.430 289.350   4
  -8  10  -4 342.819 288.177   3
 -10   8   6 1064.26 297.409   3
  -8  10   6 820.964 321.536   3
  -8 -10  -6 1153.48 382.755   4
 -10  -8  -6 949.578 343.865   4
   8  10   6 584.963 310.832   6
 -10   8   8 1064.62 302.251   3
  -8  10   8 1020.01 377.203   3
  -8 -10  -8 1170.84 375.347   4
 -10  -8  -8 819.996 314.878   4
   8  10   8 641.433 339.416   6
  10   8   8 799.468 361.782   6
  -8  10  10 33.3135 242.208   3
  -8 -10 -10-31.9721 242.433   4
 -10  -8 -10-23.5891 230.598   4
   8  10  10 194.197 320.052   6
  10   8  10-206.242 357.298   6
  -8  10  12 3044.18 458.926   3
  -8 -10 -12 2780.97 421.295   4
 -10  -8 -12 2487.90 392.714   4
   8  10  12 2604.96 452.905   6
  10   8  12 2370.54 428.897   6
  -8  10  14 1139.65 289.701   3
  -8 -10 -14 785.855 227.243   4
 -10  -8 -14 885.161 245.403   4
   8  10  14 817.956 301.854   6
  10   8  14 763.109 280.044   6
  -8 -10 -16 251.418 138.420   4
 -10  -8 -16 369.089 148.451   4
   8  10  16 318.340 183.224   6
  10   8  16 272.469 181.950   6
  -9  10   1 1594.32 393.131   3
  -9 -10   1 1540.50 390.245   4
 -10  -9   1 1792.10 377.925   4
  -9 -10  -1 1494.74 386.369   4
 -10  -9  -1 1846.88 401.411   4
 -10   9  -1 1763.14 420.035   3
  -9  10  -1 1353.48 395.554   3
 -10   9   1 1898.76 415.001   3
 -10   9   3 469.712 282.049   3
  -9  10   3 231.535 267.379   3
  -9 -10   3 151.529 210.741   4
 -10  -9   3 585.168 261.094   4
  -9 -10  -3 59.9885 227.437   4
 -10  -9  -3 64.2016 225.842   4
 -10   9  -3-70.5403 241.532   3
  -9  10  -3 19.8361 227.768   3
 -10   9   5 175.120 207.939   3
  -9  10   5 216.097 235.704   3
  -9 -10  -5 44.1736 224.101   4
 -10  -9  -5 444.821 265.856   4
 -10   9   7 281.493 225.247   3
  -9  10   7 927.276 338.758   3
  -9 -10  -7 1029.77 361.681   4
 -10  -9  -7 800.626 310.596   4
   9  10   7 1004.14 369.741   6
 -10   9   9 538.945 236.007   3
  -9  10   9 673.016 302.852   3
  -9 -10  -9 295.692 275.044   4
 -10  -9  -9 729.609 302.491   4
   9  10   9 175.930 240.585   6
  10   9   9 124.294 248.706   6
 -10   9  11 100.653 168.498   3
  -9  10  11 345.608 253.610   3
  -9 -10 -11 581.946 262.263   4
 -10  -9 -11 500.996 248.461   4
   9  10  11 765.417 296.625   6
  10   9  11 428.082 251.357   6
  -9  10  13 152.720 156.512   3
  -9 -10 -13 78.5653 165.992   4
 -10  -9 -13 271.042 184.187   4
   9  10  13 8.73418 200.647   6
  10   9  13 276.473 244.717   6
  -9 -10 -15 81.6175 131.808   4
 -10  -9 -15 278.680 138.922   4
   9  10  15 294.994 182.256   6
  10   9  15 291.912 169.962   6
 -10 -10   0 42572.4 1610.29   4
 -10  10   0 44288.2 1655.21   3
 -10 -10   2 7666.58 686.447   4
 -10 -10  -2 7893.22 714.999   4
 -10  10  -2 8738.82 760.945   3
 -10  10   2 7912.88 715.105   3
 -10  10   4 2945.45 451.951   3
 -10 -10  -4 3735.17 524.216   4
 -10 -10  -6 7396.47 690.058   4
 -10  10   6 8332.17 693.998   3
 -10 -10  -8 3905.50 510.236   4
  10  10   8 3499.45 445.861   6
 -10  10   8 3629.85 451.644   3
 -10 -10 -10 3165.12 416.920   4
  10  10  10 3135.11 414.440   6
 -10  10  10 2906.38 366.026   3
 -10 -10 -12 10809.8 630.997   4
  10  10  12 10234.4 614.941   6
 -10 -10 -14 7292.86 434.746   4
  10  10  14 7517.27 442.610   6
   0 -11  -1 121234. 2619.72   4
   0  11  -1 118905. 7040.54   2
  11   0   1 116884. 6177.09   7
   0  11   1 129338. 7268.64   2
   0  11  -1 134211. 2747.54   6
   0  11   1 126036. 2722.91   6
   0  11   1 125995. 2854.52   3
   0 -11  -3 92655.8 2243.17   4
  11   0   3 90730.4 5721.50   7
   0  11   3 93413.7 6297.29   2
   0 -11   3 86168.7 6187.99   7
   0  11  -3 104539. 2443.32   6
   0  11   3 104175. 2543.42   6
   0  11   3 92068.3 2587.00   3
  11   0   5 50953.6 4446.55   7
   0  11   5 56453.0 4969.75   2
   0 -11   5 55097.7 5107.17   7
   0  11   5 60105.1 2031.71   6
   0  11   5 58073.8 2153.09   3
   0  11   7 37528.8 1641.11   6
   0  11   7 34879.2 1741.99   3
   0  11   9 10947.8 919.875   6
   0  11   9 11738.6 1103.54   3
   0  11  11 92283.1 2530.63   6
   0  11  11 95388.8 2895.33   3
   0  11  13 64894.9 1995.02   6
   0  11  13 64376.7 2312.30   3
   0  11  15 47082.6 1512.33   6
   0  11  15 43683.2 1758.42   3
   0  11  17 18621.5 778.466   6
  11   0  17 19089.5 978.241   6
   0  11  17 17223.4 963.223   3
 -11   0 -19 11289.8 488.872   4
   0  11  19 10645.7 572.164   3
  -1 -11   0 45230.8 1682.93   4
   1  11   0 46470.3 4361.78   2
  -1  11   0 46494.4 4412.68   2
  11   1   0 41356.5 3601.20   7
  11  -1   0 43511.6 3708.92   7
  -1  11   0 47300.6 1722.47   6
   1  11   0 44715.9 1617.28   6
  -1  11   0 47652.8 1776.34   3
   1  11  -2 55998.4 4753.83   2
  -1  11  -2 61439.0 5005.84   2
  -1 -11  -2 57302.9 1825.91   4
  11   1   2 55001.9 4374.90   7
  11  -1   2 59875.8 4489.40   7
   1  11   2 52262.6 4685.33   2
  -1  11   2 55505.1 4816.44   2
   1 -11   2 52152.0 4879.56   7
  -1  11  -2 57474.2 1887.27   6
   1  11  -2 55244.3 1780.86   6
  -1  11   2 61003.0 1934.51   6
   1  11   2 59152.1 1915.35   6
  -1  11  -2 56062.7 1888.56   3
  -1  11   2 59506.6 2064.91   3
  -1 -11  -4 40035.3 1502.29   4
  11   1   4 40151.9 3886.16   7
  11  -1   4 32972.5 3578.26   7
   1  11   4 39982.3 4124.47   2
  -1  11   4 38212.2 4063.57   2
   1 -11   4 35317.8 4082.43   7
  -1  11  -4 49193.2 1782.50   6
  -1  11   4 39983.2 1621.78   6
   1  11   4 40349.6 1655.72   6
  -1  11  -4 39383.1 1545.47   3
  -1  11   4 37712.6 1768.13   3
  11  -1   6 22986.2 3018.65   7
   1 -11   6 24423.6 3383.32   7
  11   1   6 21258.3 2931.30   7
  -1  11   6 24551.4 1301.40   6
   1  11   6 22903.1 1311.75   6
  -1  11  -6 21714.8 1180.32   3
  -1  11   6 22724.1 1412.94   3
   1  11   6 21901.1 1325.51   3
   1  11   6 23367.1 3221.62   2
  -1  11   6 21914.7 3152.75   2
  -1  11   8 12181.6 958.871   6
   1  11   8 12786.1 1012.22   6
  -1  11   8 12268.2 1081.05   3
   1  11   8 12824.6 1057.96   3
  -1  11  10 29890.4 1428.73   6
   1  11  10 30045.1 1498.55   6
  -1  11  10 29419.5 1672.90   3
   1  11  10 27429.4 1579.41   3
  -1  11  12 32667.0 1433.41   6
   1  11  12 32068.7 1497.89   6
  -1  11  12 31224.1 1712.06   3
   1  11  12 31414.0 1638.63   3
  -1  11  14 29984.0 1260.74   6
   1  11  14 28317.1 1289.95   6
  -1  11  14 27686.3 1501.07   3
   1  11  14 27186.9 1424.97   3
  -1  11  16 13415.6 726.292   6
   1  11  16 13693.2 778.978   6
  11   1  16 12634.5 880.602   6
  -1  11  16 12045.4 897.313   3
   1  11  16 12160.4 864.156   3
 -11  -1 -18 7753.92 475.917   4
   1  11  18 7688.77 439.616   6
  11   1  18 9056.05 614.755   6
  11  -1  18 8329.80 594.954   6
  -1  11  18 7293.46 586.715   3
   1  11  18 7305.52 541.704   3
  -2  11  -1 2672.28 503.767   3
  -2  11   1 2436.38 482.045   3
  11  -2   1-1840.18 843.245   7
  -2 -11   1 1898.14 411.306   4
  -2 -11  -1 2111.36 444.052   4
   2 -11   1 275.946 620.549   7
   2 -11  -1 976.283 864.590   7
   2  11  -1 1137.22 841.433   2
  -2  11  -1 2691.49 1064.78   2
  -2  11  -1 1674.37 446.267   6
   2  11   1 2397.96 1184.06   2
  -2  11   1 4214.92 1366.94   2
  -2  11   1 2211.70 492.323   6
   2  11  -1 1968.18 400.121   6
   2  11   1 2537.39 462.146   6
  -2 -11  -3 4454.08 558.897   4
  11   2   3 3244.21 1279.71   7
  11  -2   3 5352.20 1538.17   7
   2 -11   3 3928.36 1434.01   7
  -2  11  -3 4795.84 662.375   6
  -2  11   3 4093.05 584.199   6
   2  11   3 4652.44 597.155   6
  -2  11  -3 2622.49 1086.31   2
  -2  11  -3 4403.42 606.380   3
   2  11   3 7424.15 2120.84   2
  -2  11   3 7798.24 1850.89   2
  -2  11   3 4914.76 685.142   3
  -2 -11  -5 7493.32 693.883   4
  11   2   5 6133.92 1423.45   7
  11  -2   5 9410.30 2023.04   7
   2 -11   5 6928.24 1881.73   7
  -2  11   5 8039.98 758.171   6
   2  11   5 6407.79 720.005   6
  -2  11  -5 7297.19 750.681   3
   2  11   5 8763.04 1966.06   2
  -2  11   5 10107.3 2122.55   2
  -2  11   5 8004.76 883.018   3
  -2  11   7 1885.17 523.988   3
  -2 -11  -7 2580.44 421.235   4
  -2  11   7 1993.26 474.715   6
   2  11   7 2424.26 511.457   6
  -2  11   9 19921.2 1160.35   6
   2  11   9 19900.9 1251.74   6
  -2  11   9 19420.7 1376.46   3
   2  11   9 16867.2 1198.28   3
  -2  11  11 53.4325 339.801   3
   2  11  11-162.670 293.244   3
  -2  11  11 36.7278 270.702   6
   2  11  11 63.1613 356.973   6
  -2  11  13 619.981 393.866   3
   2  11  13 188.305 282.295   3
  -2  11  13 234.706 221.239   6
   2  11  13 388.641 336.998   6
  11   2  13-29.7766 359.061   6
  -2  11  15 857.691 375.963   3
   2  11  15 599.104 245.897   3
  -2  11  15 658.955 221.454   6
   2  11  15 857.723 311.218   6
  11   2  15 837.876 361.026   6
  -2  11  17 799.354 288.832   3
   2  11  17 942.204 263.723   3
 -11  -2 -17 878.720 217.545   4
   2  11  17 1162.14 263.073   6
  11   2  17 1348.56 330.801   6
  -2  11  19 1250.05 236.135   3
 -11  -2 -19 1481.15 193.783   4
  11   2  19 1620.85 240.914   6
  -3  11   0 992.003 372.647   3
  -3 -11   0 935.313 352.878   4
   3 -11   0-608.616 727.239   7
   3  11   0 2372.73 1033.21   2
  -3  11   0 789.035 398.627   6
  -3  11   0 1408.95 871.037   2
   3  11   0 459.604 267.539   6
  -3  11  -2 22.3616 306.390   3
  -3  11   2-69.9723 306.063   3
  11  -3   2 1389.57 887.320   7
  -3 -11   2 304.896 259.621   4
  -3 -11  -2 103.635 243.570   4
   3 -11   2 1975.98 1245.71   7
   3 -11  -2 956.526 965.433   7
   3  11  -2 1352.75 828.984   2
  -3  11  -2 1446.27 820.350   2
  -3  11  -2 1056.48 409.312   6
  -3  11   2 226.137 302.266   6
   3  11   2 1513.85 813.184   2
   3  11   2-397.542 303.285   6
  -3 -11  -4 5211.08 622.945   4
  11  -3   4 5619.62 1566.36   7
   3 -11   4 5907.59 1770.82   7
  -3  11  -4 5151.15 657.265   6
  -3  11   4 5723.67 665.083   6
   3  11   4 4612.92 631.249   6
  -3  11  -4 4079.43 1363.53   2
  -3  11  -4 5676.54 674.582   3
   3  11   4 6169.67 1615.76   2
  -3  11   4 988.232 709.150   2
  -3  11   4 5494.37 747.933   3
  -3  11   6 1424.73 451.616   3
  -3 -11  -6 1278.08 352.769   4
 -11  -3  -6 579.513 173.529   4
  -3  11   6 1398.94 393.874   6
   3  11   6 1349.40 456.093   6
  -3  11  -6 855.188 321.827   3
  -3 -11  -8 18377.0 1061.05   4
 -11  -3  -8 17293.3 955.657   4
  -3  11   8 18949.9 1130.33   6
   3  11   8 17352.9 1180.12   6
  -3  11   8 18214.6 1340.72   3
  -3  11  10 484.586 391.284   3
  -3 -11 -10 636.500 256.380   4
  -3  11  10 267.154 282.285   6
   3  11  10 404.698 311.097   6
  -3  11  12 348.902 328.705   3
  -3  11  12 369.725 254.196   6
   3  11  12 147.177 301.621   6
  11   3  12 405.330 351.970   6
  -3  11  14 705.765 385.180   3
 -11  -3 -14 680.777 227.439   4
  -3  11  14 640.371 246.297   6
   3  11  14 882.312 347.805   6
  11   3  14 587.051 315.458   6
  -3  11  16 787.420 333.007   3
 -11  -3 -16 743.603 219.667   4
   3  11  16 679.366 260.974   6
  11   3  16 744.137 302.911   6
  -3  11  18 315.320 189.757   3
 -11  -3 -18 433.011 146.693   4
   3  11  18 638.963 174.045   6
  11   3  18 230.642 174.483   6
  11  -3  18 225.645 172.321   6
  -4 -11   1 12081.2 937.727   4
  -4 -11  -1 10386.0 880.404   4
   4 -11   1 10104.6 2105.82   7
  -4  11  -1 12523.6 1005.74   6
  -4  11   1 11350.9 915.748   6
   4  11   1 9803.81 787.526   6
   4  11  -1 7236.13 1728.04   2
  -4  11  -1 7789.92 1801.73   2
  -4  11  -1 10379.5 912.697   3
  -4  11   1 9755.68 906.036   3
   4  11   1 11756.2 2123.71   2
  -4  11   1 8047.76 1850.87   2
  -4 -11   3 15323.5 2687.04   1
  -4 -11   3 21569.4 1240.38   4
  -4 -11  -3 21827.8 1216.92   4
  11  -4   3 17851.4 2645.79   7
   4 -11   3 20763.3 3119.03   7
  -4  11  -3 26371.0 1396.77   6
  -4  11   3 23040.5 1254.96   6
   4  11   3 23347.3 1242.84   6
   4  11  -3 17146.5 2626.80   2
  -4  11  -3 22451.6 1289.62   3
  -4  11  -3 19693.7 2884.87   2
  -4  11   3 22476.0 1405.12   3
   4  11   3 16352.3 2641.63   2
  -4  11   3 19920.1 2989.45   2
  -4 -11  -5 10422.1 841.414   4
 -11  -4  -5 8882.36 679.317   4
  -4  11   5 9946.91 861.722   6
   4  11   5 9797.44 881.683   6
  -4  11  -5 9743.37 867.166   3
  -4  11   5 9698.29 993.515   3
  -4 -11  -7 30024.8 1393.98   4
 -11  -4  -7 31009.4 1274.94   4
  -4  11   7 32368.3 1440.98   6
   4  11   7 31064.7 1546.30   6
  11   4   7 27465.4 1422.21   6
  -4  11   7 30018.0 1688.33   3
  -4 -11  -9 11485.5 850.645   4
 -11  -4  -9 9896.48 754.531   4
  -4  11   9 11460.4 863.713   6
   4  11   9 11429.8 963.072   6
  11   4   9 8896.44 870.807   6
  -4  11   9 11027.4 1060.84   3
  -4 -11 -11 9328.79 728.433   4
 -11  -4 -11 8371.91 682.684   4
  -4  11  11 7978.90 693.800   6
   4  11  11 9138.52 872.510   6
  11   4  11 7947.88 804.883   6
  -4  11  11 8759.56 939.248   3
  -4 -11 -13 4252.56 453.432   4
 -11  -4 -13 4144.32 481.151   4
  -4  11  13 4793.06 502.620   6
   4  11  13 4805.66 609.416   6
  11   4  13 4283.93 622.947   6
  -4  11  13 4875.90 688.775   3
 -11  -4 -15 4370.73 452.726   4
   4  11  15 5294.12 552.674   6
  11   4  15 5302.77 586.369   6
  -4  11  15 4604.77 608.394   3
 -11  -4 -17 5954.13 431.822   4
   4  11  17 5878.76 467.769   6
  11   4  17 5456.74 504.523   6
  -4  11  17 6188.57 549.935   3
  -5 -11   0 53937.2 1933.98   4
  -5  11   0 58176.3 2076.74   6
  -5  11   0 51731.9 2006.31   3
  -5 -11   2 68493.5 2187.28   4
  -5 -11  -2 69920.3 2167.25   4
 -11  -5  -2 66047.1 1801.00   4
  -5  11  -2 76570.0 2368.57   6
  -5  11   2 73661.8 2305.46   6
   5  11   2 60459.3 1875.44   6
  -5  11  -2 66082.6 2212.14   3
  -5  11   2 67316.2 2318.27   3
  -5 -11   4 32850.6 1541.90   4
  -5 -11  -4 32698.3 1484.62   4
 -11  -5  -4 31419.0 1279.92   4
  -5  11   4 32059.0 1497.66   6
   5  11   4 31425.1 1452.46   6
  -5  11  -4 33170.2 1574.45   3
  -5  11   4 32061.9 1676.81   3
  -5 -11  -6 63705.7 2040.98   4
 -11  -5  -6 60414.2 1808.12   4
  -5  11   6 60525.9 2003.33   6
   5  11   6 56984.3 2037.36   6
  -5  11  -6 63717.6 2173.92   3
  -5  11   6 59168.5 2302.81   3
  -5 -11  -8 29740.4 1372.86   4
 -11  -5  -8 27940.1 1247.88   4
  -5  11   8 28005.5 1342.93   6
   5  11   8 27905.3 1483.56   6
  11   5   8 25769.4 1380.13   6
  -5  11   8 27429.1 1579.20   3
  -5 -11 -10 39979.7 1520.41   4
 -11  -5 -10 38174.0 1446.81   4
  -5  11  10 42600.1 1556.35   6
   5  11  10 41214.5 1732.75   6
  11   5  10 36344.4 1605.77   6
  -5  11  10 38726.4 1840.74   3
  -5 -11 -12 25968.1 1135.71   4
 -11  -5 -12 24297.7 1119.34   4
  -5  11  12 27827.2 1169.07   6
   5  11  12 24708.7 1275.57   6
  11   5  12 25818.2 1311.03   6
  -5  11  12 22572.7 1352.45   3
  -5 -11 -14 26923.2 990.083   4
 -11  -5 -14 27593.3 1089.65   4
   5  11  14 26758.2 1198.29   6
  11   5  14 27918.9 1260.64   6
  -5  11  14 27079.1 1347.37   3
 -11  -5 -16 14846.1 710.196   4
   5  11  16 14519.1 764.179   6
  11   5  16 15265.8 821.355   6
  -5  11  16 15404.0 874.818   3
  -6 -11   1 51365.8 1905.55   4
  -6 -11  -1 50554.6 1886.90   4
 -11  -6  -1 49241.9 1581.70   4
  -6  11   1 56057.2 2034.91   6
  -6  11  -1 51511.5 1976.72   3
  -6  11   1 50126.1 1997.83   3
  -6 -11   3 33776.3 1556.46   4
  -6 -11  -3 32399.5 1521.67   4
 -11  -6  -3 32088.8 1307.35   4
  -6  11   3 36522.7 1639.39   6
   6  11   3 27610.2 1315.19   6
  -6  11  -3 32688.5 1578.63   3
  -6  11   3 31463.6 1618.70   3
  -6 -11  -5 48566.7 1808.70   4
 -11  -6  -5 45529.8 1600.40   4
  -6  11   5 50630.7 1861.81   6
   6  11   5 42798.3 1697.95   6
  -6  11  -5 47166.2 1879.47   3
  -6  11   5 44422.0 1946.71   3
  -6 -11  -7 30071.8 1421.28   4
 -11  -6  -7 28407.4 1268.81   4
  -6  11   7 32189.2 1445.49   6
   6  11   7 29671.9 1466.84   6
  11   6   7 26845.7 1329.92   6
  -6  11   7 30500.5 1614.75   3
  -6 -11  -9 39158.9 1558.67   4
 -11  -6  -9 35691.4 1404.62   4
  -6  11   9 41461.5 1553.88   6
   6  11   9 35783.6 1592.67   6
  11   6   9 35493.1 1554.58   6
  -6  11   9 37921.5 1789.42   3
  -6 -11 -11 25892.0 1185.22   4
 -11  -6 -11 24591.5 1141.64   4
   6  11  11 24908.8 1289.01   6
  11   6  11 25956.6 1296.03   6
  -6  11  11 23873.5 1371.97   3
  -6 -11 -13 17655.2 873.290   4
 -11  -6 -13 17283.1 883.564   4
   6  11  13 18023.2 1006.52   6
  11   6  13 16151.3 964.268   6
  -6  11  13 17995.8 1104.86   3
  -6 -11 -15 17220.1 687.565   4
 -11  -6 -15 17844.1 796.900   4
   6  11  15 18000.9 872.392   6
  11   6  15 15634.5 846.873   6
  -6  11  15 17881.5 941.012   3
 -11  -6 -17 12069.2 526.520   4
   6  11  17 11824.9 552.638   6
  11   6  17 10633.3 553.844   6
  -6  11  17 11818.6 585.996   3
  -7 -11   0 8365.88 813.255   4
 -11  -7   0 8877.33 711.312   4
  -7  11   0 9137.55 869.247   3
  -7  11   2 2693.27 520.993   3
  -7 -11   2 2559.76 485.707   4
  -7 -11  -2 2517.95 491.015   4
 -11  -7  -2 2818.17 425.389   4
  -7  11  -2 2861.13 536.306   3
  -7 -11  -4 19817.0 1186.88   4
 -11  -7  -4 18764.7 1051.29   4
  -7  11   4 19822.7 1169.76   6
  -7  11  -4 19833.3 1233.04   3
  -7  11   4 18357.6 1219.57   3
  -7 -11  -6 5292.00 641.409   4
 -11  -7  -6 4875.26 556.542   4
  -7  11   6 5419.74 623.018   6
   7  11   6 4811.40 601.924   6
  -7  11   6 5868.80 720.970   3
  -7 -11  -8 10588.2 850.525   4
 -11  -7  -8 10840.4 795.592   4
  -7  11   8 11091.5 817.184   6
   7  11   8 10431.8 867.135   6
  11   7   8 8772.73 774.382   6
  -7  11   8 10741.2 927.848   3
  -7 -11 -10 6839.39 642.899   4
 -11  -7 -10 6525.56 617.845   4
   7  11  10 5574.61 662.322   6
  11   7  10 5405.37 606.678   6
  -7  11  10 6562.64 717.268   3
  -7  11  12 2871.07 470.825   3
  -7 -11 -12 3410.41 425.061   4
 -11  -7 -12 3151.86 417.516   4
   7  11  12 3187.29 491.486   6
  11   7  12 2577.99 427.096   6
  -7  11  14 1805.70 338.999   3
  -7 -11 -14 1519.14 254.925   4
 -11  -7 -14 1492.31 261.619   4
   7  11  14 1211.68 305.981   6
  11   7  14 1476.61 326.036   6
 -11  -7 -16 3306.58 301.122   4
   7  11  16 2784.39 306.183   6
  11   7  16 2360.97 291.379   6
  -7  11  16 3036.89 308.839   3
  -8  11   1 561.690 310.409   3
  -8 -11   1 88.8669 274.108   4
 -11  -8   1 283.812 214.454   4
  -8 -11  -1 339.274 248.897   4
 -11  -8  -1 333.046 197.294   4
 -11   8  -1 789.469 285.629   3
 -11   8   1 344.771 223.310   3
  -8  11  -1 239.292 327.001   3
  -8 -11   3 5276.69 615.738   4
  -8 -11  -3 5208.49 639.923   4
 -11  -8  -3 5620.27 597.878   4
  -8  11  -3 5840.34 686.594   3
 -11   8   3 5889.92 596.245   3
  -8  11   3 5457.04 667.288   3
  -8  11   5 951.672 341.404   3
  -8 -11  -5 985.337 366.637   4
 -11  -8  -5 863.753 301.752   4
  -8  11   7 149.788 286.694   3
  -8 -11  -7 397.769 254.212   4
 -11  -8  -7 472.637 241.288   4
   8  11   7 108.806 231.516   6
  -8  11   9 243.483 231.211   3
  -8 -11  -9 56.2651 232.799   4
 -11  -8  -9 155.089 218.770   4
   8  11   9 312.538 303.272   6
  11   8   9 263.393 210.144   6
  -8  11  11 400.853 245.450   3
  -8 -11 -11 428.969 206.756   4
 -11  -8 -11 87.7067 199.968   4
   8  11  11 440.287 283.701   6
  11   8  11 151.029 224.894   6
  -8  11  13 230.784 155.857   3
  -8 -11 -13 56.3827 150.855   4
 -11  -8 -13 66.1066 153.100   4
   8  11  13 248.355 210.548   6
  11   8  13 220.657 213.848   6
 -11  -8 -15-90.2429 122.883   4
   8  11  15 67.5456 151.238   6
  11   8  15 380.817 171.437   6
  -9 -11   0 916.952 341.167   4
 -11  -9   0 888.451 285.858   4
 -11   9   0 1074.16 312.180   3
  -9  11   0 1342.99 361.824   3
  -9 -11   2 8658.74 753.848   4
 -11  -9   2 7559.77 659.603   4
  -9 -11  -2 7766.59 746.536   4
 -11  -9  -2 8323.25 686.502   4
  -9  11  -2 9282.08 809.231   3
 -11   9   2 6758.05 630.762   3
  -9  11   2 8685.94 773.416   3
  -9 -11  -4 4055.58 571.630   4
 -11  -9  -4 3166.08 450.496   4
 -11   9   4 4174.63 491.614   3
  -9  11   4 3876.15 537.840   3
 -11   9   6 1924.56 336.626   3
  -9  11   6 1599.04 371.102   3
  -9 -11  -6 1675.75 378.883   4
 -11  -9  -6 1882.97 392.643   4
  -9  11   8 529.686 247.585   3
  -9 -11  -8 629.778 284.009   4
 -11  -9  -8 781.452 286.916   4
   9  11   8 769.900 254.676   6
  -9  11  10 742.969 271.234   3
  -9 -11 -10 1116.58 282.378   4
 -11  -9 -10 1131.85 289.054   4
   9  11  10 1073.09 302.464   6
  11   9  10 1130.44 280.311   6
  -9 -11 -12 3611.33 375.898   4
 -11  -9 -12 3648.47 388.654   4
   9  11  12 3059.96 355.968   6
  11   9  12 3221.15 360.437   6
  -9  11  12 3447.45 367.633   3
  -9 -11 -14 2498.73 253.155   4
 -11  -9 -14 2270.20 254.399   4
 -10 -11   1 24696.3 1170.18   4
 -11 -10   1 25286.8 1118.16   4
 -10 -11  -1 24618.3 1183.30   4
 -11 -10  -1 24036.2 1115.71   4
 -10  11  -1 25388.2 1210.04   3
 -11  10   1 24172.6 1112.49   3
 -10  11   1 25979.9 1221.66   3
 -10 -11  -3 13951.2 896.411   4
 -11 -10  -3 13313.5 850.064   4
 -11  10   3 12713.6 797.526   3
 -10  11   3 13460.3 871.268   3
 -10 -11  -5 11159.9 801.983   4
 -11 -10  -5 10546.6 740.895   4
 -11  10   5 10407.9 690.221   3
 -10  11   5 11246.5 768.844   3
 -10 -11  -7 7153.15 620.833   4
 -11 -10  -7 8010.12 625.999   4
 -11  10   7 6715.74 522.833   3
 -10  11   7 6838.74 572.062   3
 -10 -11  -9 6443.04 543.889   4
 -11 -10  -9 6532.94 528.093   4
 -10  11   9 6146.61 496.711   3
 -10 -11 -11 10379.3 596.711   4
 -11 -10 -11 11243.1 614.408   4
 -10  11  11 10074.3 516.185   3
 -11 -10 -13 11807.2 510.136   4
 -11 -11   0 27013.3 1100.72   4
 -11 -11  -2 21415.4 993.867   4
 -11  11   2 21298.8 963.787   3
 -11 -11  -4 12990.7 769.414   4
 -11  11   4 12586.4 718.614   3
 -11 -11  -6 12491.3 735.109   4
 -11  11   6 11235.7 629.599   3
 -11 -11  -8 14267.5 724.662   4
 -11  11   8 12182.7 567.258   3
 -11 -11 -10 14045.0 640.393   4
   0  12   0 35021.5 1495.34   6
   0  12  -2 31879.4 1419.83   6
   0  12   2 31547.0 1460.61   6
   0  12   2 32512.0 1486.03   3
   0  12  -4 34945.3 1514.71   6
   0  12   4 35221.5 1552.44   6
   0  12   4 31295.7 1532.34   3
   0  12   6 12532.0 984.132   6
   0  12   6 11347.3 981.391   3
   0  12   8 12057.3 962.090   6
   0  12   8 10914.8 975.580   3
   0  12  10 37565.9 1608.44   6
   0  12  10 37130.6 1765.50   3
   0  12  12 17214.2 1028.99   6
   0  12  12 17334.5 1167.40   3
   0  12  14 11952.7 771.627   6
   0  12  14 10676.1 839.372   3
 -12   0 -16 6579.62 442.702   4
   0  12  16 7196.09 490.878   6
  12   0  16 7189.15 602.569   6
   0  12  16 6273.20 545.791   3
  12   0  18 4002.11 353.215   6
  -1 -12  -1 11256.1 876.755   4
  12   1   1 14674.1 2376.43   7
  -1  12  -1 11159.1 883.849   6
   1  12  -1 10396.9 817.784   6
  -1  12   1 11997.4 927.676   6
   1  12   1 10483.3 864.013   6
  -1  12  -1 11347.8 890.325   3
  -1  12   1 11699.7 930.492   3
  -1 -12  -3 8956.23 772.025   4
  -1  12  -3 10834.5 886.218   6
   1  12  -3 8307.88 738.811   6
  -1  12   3 9369.10 834.204   6
   1  12   3 8744.87 799.867   6
  -1  12  -3 9275.81 767.859   3
  -1  12   3 10909.9 932.975   3
  -1 -12  -5 7912.14 702.976   4
  -1  12   5 6397.95 724.718   6
   1  12   5 7070.36 764.619   6
  -1  12  -5 7232.63 710.945   3
  -1  12   5 7087.04 841.178   3
  -1  12   7 5392.52 666.463   6
   1  12   7 5356.23 686.394   6
   1  12   7 5003.35 687.104   3
  -1  12   7 5336.90 743.963   3
  -1  12   9 10806.2 884.761   6
   1  12   9 10976.1 934.297   6
   1  12   9 11174.8 944.262   3
  -1  12   9 10837.9 1012.79   3
  -1  12  11 5917.91 638.415   6
   1  12  11 6880.88 727.718   6
  -1  12  11 6462.57 784.710   3
   1  12  11 5997.00 707.699   3
  -1  12  13 5098.41 550.930   6
   1  12  13 5333.80 592.568   6
  -1  12  13 4859.80 653.051   3
   1  12  13 4811.67 601.610   3
  -1  12  15 1865.63 385.654   3
   1  12  15 1950.32 360.034   3
 -12  -1 -15 1872.73 294.713   4
  -1  12  15 1684.39 305.957   6
   1  12  15 1866.63 324.838   6
  12   1  15 1639.17 371.683   6
   1  12  17 2170.93 283.533   3
 -12  -1 -17 2257.90 251.395   4
 -12   1 -17 2101.89 237.188   4
   1  12  17 1693.82 230.281   6
  -1  12  17 2404.57 334.618   3
  12   1  17 2153.09 321.273   6
  12  -1  17 1975.88 315.298   6
  -2  12   0 8.70883 267.984   3
  -2 -12   0 76.9431 275.453   4
  -2  12   0 112.370 327.547   6
   2  12   0 556.729 300.275   6
  -2  12  -2 862.051 348.334   3
  -2  12   2 650.614 342.075   3
  -2 -12  -2 800.811 335.763   4
  -2  12  -2 1900.00 510.304   6
  -2  12   2 1376.68 439.319   6
   2  12   2 1168.10 400.482   6
  -2  12   4 2807.55 546.295   3
  -2 -12  -4 2762.47 465.548   4
  -2  12  -4 3938.45 640.649   6
  -2  12   4 4142.38 602.195   6
   2  12   4 3717.37 583.902   6
  -2  12  -4 2651.39 488.647   3
  -2  12   6 2735.03 575.282   3
  -2 -12  -6 2050.41 399.098   4
  -2  12   6 1420.52 406.894   6
   2  12   6 2038.71 475.759   6
  -2  12   8 1109.20 422.059   3
 -12  -2  -8 863.566 242.049   4
  -2  12   8 789.354 376.113   6
   2  12   8 1519.23 464.907   6
  -2  12  10 2325.44 547.352   3
 -12  -2 -10 1879.55 320.314   4
  -2  12  10 2817.15 499.837   6
   2  12  10 2773.18 544.299   6
  -2  12  12 523.956 337.187   3
   2  12  12 788.293 317.713   3
 -12  -2 -12 445.215 227.588   4
  -2  12  12 252.095 251.945   6
   2  12  12 914.775 356.309   6
  12   2  12 391.024 330.022   6
   2  12  14 909.697 273.756   3
  -2  12  14 271.277 287.178   3
 -12  -2 -14 748.919 231.786   4
  -2  12  14 641.048 242.918   6
   2  12  14 945.803 311.368   6
  12   2  14 641.907 300.768   6
  -2  12  16 279.922 227.888   3
 -12  -2 -16 472.789 180.032   4
   2  12  16 536.234 207.291   6
  12   2  16 300.842 234.338   6
  -3  12  -1 2171.68 472.049   3
  -3  12   1 2082.09 503.341   3
  -3 -12   1 2409.47 502.862   4
  -3 -12  -1 2442.78 478.490   4
  -3  12  -1 2153.03 524.701   6
  -3  12   1 2306.18 512.572   6
   3  12   1 1025.19 319.374   6
  -3 -12  -3 7357.71 741.745   4
  -3  12  -3 7933.62 837.084   6
  -3  12   3 7536.73 782.391   6
   3  12   3 7127.29 739.505   6
  -3  12  -3 6637.97 725.033   3
  -3  12   3 7680.44 836.824   3
  -3  12   5 185.817 315.461   3
  -3 -12  -5 273.342 262.955   4
  -3  12   5-75.6189 322.558   6
   3  12   5 338.465 297.976   6
  -3  12  -5 772.072 327.642   3
  -3  12   7 1615.06 491.958   3
  -3 -12  -7 1703.56 378.928   4
 -12  -3  -7 1618.58 320.745   4
  -3  12   7 1233.92 433.551   6
   3  12   7 1339.73 430.071   6
  12   3   7 782.452 368.199   6
  -3 -12  -9 7354.85 649.847   4
 -12  -3  -9 7156.03 603.355   4
  -3  12   9 8422.72 769.956   6
   3  12   9 7872.28 797.535   6
  12   3   9 6691.18 734.545   6
  -3  12   9 8351.61 901.730   3
  -3  12  11 1815.08 473.924   3
 -12  -3 -11 2050.41 360.954   4
  -3  12  11 2458.38 449.491   6
   3  12  11 2246.23 500.530   6
  12   3  11 1447.34 410.360   6
  -3  12  13 2668.63 510.966   3
 -12  -3 -13 2395.01 341.144   4
  -3  12  13 2941.98 406.040   6
   3  12  13 3340.07 494.016   6
  12   3  13 1748.82 410.739   6
  -3  12  15 592.517 257.855   3
 -12  -3 -15 490.862 196.720   4
   3  12  15 553.651 240.376   6
  12   3  15 525.398 264.806   6
  -3  12  17 445.718 188.501   3
 -12  -3 -17 459.104 140.831   4
   3  12  17 571.469 162.956   6
  12   3  17 630.506 214.042   6
  12  -3  17 645.888 206.559   6
  -4  12   0 2362.67 492.379   3
  -4 -12   0 2319.26 471.459   4
  -4  12   0 2518.46 532.216   6
  -4  12  -2 992.601 377.448   3
  -4  12   2 775.362 349.375   3
  -4 -12   2 936.629 398.379   4
  -4 -12  -2 718.721 323.913   4
  -4  12  -2 940.801 405.320   6
  -4  12   2 734.897 345.113   6
   4  12   2 1166.97 358.108   6
  -4 -12  -4 6486.89 700.714   4
  -4  12   4 5737.25 682.431   6
   4  12   4 5583.87 655.873   6
  -4  12  -4 6257.47 702.971   3
  -4  12   4 5974.31 751.243   3
  -4  12   6 3218.87 615.907   3
 -12  -4  -6 3319.68 422.087   4
  -4 -12  -6 3238.25 496.040   4
  -4  12   6 2926.81 502.417   6
   4  12   6 3180.77 573.416   6
  -4  12   8 556.118 393.141   3
  -4 -12  -8 359.761 266.494   4
 -12  -4  -8 243.100 196.827   4
  -4  12   8 434.037 306.177   6
   4  12   8-70.4428 306.781   6
  12   4   8-65.2233 280.543   6
  -4  12  10 349.540 353.088   3
  -4 -12 -10 487.890 240.471   4
 -12  -4 -10 88.9894 212.793   4
  -4  12  10 215.323 271.924   6
   4  12  10 397.570 319.424   6
  12   4  10-7.89068 284.127   6
  -4  12  12 1595.27 429.219   3
 -12  -4 -12 1685.66 310.140   4
  -4  12  12 1913.61 348.613   6
   4  12  12 1604.33 403.471   6
  12   4  12 2103.20 426.878   6
  -4  12  14 1336.37 360.070   3
 -12  -4 -14 1142.57 237.814   4
   4  12  14 1390.47 320.973   6
  12   4  14 1225.81 323.455   6
  -4  12  16 1345.00 275.153   3
 -12  -4 -16 1392.43 221.650   4
   4  12  16 1272.95 240.193   6
  12   4  16 1245.02 252.099   6
  -5 -12   1 20906.2 1252.01   4
  -5 -12  -1 18870.0 1181.39   4
  -5  12  -1 21455.5 1282.67   6
  -5  12   1 21548.5 1324.29   6
  -5  12  -1 19339.4 1221.25   3
  -5  12   1 20420.6 1280.18   3
  -5 -12  -3 27172.2 1391.20   4
  -5  12   3 28251.2 1453.62   6
   5  12   3 25777.1 1239.61   6
  -5  12  -3 26757.1 1406.66   3
  -5  12   3 26558.5 1490.98   3
  -5 -12  -5 12043.9 933.343   4
 -12  -5  -5 11338.0 760.814   4
  -5  12   5 11516.4 935.330   6
   5  12   5 10317.5 865.026   6
  -5  12  -5 12934.9 988.837   3
  -5  12   5 13382.3 1078.51   3
  -5 -12  -7 4973.87 604.219   4
 -12  -5  -7 4762.47 513.385   4
  -5  12   7 5244.15 632.820   6
   5  12   7 4700.31 615.304   6
  -5  12   7 4735.64 694.283   3
  -5 -12  -9 16259.3 967.319   4
 -12  -5  -9 15083.1 864.027   4
  -5  12   9 14265.3 938.388   6
   5  12   9 15986.9 1045.73   6
  12   5   9 15604.3 983.092   6
  -5  12   9 16690.3 1195.16   3
  -5 -12 -11 11323.0 745.773   4
 -12  -5 -11 11645.5 744.345   4
  -5  12  11 12097.3 810.775   6
   5  12  11 11423.1 854.315   6
  12   5  11 10487.4 798.975   6
  -5  12  11 11940.6 959.759   3
  -5 -12 -13 12774.7 659.495   4
 -12  -5 -13 12431.6 710.192   4
   5  12  13 11662.0 782.608   6
  12   5  13 12734.1 809.866   6
  -5  12  13 12797.1 896.163   3
 -12  -5 -15 5754.22 426.009   4
   5  12  15 5992.94 477.258   6
  12   5  15 5682.66 489.530   6
  -5  12  15 6360.75 538.778   3
  -6 -12   0 21947.9 1265.38   4
  -6  12   0 17956.2 1189.43   3
  -6 -12   2 23209.8 1312.84   4
  -6 -12  -2 24676.7 1341.20   4
  -6  12   2 24769.8 1357.18   6
  -6  12  -2 23665.5 1344.80   3
  -6  12   2 26902.7 1460.83   3
  -6 -12  -4 5335.15 664.997   4
 -12  -6  -4 5458.99 546.736   4
  -6  12   4 5602.05 702.230   6
   6  12   4 4143.18 542.834   6
  -6  12  -4 5281.16 667.117   3
  -6  12   4 5677.51 718.694   3
  -6 -12  -6 7425.71 723.776   4
 -12  -6  -6 7120.51 608.931   4
  -6  12   6 7432.24 750.598   6
   6  12   6 5356.55 635.160   6
  -6  12   6 7941.78 845.836   3
  -6 -12  -8 14199.0 931.384   4
 -12  -6  -8 13483.8 827.122   4
  -6  12   8 16447.3 1015.66   6
   6  12   8 10436.4 854.901   6
  12   6   8 10419.9 781.653   6
  -6  12   8 13356.6 1046.06   3
  -6 -12 -10 14680.6 882.028   4
 -12  -6 -10 14027.1 821.764   4
  -6  12  10 14811.8 874.970   6
   6  12  10 13573.4 903.009   6
  12   6  10 12022.7 832.473   6
  -6  12  10 15544.1 1060.52   3
  -6 -12 -12 6608.64 520.628   4
 -12  -6 -12 6656.73 534.500   4
   6  12  12 6187.58 581.189   6
  12   6  12 6197.63 579.124   6
  -6  12  12 6555.66 647.240   3
  -6 -12 -14 5234.38 362.530   4
 -12  -6 -14 5819.78 433.676   4
   6  12  14 5006.22 464.420   6
  12   6  14 4749.52 441.487   6
  -6  12  14 5857.80 518.837   3
  -7 -12   1 4114.23 581.805   4
  -7 -12  -1 4676.77 612.785   4
  -7  12  -1 3767.96 568.828   3
  -7  12   1 4069.69 600.541   3
  -7  12   3 479.743 303.836   3
  -7 -12  -3 753.667 335.656   4
 -12  -7  -3 301.923 170.072   4
  -7  12  -3 740.161 346.120   3
  -7  12   5 401.219 294.900   3
  -7 -12  -5 589.622 360.307   4
 -12  -7  -5 597.301 249.111   4
   7  12   5 654.342 312.256   6
  -7  12   7 2441.88 465.371   3
 -12  -7  -7 3413.17 433.820   4
  -7 -12  -7 2744.13 486.025   4
   7  12   7 2721.06 441.689   6
  -7  12   9 632.227 300.305   3
  -7 -12  -9 537.796 250.166   4
 -12  -7  -9 495.908 231.340   4
   7  12   9 127.256 246.066   6
  -7  12  11 621.725 277.718   3
  -7 -12 -11 810.181 248.912   4
 -12  -7 -11 716.221 240.706   4
   7  12  11 440.235 257.957   6
  12   7  11 136.442 193.334   6
  -7  12  13 306.767 173.967   3
  -7 -12 -13 412.144 158.230   4
 -12  -7 -13 345.399 147.957   4
   7  12  13 329.021 225.195   6
  12   7  13 175.381 160.883   6
 -12  -7 -15 21.4978 98.2515   4
  -8 -12   0 796.725 329.128   4
  -8  12   0 448.019 292.642   3
  -8  12   2 2476.42 472.625   3
  -8 -12   2 1763.53 411.755   4
  -8 -12  -2 2385.85 475.459   4
 -12  -8  -2 2318.82 391.909   4
  -8  12  -2 2654.81 482.655   3
  -8  12   4 786.470 331.804   3
  -8 -12  -4 617.508 325.089   4
 -12  -8  -4 587.190 225.208   4
  -8  12   6 278.015 271.413   3
  -8 -12  -6 35.3614 224.094   4
 -12  -8  -6-58.7586 215.490   4
  -8  12   8 1478.07 354.321   3
  -8 -12  -8 2011.66 380.044   4
 -12  -8  -8 1532.31 310.914   4
   8  12   8 1033.74 279.292   6
  -8  12  10 1852.61 341.087   3
  -8 -12 -10 2423.25 357.383   4
 -12  -8 -10 2007.23 318.555   4
   8  12  10 1870.38 311.701   6
  -8  12  12 135.122 161.960   3
  -8 -12 -12 259.836 168.121   4
 -12  -8 -12 466.572 168.384   4
   8  12  12 318.988 185.057   6
  12   8  12 535.868 182.188   6
  -9 -12   1-70.2369 236.508   4
  -9 -12  -1 72.5498 231.478   4
 -12  -9  -1 84.8498 164.436   4
  -9  12  -1 294.089 257.644   3
  -9  12   1 385.804 260.577   3
  -9  12   3 632.845 268.792   3
  -9 -12  -3 43.3117 220.969   4
 -12  -9  -3 174.752 192.492   4
  -9  12   5 78.4325 201.099   3
  -9 -12  -5 429.827 242.394   4
 -12  -9  -5 269.900 200.537   4
  -9  12   7 600.963 255.493   3
  -9 -12  -7 583.032 254.936   4
 -12  -9  -7 432.038 219.712   4
  -9  12   9 264.459 192.167   3
  -9 -12  -9 394.673 186.686   4
 -12  -9  -9 164.900 155.358   4
   9  12   9 274.629 173.024   6
  -9  12  11 276.633 163.340   3
  -9 -12 -11 29.9113 145.627   4
 -12  -9 -11 73.8988 132.196   4
   9  12  11-23.9514 124.981   6
 -10 -12   0 3379.81 441.742   4
 -12 -10   0 2834.06 354.873   4
 -10  12   0 3429.07 443.087   3
 -10 -12  -2 4594.49 506.277   4
 -12 -10  -2 4202.18 438.010   4
 -10  12   2 4654.22 499.054   3
 -10 -12  -4 5389.43 542.629   4
 -12 -10  -4 5467.03 487.904   4
 -10  12   4 5377.59 513.570   3
 -10 -12  -6 1922.16 334.423   4
 -12 -10  -6 1567.87 282.005   4
 -10  12   6 1558.04 286.258   3
 -12 -10  -8 2328.75 316.864   4
 -10 -12  -8 1843.25 305.353   4
 -10  12   8 2162.37 288.861   3
 -10 -12 -10 3298.73 320.796   4
 -12 -10 -10 2852.08 288.755   4
 -11 -12  -3 6266.82 503.233   4
 -12 -11  -3 5710.53 461.353   4
 -11  12   3 6399.90 480.253   3
 -11 -12  -5 5041.42 437.712   4
 -12 -11  -5 5456.93 432.295   4
 -11  12   5 4927.78 390.247   3
 -11 -12  -7 7289.43 481.297   4
 -12 -11  -7 7068.83 454.641   4
   0  13  -1 265.770 279.510   6
   0  13   1 300.581 279.641   6
   0  13   3 4021.43 553.028   3
   0  13   3 4048.73 590.145   6
   0  13  -3 3589.45 567.052   6
   0  13   5 1557.48 381.493   3
   0  13   5 1858.43 443.763   6
   0  13   7-80.4231 254.188   3
   0  13   7-9.92216 303.207   6
   0  13   9 16623.7 1051.04   6
   0  13   9 15361.4 1043.12   3
   0  13  11 1918.48 406.115   3
   0  13  11 1893.55 419.457   6
   0  13  13 253.727 200.182   3
 -13   0 -13 260.658 147.319   4
   0  13  13 70.5730 215.755   6
  13   0  13-288.863 267.471   6
   0  13  15 205.882 163.787   3
 -13   0 -15 327.283 130.907   4
   0  13  15 410.640 183.154   6
  13   0  15 211.349 204.853   6
  -1  13   0 2201.00 418.587   3
  -1  13   0 1938.64 478.054   6
   1  13   0 1192.33 368.997   6
  -1  13   2 418.173 296.200   3
  -1  13  -2 42.1136 335.943   6
   1  13  -2 473.274 311.676   6
  -1  13   2 307.878 329.303   6
   1  13   2 92.4892 271.953   6
  -1  13  -2 111.995 225.582   3
  -1  13   4 56.0333 254.325   3
  -1 -13  -4 145.003 211.687   4
  -1  13   4 264.760 307.130   6
   1  13   4 174.279 331.451   6
  -1  13  -4 371.902 240.467   3
  -1  13   6 1382.55 415.216   3
  -1  13   6 1051.47 397.547   6
   1  13   6 1107.92 387.159   6
  -1  13   8 1952.63 494.457   3
  -1  13   8 1438.05 416.004   6
   1  13   8 2017.12 442.275   6
   1  13  10-237.262 235.221   3
  -1  13  10 331.285 262.663   3
 -13  -1 -10 406.712 185.314   4
  -1  13  10-187.085 291.572   6
   1  13  10 82.5796 290.655   6
   1  13  12 858.768 281.384   3
  -1  13  12 633.168 305.515   3
 -13  -1 -12 543.843 171.529   4
  -1  13  12 359.193 235.040   6
   1  13  12 825.277 310.994   6
  13   1  12 446.299 284.421   6
   1  13  14 1266.88 288.489   3
  -1  13  14 452.743 232.506   3
 -13  -1 -14 1111.11 200.213   4
 -13   1 -14 934.964 193.852   4
  -1  13  14 1009.79 256.850   6
   1  13  14 760.797 245.071   6
  13   1  14 1143.83 295.719   6
  13  -1  14 1523.22 345.396   6
  -1  13  16 58.0217 132.370   3
  13   1  16-18.0994 174.051   6
  13  -1  16-75.2402 185.836   6
  -2  13  -1 12978.6 1028.83   6
  -2  13   1 11499.8 945.964   6
   2  13  -1 10052.5 784.351   6
   2  13   1 11163.5 850.916   6
  -2  13  -1 11025.0 866.250   3
  -2  13   1 10553.8 888.007   3
  -2 -13  -3 11741.6 880.836   4
  -2  13  -3 14098.2 1025.84   6
  -2  13   3 12240.4 961.744   6
   2  13   3 12664.8 930.228   6
  -2  13  -3 12260.9 910.896   3
  -2  13   3 10922.2 925.083   3
  -2 -13  -5 11544.7 848.249   4
  -2  13   5 12844.6 982.412   6
   2  13   5 12149.3 928.658   6
  -2  13   5 12228.6 1005.75   3
  -2  13   7 2430.35 507.321   3
  -2  13   7 2551.59 494.907   6
   2  13   7 3024.57 523.751   6
  13   2   7 1842.51 399.877   6
 -13  -2  -9 13546.3 733.581   4
  -2  13   9 14730.9 964.023   6
   2  13   9 15626.4 1017.69   6
  13   2   9 11964.7 882.506   6
  -2  13   9 12577.1 996.800   3
 -13  -2 -11 9448.51 604.570   4
  -2  13  11 10975.1 786.373   6
   2  13  11 11761.7 850.422   6
  13   2  11 9931.34 785.422   6
  -2  13  11 10678.0 876.635   3
 -13  -2 -13 5896.20 437.861   4
  -2  13  13 6250.53 533.607   6
   2  13  13 6265.64 563.393   6
  13   2  13 6369.17 593.560   6
  -2  13  13 5955.39 604.894   3
 -13  -2 -15 4939.22 351.154   4
  -2  13  15 5920.68 399.085   6
   2  13  15 5559.66 434.989   6
  13   2  15 5939.07 486.121   6
  13  -2  15 5182.52 470.808   6
  -2  13  15 5350.33 480.051   3
  -3 -13   0 14975.6 1040.41   4
   3  13   0 15966.8 961.417   6
  -3  13   0 16218.7 1091.79   3
  -3 -13  -2 12306.8 939.670   4
  -3  13  -2 14300.5 1033.61   6
  -3  13   2 14144.7 1053.28   6
   3  13   2 12082.0 884.198   6
  -3  13  -2 12630.3 960.015   3
  -3  13   2 12547.7 997.776   3
  -3 -13  -4 16193.3 1027.14   4
  -3  13   4 16326.8 1095.34   6
   3  13   4 14649.2 1005.34   6
  -3  13  -4 16854.5 1073.37   3
  -3  13   4 15275.8 1110.88   3
  -3  13   6 4176.89 625.602   3
  -3 -13  -6 4168.44 526.657   4
  -3  13   6 5170.09 639.409   6
   3  13   6 5486.18 666.681   6
  -3 -13  -8 26687.8 1167.76   4
 -13  -3  -8 24854.4 1010.11   4
  -3  13   8 28546.3 1356.43   6
   3  13   8 27014.6 1329.50   6
  13   3   8 23682.4 1169.78   6
  -3  13   8 25554.7 1425.28   3
 -13  -3 -10 14794.1 764.956   4
  -3  13  10 17740.7 986.178   6
   3  13  10 16029.5 996.707   6
  13   3  10 14501.2 920.031   6
  -3  13  10 16158.6 1094.25   3
 -13  -3 -12 9705.08 583.276   4
  -3  13  12 10700.4 708.124   6
   3  13  12 11253.8 766.112   6
  13   3  12 9804.25 723.165   6
  -3  13  12 10519.5 808.031   3
 -13  -3 -14 3207.34 322.614   4
  -3  13  14 3567.06 357.705   6
   3  13  14 3274.98 385.896   6
  -3  13  14 3061.56 410.398   3
  13   3  14 2774.22 361.701   6
  13  -3  16 5422.81 407.696   6
  -4 -13  -1 3828.95 568.299   4
  -4  13  -1 4525.22 660.538   6
  -4  13   1 5115.39 695.244   6
  -4  13  -1 4344.16 614.109   3
  -4  13   1 4382.18 622.058   3
  -4  13   3 753.034 347.796   3
  -4 -13  -3 407.407 295.540   4
  -4  13   3 184.635 312.934   6
   4  13   3 79.3369 272.434   6
  -4  13  -3 571.015 287.671   3
  -4  13   5 804.210 371.043   3
  -4 -13  -5 695.184 291.639   4
  -4  13   5 680.771 356.525   6
   4  13   5 897.653 346.950   6
  -4 -13  -7 10451.9 790.760   4
 -13  -4  -7 11408.1 702.579   4
  -4  13   7 12479.4 913.138   6
   4  13   7 11335.6 886.322   6
  -4  13   7 13227.4 1029.95   3
  -4 -13  -9 3550.77 461.012   4
 -13  -4  -9 3610.20 400.827   4
  -4  13   9 3912.09 531.793   6
   4  13   9 3591.89 524.241   6
  -4  13   9 3992.95 598.096   3
  13   4   9 2878.77 416.202   6
  -4  13  11 989.455 332.870   3
 -13  -4 -11 665.041 214.216   4
  -4  13  11 961.470 310.208   6
   4  13  11 514.206 266.406   6
  13   4  11 1193.79 300.431   6
  -4  13  13 240.975 243.252   3
 -13  -4 -13 310.663 152.158   4
  -4  13  13 482.778 177.774   6
   4  13  13 435.485 232.650   6
  13   4  13 445.611 226.712   6
  -4  13  15 173.533 162.239   3
 -13  -4 -15-248.269 117.974   4
   4  13  15 368.247 156.481   6
  13   4  15 243.636 146.624   6
  -5  13   0 240.192 269.919   3
  -5 -13   0 347.985 320.360   4
  -5  13   2 2133.84 479.311   3
  -5 -13  -2 1854.24 458.854   4
  -5  13   2 1863.77 481.625   6
  -5  13  -2 1569.51 406.044   3
  -5 -13  -4 7262.90 734.484   4
  -5  13   4 7503.92 784.250   6
   5  13   4 6627.62 635.241   6
  -5  13  -4 7976.58 776.449   3
  -5  13   4 7683.85 805.543   3
  -5  13   6 2411.65 501.483   3
  -5 -13  -6 1694.89 382.859   4
 -13  -5  -6 1643.14 277.219   4
  -5  13   6 1294.64 429.568   6
   5  13   6 1764.21 405.891   6
  -5  13   8 711.083 343.839   3
  -5 -13  -8 755.511 272.316   4
 -13  -5  -8 418.114 167.049   4
  -5  13   8 480.909 289.168   6
   5  13   8 328.392 272.952   6
  -5  13  10 1252.66 371.733   3
  -5 -13 -10 1066.61 256.263   4
 -13  -5 -10 1166.61 242.645   4
  -5  13  10 1696.23 343.604   6
   5  13  10 1422.94 342.028   6
  13   5  10 1351.80 296.088   6
  -5  13  12 2046.45 373.981   3
  -5  13  12 2494.75 317.322   6
 -13  -5 -12 1818.41 261.007   4
   5  13  12 1470.58 311.516   6
  13   5  12 1856.67 313.396   6
  -5  13  14 650.306 213.297   3
 -13  -5 -14 726.720 167.006   4
   5  13  14 560.405 185.596   6
  -6  13   1 1074.45 359.865   3
  -6 -13   1 458.170 302.146   4
  -6 -13  -1 901.813 345.514   4
  -6  13  -1 1343.34 360.455   3
  -6  13   3 2893.43 503.393   3
  -6 -13  -3 3487.57 531.896   4
  -6  13  -3 3269.34 523.865   3
  -6  13   5 756.516 369.720   3
  -6 -13  -5 681.445 317.602   4
  -6  13   5 723.239 342.654   6
 -13  -6  -5 714.709 233.987   4
   6  13   5 877.937 285.810   6
  -6  13   7 639.204 327.658   3
  -6 -13  -7 468.525 262.443   4
 -13  -6  -7 831.297 253.535   4
  -6  13   7 541.277 313.667   6
   6  13   7 646.581 291.991   6
  -6  13   9 2499.12 453.515   3
  -6 -13  -9 2362.39 373.824   4
  -6  13   9 2218.28 380.369   6
 -13  -6  -9 2202.62 316.195   4
   6  13   9 1814.91 351.231   6
  -6  13  11 666.995 268.715   3
  -6 -13 -11 522.283 185.971   4
 -13  -6 -11 790.213 209.139   4
   6  13  11 593.820 243.354   6
  13   6  11 80.9138 216.013   6
  -6  13  13 205.506 152.780   3
 -13  -6 -13 84.1318 113.650   4
   6  13  13 176.397 165.041   6
  -7 -13   0 851.877 326.279   4
  -7  13   0 1119.37 359.203   3
  -7  13   2 1635.77 411.035   3
  -7 -13  -2 1401.18 401.244   4
  -7  13  -2 1127.96 341.277   3
  -7 -13  -4 8482.94 764.456   4
 -13  -7  -4 8455.48 591.559   4
  -7  13   4 9531.20 822.613   3
  -7  13   6 984.104 332.597   3
  -7 -13  -6 771.960 301.447   4
 -13  -7  -6 1064.03 236.888   4
   7  13   6 1115.47 280.020   6
  -7  13   8 742.659 285.797   3
  -7 -13  -8 898.327 285.982   4
 -13  -7  -8 770.764 202.868   4
   7  13   8 838.424 241.220   6
  -7  13  10 1419.80 286.923   3
  -7 -13 -10 1622.47 286.159   4
 -13  -7 -10 1514.49 253.669   4
   7  13  10 1201.50 267.400   6
  -7  13  12 1562.23 259.487   3
  -7 -13 -12 1643.14 217.069   4
 -13  -7 -12 1381.47 210.823   4
   7  13  12 1180.64 212.161   6
  -8 -13  -1 5559.71 604.874   4
  -8  13  -1 4800.94 577.772   3
  -8  13   1 5195.38 596.407   3
  -8 -13  -3 12758.0 868.446   4
 -13  -8  -3 11434.5 658.008   4
  -8  13   3 12885.9 867.692   3
  -8 -13  -5 6111.94 613.985   4
 -13  -8  -5 5357.08 460.546   4
  -8  13   5 5466.35 570.150   3
  -8 -13  -7 5446.16 518.103   4
 -13  -8  -7 5450.99 449.964   4
  -8  13   7 5749.54 553.896   3
  -8 -13  -9 7037.05 523.242   4
 -13  -8  -9 7311.21 477.256   4
  -8  13   9 7319.40 558.450   3
  -8 -13 -11 6228.50 406.834   4
 -13  -8 -11 6495.05 399.557   4
  -8  13  11 6730.52 455.680   3
  -9  13   0 4264.17 492.722   3
  -9 -13  -2 2696.09 410.367   4
  -9  13   2 2911.69 416.863   3
  -9 -13  -4 1434.74 319.050   4
 -13  -9  -4 1302.28 247.019   4
  -9  13   4 1419.31 299.097   3
  -9 -13  -6 2914.59 380.027   4
 -13  -9  -6 2934.92 320.451   4
  -9  13   6 2649.16 351.909   3
  -9 -13  -8 3045.85 354.089   4
 -13  -9  -8 3206.15 312.508   4
  -9  13   8 3157.84 347.509   3
  -9 -13 -10 1777.27 233.382   4
 -10 -13  -3 472.638 213.388   4
 -13 -10  -3 479.296 153.321   4
 -10  13   3 409.409 182.331   3
 -10 -13  -5-188.925 155.483   4
 -13 -10  -5 249.301 123.110   4
 -10  13   5 78.7214 120.837   3
 -10 -13  -7 20.0542 125.936   4
 -10  13   7 43.9813 93.8579   3
   0  14   0 1489.11 402.475   6
   0  14  -2 1123.75 384.728   6
   0  14   2 305.437 300.665   6
   0  14   4 1737.26 442.788   6
   0  14   6 9931.40 840.404   6
   0  14   6 10470.1 792.381   3
   0  14   8 2752.06 425.871   3
   0  14   8 3696.69 532.795   6
   0  14  10 2556.62 390.152   3
   0  14  10 4007.94 503.895   6
   0  14  12 320.855 161.522   3
   0  14  12 314.391 215.078   6
  14   0  12 748.476 268.853   6
   0  14  14-104.443 147.845   6
  14   0  14 198.843 169.210   6
  -1  14   1 862.868 297.035   3
  -1  14  -1 326.843 309.974   6
   1  14  -1 46.6705 242.137   6
  -1  14   1 263.351 317.063   6
   1  14   1 204.759 287.472   6
  -1  14   3 343.768 270.002   3
  -1  14   3 548.679 337.592   6
   1  14   3 28.3512 304.873   6
  -1  14   5 181.474 241.500   3
  -1  14   5 302.645 329.403   6
   1  14   5 177.568 300.927   6
  -1  14   7 1149.63 344.902   3
  -1  14   7 999.976 384.958   6
   1  14   7 881.653 342.888   6
  -1  14   9-303.583 221.248   3
  -1  14   9-43.2150 263.646   6
   1  14   9 53.4588 264.788   6
  14   1   9-52.1210 205.709   6
  -1  14  11-29.8747 196.078   3
  -1  14  11 181.561 228.569   6
   1  14  11-18.3935 237.131   6
  14   1  11 4.65716 193.585   6
  -1  14  13 61.0799 161.258   6
   1  14  13 336.095 187.052   6
  14   1  13 270.018 182.075   6
  14  -1  13 191.122 197.350   6
  -2  14   0 2692.25 442.273   3
  -2  14   0 2190.00 494.871   6
   2  14   0 2129.15 412.785   6
  -2  14   2 6581.05 732.174   6
   2  14   2 5692.09 627.512   6
  -2  14  -2 6155.69 628.827   3
  -2  14   2 6018.77 658.790   3
  -2  14   4 6261.07 705.914   6
   2  14   4 5798.87 647.185   6
  -2  14   4 6037.47 650.932   3
  -2  14   6 7775.98 758.838   6
   2  14   6 8726.34 760.215   6
  -2  14   6 8135.01 745.051   3
  -2  14   8 5927.96 624.975   6
   2  14   8 6066.60 622.679   6
  -2  14   8 6321.05 656.082   3
  -2  14  10 7896.39 646.843   6
   2  14  10 8229.23 657.538   6
  14   2  10 6586.65 568.967   6
  -2  14  10 8170.57 676.443   3
  -2  14  12 3799.75 404.079   6
   2  14  12 3427.68 393.306   6
  14   2  12 3241.91 383.257   6
  -2  14  12 3405.43 397.910   3
   2  14  14 4067.98 345.194   6
  14  -2  14 4066.05 376.454   6
  -3  14   1 5294.02 681.399   6
   3  14   1 4131.92 522.614   6
  -3  14  -1 4187.83 555.961   3
  -3  14   1 4371.47 578.704   3
  -3  14   3 9202.89 838.191   6
   3  14   3 7358.27 696.850   6
  -3  14  -3 7521.77 695.812   3
  -3  14   3 7380.73 734.243   3
  -3 -14  -5 11642.9 810.354   4
  -3  14   5 12270.6 929.010   6
   3  14   5 10150.1 789.271   6
  -3  14   5 10992.9 873.251   3
  -3 -14  -7 14661.2 826.299   4
  -3  14   7 16949.9 1002.22   6
   3  14   7 15858.2 942.685   6
  -3  14   7 15918.2 1020.13   3
  -3  14   9 10476.7 754.691   6
   3  14   9 8900.94 707.993   6
  -3  14   9 9482.86 770.209   3
  -3  14  11 9452.72 654.723   6
   3  14  11 8865.00 630.421   6
  14   3  11 7120.40 524.836   6
  -3  14  11 8738.25 661.534   3
  -3  14  13 2781.53 303.818   6
   3  14  13 2508.29 300.371   6
  -3  14  13 2559.20 320.630   3
  14   3  13 2154.48 273.200   6
  -4  14   0 743.351 303.180   3
  -4  14   2 313.077 275.301   3
  -4  14   2 188.548 350.989   6
   4  14   2 331.388 243.726   6
  -4  14  -2 572.143 293.089   3
  -4  14   4 1641.24 401.683   3
  -4 -14  -4 1595.84 368.220   4
  -4  14   4 1826.69 464.905   6
   4  14   4 1406.69 327.186   6
  -4  14   6 1798.76 415.028   3
  -4 -14  -6 1925.97 363.082   4
  -4  14   6 1520.62 414.690   6
   4  14   6 1498.39 344.403   6
  -4  14   8 2754.96 458.713   3
  -4 -14  -8 2724.40 367.086   4
  -4  14   8 2586.53 449.774   6
   4  14   8 2757.36 420.277   6
  -4  14  10 669.636 260.632   3
  -4  14  10 877.143 268.951   6
   4  14  10 781.582 254.637   6
  -4  14  12 221.394 194.288   3
  -4  14  12 282.523 139.276   6
   4  14  12 433.577 198.416   6
  -5  14   1 1765.86 394.093   3
  -5  14  -1 1968.00 419.856   3
  -5  14   3 406.671 298.439   3
  -5 -14  -3 373.416 253.336   4
  -5  14   3 718.829 339.104   6
  -5  14  -3 393.322 247.143   3
  -5  14   5 1115.41 362.633   3
  -5 -14  -5 808.153 285.163   4
  -5  14   5 934.196 348.247   6
   5  14   5 791.334 269.326   6
  -5  14   7 1573.48 366.761   3
  -5 -14  -7 1951.38 341.226   4
  -5  14   7 2132.00 407.274   6
   5  14   7 2135.66 362.133   6
  -5  14   9 391.839 244.860   3
  -5 -14  -9 403.716 201.827   4
  -5  14   9 410.290 201.491   6
   5  14   9 578.430 243.349   6
  -5  14  11 1596.98 303.686   3
 -14  -5 -11 1250.89 179.433   4
   5  14  11 1565.32 275.211   6
  -5  14  13 260.725 140.330   3
  -6  14   0 801.844 313.134   3
  -6  14   2 261.273 249.764   3
  -6 -14  -2 141.708 242.955   4
  -6  14  -2 487.930 262.338   3
  -6  14   4 945.079 341.044   3
  -6 -14  -4 692.077 302.966   4
  -6  14   6 1507.01 352.870   3
  -6 -14  -6 1451.04 325.248   4
   6  14   6 1105.26 258.963   6
  -6  14   8 976.864 272.405   3
  -6 -14  -8 1136.84 249.968   4
   6  14   8 1034.00 252.985   6
  -6  14  10 656.545 220.597   3
  -6 -14 -10 426.699 145.375   4
 -14  -6 -10 263.686 102.860   4
   6  14  10 620.998 199.082   6
  -6  14  12 149.644 126.672   3
  -7  14  -1 1586.62 352.900   3
  -7  14   1 1423.46 343.034   3
  -7 -14  -3 1780.09 374.145   4
  -7  14   3 2130.91 386.209   3
  -7  14   5 880.999 292.838   3
  -7 -14  -5 791.798 269.325   4
  -7  14   7 966.813 249.360   3
  -7 -14  -7 1224.63 278.977   4
  -7  14   9 803.392 205.061   3
  -7 -14  -9 747.296 195.664   4
  -8  14   0 4545.66 483.388   3
  -8  14   2 5889.85 535.102   3
  -8 -14  -4 4511.00 470.144   4
  -8  14   4 4631.90 471.147   3
  -8 -14  -6 5516.59 472.669   4
  -8  14   6 5519.89 475.805   3
  -8 -14  -8 4099.37 361.504   4
  -8  14   8 4885.43 401.639   3
  -9  14   3 1920.26 288.098   3
  -9  14   5 2804.61 315.529   3
   0  15  -1 5253.00 586.255   6
   0  15   1 5231.58 624.641   6
   0  15   3 6149.21 641.567   6
   0  15   5 15099.8 919.519   6
   0  15   7 15309.8 894.789   6
   0  15   9 4244.75 469.068   6
   0  15  11 3632.46 382.170   6
  -1  15   0 880.039 334.406   6
   1  15   0 969.002 327.641   6
  -1  15   2 2415.19 482.313   6
   1  15   2 1526.68 374.666   6
  -1  15   4 3313.77 423.179   3
  -1  15   4 3865.59 545.241   6
   1  15   4 3077.13 470.882   6
  -1  15   6 4241.21 525.242   6
   1  15   6 4845.81 536.308   6
  -1  15   6 3802.30 430.296   3
  -1  15   8 1329.87 270.833   3
  -1  15   8 1334.53 326.982   6
   1  15   8 1219.98 320.244   6
  -1  15  10 1255.76 233.769   3
  -1  15  10 1196.65 289.263   6
   1  15  10 1054.76 268.405   6
  15  -1  10 1683.24 274.578   6
  -1  15  12 1842.43 260.615   6
   1  15  12 1546.91 236.279   6
  -2  15   1 195.356 276.603   6
   2  15   1 403.159 275.437   6
  -2  15  -1 444.930 228.290   3
  -2  15   1 359.551 230.318   3
  -2  15   3 120.589 205.305   3
  -2  15   3-24.1625 295.713   6
   2  15   3 532.546 274.537   6
  -2  15   5 760.347 258.950   3
  -2  15   5 575.095 302.417   6
   2  15   5 869.467 302.674   6
  -2  15   7 4380.31 531.214   6
   2  15   7 3399.04 444.360   6
  -2  15   7 4097.83 458.229   3
  -2  15   9 190.969 180.599   3
  -2  15   9 506.264 263.526   6
   2  15   9 108.086 213.919   6
  -2  15  11-212.035 137.167   3
  -2  15  11 43.2246 168.633   6
   2  15  11-35.7029 159.456   6
  -3  15   0 968.504 264.375   3
  -3  15   2-6.74670 269.461   6
   3  15   2-290.870 217.024   6
  -3  15   2 416.496 230.452   3
  -3  15   4 1534.21 307.583   3
  -3  15   4 1060.28 363.261   6
   3  15   4 935.066 271.702   6
  -3  15   6 8755.33 718.307   6
   3  15   6 8073.11 612.536   6
  -3  15   6 8746.35 676.545   3
  -3  15   8 1080.62 298.640   3
  -3  15   8 1588.67 333.447   6
   3  15   8 751.475 247.622   6
  -3  15  10 391.177 187.028   3
  -3  15  10-50.0278 181.190   6
   3  15  10 7.93900 174.994   6
  -4  15  -1 1263.99 319.480   3
  -4  15   1 1042.80 287.544   3
  -4  15   3 150.783 183.332   3
  -4  15   5 317.145 231.665   3
  -4  15   5 300.182 271.693   6
   4  15   5 168.957 208.167   6
  -4  15   7 741.168 252.396   3
  -4  15   7 1184.79 295.209   6
   4  15   7 696.531 234.776   6
  -4  15   9 775.377 231.385   3
  -4  15   9 817.130 236.220   6
   4  15   9 563.139 201.056   6
  -5  15   0 6385.92 586.822   3
  -5  15   2 3286.36 434.921   3
  -5  15   4 2518.65 386.640   3
   5  15   6 9800.74 563.299   6
  -5  15   6 12509.4 740.240   3
   5  15   8 6034.63 421.378   6
  -5  15   8 7080.63 527.595   3
  -5  15  10 2441.06 277.838   3
  -6  15   1 1730.12 323.180   3
  -6  15   3 3900.11 451.925   3
  -6  15   5 9227.24 621.072   3
  -6  15   7 6059.88 473.967   3
  -6  15   9 3041.52 303.393   3
  -7  15   2 92.3024 159.726   3
  -7  15   4 1316.82 263.609   3
  -7  15   6 135.933 130.546   3
  -8  15   3 134.658 133.307   3
  -8  15   5 965.937 191.043   3
   0  16   2 10913.8 706.222   6
   0  16   4 15195.7 830.997   6
   0  16   6 16035.7 823.432   6
   0  16   8 16210.9 761.299   6
  -1  16   3 6355.86 563.346   6
   1  16   3 7797.82 591.010   6
  -1  16   5 7684.30 602.976   6
   1  16   5 7767.15 575.453   6
  -1  16   7 6594.68 533.484   6
   1  16   7 5180.70 457.949   6
  -1  16   9 4129.75 375.025   6
   1  16   9 3560.61 347.852   6
   2  16   2 1244.32 288.667   6
  -2  16   4 279.823 225.816   6
   2  16   4 434.987 223.158   6
  -2  16   6 344.618 242.164   6
   2  16   6 108.313 192.120   6
  -2  16   8 73.7075 173.533   6
   2  16   8-183.418 184.810   6
  -3  16   1 389.551 186.744   3
  -3  16   3-107.731 139.749   3
   3  16   5-249.732 177.494   6
  -3  16   5 206.236 158.354   3
   3  16   7-24.6223 154.046   6
  -4  16   2 2431.73 325.019   3
  -4  16   4 802.519 192.448   3
  -4  16   6 2506.78 291.040   3
  -5  16   3 5489.51 429.101   3
  -5  16   5 11167.4 557.182   3
  -6  16   4 10181.3 513.651   3
   0   0   0    0.00    0.00   0
TITL FJU-14-NO3 in I4/mmm
REM I4/mmm (#139 in standard setting)
CELL 1.54184  13.958530  13.958530  20.052901  90.0000  90.0000  90.0000
ZERR   44.00   0.000387   0.000387   0.000814   0.0000   0.0000   0.0000
LATT  2
SYMM -x,-y, z
SYMM -y, x, z
SYMM  y,-x, z
SYMM -x, y,-z
SYMM  x,-y,-z
SYMM  y, x,-z
SYMM -y,-x,-z
SFAC C H N O Cl Cu
UNIT 44.00 44.00 44.00 44.00 44.00 44.00
TREF
HKLF 4
END
;
_shelx_hkl_checksum              65297
_shelx_fab_checksum              84782
_shelx_fab_file
;
    1    1    0    135.80      0.00
    0    2    0     63.22      0.02
    2    2    0    -31.88      0.11
    1    3    0     30.93     -0.09
    3    3    0     20.38      0.01
    0    4    0     40.33     -0.04
    2    4    0     15.29     -0.06
    4    4    0      2.56     -0.03
    1    5    0      3.09     -0.12
    3    5    0     -4.70      0.04
    5    5    0      7.19      0.03
    0    6    0     11.24      0.03
    2    6    0      5.84      0.05
    4    6    0      3.77     -0.02
    6    6    0      2.61     -0.02
    1    7    0      8.77     -0.07
    3    7    0     -1.38      0.04
    5    7    0      3.72     -0.01
    7    7    0      4.57      0.01
    0    8    0      2.55      0.03
    2    8    0      0.54     -0.01
    4    8    0      4.31     -0.06
    6    8    0     -0.73      0.07
    8    8    0      2.40     -0.02
    1    9    0      6.62      0.02
    3    9    0      1.60      0.01
    5    9    0      0.32      0.01
    7    9    0     -1.05     -0.01
    9    9    0     -0.40      0.01
    0   10    0      3.22      0.03
    2   10    0     -3.62     -0.06
    4   10    0     -0.48     -0.02
    6   10    0     -1.35      0.03
    8   10    0      0.25      0.00
   10   10    0      0.25      0.01
    1   11    0     -3.21     -0.08
    3   11    0     -3.27      0.00
    5   11    0     -1.80     -0.02
    7   11    0     -0.40     -0.02
    9   11    0      0.07      0.00
   11   11    0     -1.19      0.00
    0   12    0      0.71     -0.02
    2   12    0     -0.24     -0.24
    4   12    0      1.15     -0.01
    6   12    0     -0.15      0.02
    8   12    0     -3.35     -0.02
   10   12    0     -1.14      0.01
    1   13    0      1.73     -0.07
    3   13    0      0.67     -0.06
    5   13    0      1.17     -0.05
    7   13    0     -2.76      0.01
    9   13    0      0.38     -0.02
    0   14    0      1.85      0.04
    2   14    0      0.00     -0.01
    4   14    0     -3.63      0.01
    6   14    0      0.22      0.01
    8   14    0      0.03     -0.01
    1   15    0      0.91     -0.01
    3   15    0     -1.21      0.00
    5   15    0     -0.71     -0.02
    0    1    1   -133.83      0.00
    1    2    1     54.43     -0.01
    0    3    1     -9.36     -0.04
    2    3    1      8.32      0.02
    1    4    1     -8.59      0.18
    3    4    1     -1.15     -0.04
    0    5    1      9.81     -0.01
    2    5    1      8.50      0.02
    4    5    1      2.45      0.03
    1    6    1     -0.57      0.01
    3    6    1      6.13     -0.05
    5    6    1     -2.12     -0.01
    0    7    1      6.03     -0.01
    2    7    1      2.49      0.04
    4    7    1      0.24      0.01
    6    7    1      2.61     -0.01
    1    8    1      2.69      0.01
    3    8    1      2.50     -0.05
    5    8    1      0.17      0.06
    7    8    1     -2.42     -0.01
    0    9    1     -4.54     -0.01
    2    9    1      0.14      0.00
    4    9    1     -4.46      0.02
    6    9    1      2.48     -0.05
    8    9    1      0.15      0.07
    1   10    1      0.62     -0.03
    3   10    1     -0.37     -0.04
    5   10    1      1.04      0.04
    7   10    1     -0.50      0.02
    9   10    1     -2.14     -0.03
    0   11    1      0.79     -0.08
    2   11    1      2.18      0.07
    4   11    1      0.65     -0.04
    6   11    1     -0.77      0.01
    8   11    1     -0.63      0.02
   10   11    1      0.16      0.00
    1   12    1      0.25      0.03
    3   12    1     -2.18      0.03
    5   12    1     -1.22      0.05
    7   12    1      2.61     -0.04
    9   12    1     -0.24      0.04
    0   13    1     -0.95     -0.06
    2   13    1     -1.14      0.10
    4   13    1     -0.82     -0.03
    6   13    1     -0.43      0.00
    8   13    1      1.02      0.04
    1   14    1     -1.15     -0.07
    3   14    1      1.10     -0.04
    5   14    1      0.94      0.04
    7   14    1     -0.23     -0.02
    0   15    1      0.00      0.03
    2   15    1     -0.71      0.03
    4   15    1      0.77     -0.01
    6   15    1      0.04      0.00
    3   16    1     -0.77      0.02
    0    0    2     64.37     -0.02
    1    1    2    -73.27     -0.06
    0    2    2    -83.45      0.03
    2    2    2    -69.54      0.01
    1    3    2    -28.25     -0.04
    3    3    2      4.02      0.02
    0    4    2     -9.73      0.02
    2    4    2      0.03     -0.01
    4    4    2     -5.93      0.03
    1    5    2    -11.36     -0.04
    3    5    2     -7.27      0.02
    5    5    2      0.68     -0.03
    0    6    2    -10.30      0.07
    2    6    2     -4.10     -0.01
    4    6    2     -2.36     -0.02
    6    6    2     -5.07      0.02
    1    7    2     -9.13      0.00
    3    7    2     -7.02      0.02
    5    7    2     -2.83     -0.01
    7    7    2     -0.69      0.02
    0    8    2     -8.24      0.03
    2    8    2     -3.42     -0.06
    4    8    2      1.48      0.02
    6    8    2     -3.00      0.00
    8    8    2      1.13     -0.04
    1    9    2      0.56      0.04
    3    9    2      2.63      0.03
    5    9    2     -0.28     -0.04
    7    9    2     -0.70      0.00
    9    9    2      0.34      0.03
    0   10    2      0.67     -0.02
    2   10    2     -0.08     -0.05
    4   10    2      2.33      0.01
    6   10    2      0.80      0.01
    8   10    2     -0.01     -0.02
   10   10    2      0.34      0.03
    1   11    2      0.55      0.06
    3   11    2      3.68      0.04
    5   11    2     -0.35     -0.07
    7   11    2      0.95      0.03
    9   11    2      1.30     -0.01
   11   11    2     -0.60      0.01
    0   12    2     -0.10      0.05
    2   12    2      0.81     -0.05
    4   12    2      1.56      0.03
    6   12    2     -0.04      0.02
    8   12    2     -0.02     -0.02
   10   12    2     -0.03      0.03
    1   13    2     -0.62      0.07
    3   13    2      1.28      0.01
    5   13    2      0.34     -0.03
    7   13    2     -0.84      0.02
    9   13    2      1.50     -0.01
    0   14    2      0.84     -0.01
    2   14    2      1.30      0.03
    4   14    2     -0.54      0.05
    6   14    2      0.37     -0.02
    8   14    2      1.49     -0.01
    1   15    2      0.03      0.00
    3   15    2      1.22     -0.04
    5   15    2      0.05      0.00
    7   15    2      0.06      0.01
    0   16    2     -1.26     -0.03
    2   16    2      0.75     -0.02
    4   16    2      1.45      0.02
    0    1    3     -2.83     -0.02
    1    2    3     27.14      0.07
    0    3    3      0.75     -0.07
    2    3    3    -21.88     -0.03
    1    4    3     -8.86      0.07
    3    4    3     -2.37     -0.10
    0    5    3     -0.46      0.02
    2    5    3     -7.52      0.01
    4    5    3      2.00      0.03
    1    6    3     -7.70     -0.03
    3    6    3     -0.80      0.02
    5    6    3     -3.88     -0.01
    0    7    3      2.14     -0.04
    2    7    3     -1.88      0.03
    4    7    3     -1.45     -0.01
    6    7    3      0.69      0.00
    1    8    3     -3.97     -0.02
    3    8    3     -1.34     -0.01
    5    8    3     -0.81      0.00
    7    8    3     -2.44     -0.01
    0    9    3     -4.42      0.01
    2    9    3     -1.19      0.04
    4    9    3     -1.64     -0.04
    6    9    3     -0.50     -0.01
    8    9    3      2.00      0.00
    1   10    3      0.23      0.01
    3   10    3     -1.05      0.03
    5   10    3      1.23      0.02
    7   10    3     -0.08     -0.02
    9   10    3      1.62      0.02
    0   11    3     -2.79      0.04
    2   11    3     -1.86      0.05
    4   11    3      0.22     -0.01
    6   11    3     -1.41     -0.01
    8   11    3      0.35      0.02
   10   11    3      1.89     -0.01
    1   12    3      0.88     -0.06
    3   12    3     -1.17      0.01
    5   12    3      1.35      0.02
    7   12    3      0.33     -0.03
    9   12    3     -0.97      0.00
   11   12    3     -0.27     -0.01
    0   13    3      0.39      0.04
    2   13    3      1.77      0.03
    4   13    3      0.03     -0.03
    6   13    3      0.40      0.01
    8   13    3     -0.38      0.00
   10   13    3      0.67      0.00
    1   14    3     -1.26     -0.04
    3   14    3     -0.01      0.03
    5   14    3     -0.08      0.02
    7   14    3     -0.26     -0.01
    9   14    3     -0.03      0.00
    0   15    3      0.61      0.04
    2   15    3     -0.47      0.03
    4   15    3      0.01     -0.02
    6   15    3      1.17      0.02
    8   15    3     -0.84     -0.02
    1   16    3      0.20     -0.02
    3   16    3      0.01      0.02
    5   16    3     -0.47     -0.01
    0    0    4     69.19      0.02
    1    1    4     22.10     -0.02
    0    2    4     10.33     -0.01
    2    2    4     26.90      0.04
    1    3    4     17.08     -0.05
    3    3    4     11.47     -0.05
    0    4    4     -1.51      0.02
    2    4    4      7.94      0.05
    4    4    4    -15.55      0.05
    1    5    4      5.87     -0.06
    3    5    4     -2.87      0.01
    5    5    4     -0.05      0.05
    0    6    4      7.34      0.01
    2    6    4      6.61      0.03
    4    6    4      0.63     -0.03
    6    6    4      2.33     -0.02
    1    7    4      3.15     -0.02
    3    7    4     -1.89      0.00
    5    7    4      2.01      0.03
    7    7    4      2.00     -0.02
    0    8    4      4.36      0.00
    2    8    4      3.04     -0.04
    4    8    4      1.06      0.00
    6    8    4      1.81     -0.03
    8    8    4      2.33      0.05
    1    9    4      1.61      0.06
    3    9    4     -1.78      0.00
    5    9    4      0.19      0.00
    7    9    4      1.30      0.00
    9    9    4     -1.01      0.00
    0   10    4     -1.34     -0.03
    2   10    4     -3.13     -0.03
    4   10    4     -2.51      0.02
    6   10    4      1.51     -0.01
    8   10    4     -2.19      0.01
   10   10    4     -1.60     -0.02
    1   11    4      0.81      0.03
    3   11    4      1.65     -0.01
    5   11    4     -1.26      0.01
    7   11    4      1.17     -0.01
    9   11    4     -0.32     -0.04
   11   11    4     -1.10      0.05
    0   12    4     -0.25     -0.03
    2   12    4     -1.19      0.02
    4   12    4      1.34      0.02
    6   12    4      0.07     -0.01
    8   12    4      0.57     -0.01
   10   12    4     -0.20      0.02
    1   13    4     -1.69      0.05
    3   13    4      0.45     -0.03
    5   13    4      0.69      0.00
    7   13    4     -0.41     -0.01
    9   13    4      0.05      0.01
    0   14    4      1.51     -0.04
    2   14    4     -0.32     -0.01
    4   14    4      1.32      0.02
    6   14    4      0.63     -0.01
    8   14    4      0.17      0.03
    1   15    4     -0.61      0.03
    3   15    4     -1.68     -0.03
    5   15    4      0.43      0.01
    7   15    4     -0.76      0.00
    0   16    4     -0.83      0.00
    2   16    4     -1.01      0.01
    4   16    4     -1.10      0.03
    6   16    4     -0.84     -0.03
    0    1    5    -14.97      0.00
    1    2    5      1.18      0.01
    0    3    5      7.58      0.05
    2    3    5     -5.91      0.00
    1    4    5      8.34     -0.06
    3    4    5     10.41      0.06
    0    5    5      5.14     -0.01
    2    5    5      1.02      0.00
    4    5    5      8.16     -0.03
    1    6    5      1.90     -0.02
    3    6    5      3.08      0.00
    5    6    5      0.02     -0.05
    0    7    5      7.44      0.04
    2    7    5      4.49     -0.04
    4    7    5      2.55      0.03
    6    7    5      4.31      0.00
    1    8    5     -0.38      0.05
    3    8    5      1.17      0.02
    5    8    5      0.25      0.00
    7    8    5      0.07      0.01
    0    9    5      1.00      0.01
    2    9    5      1.63     -0.01
    4    9    5     -0.50      0.02
    6    9    5     -0.81      0.04
    8    9    5      1.35     -0.08
    1   10    5      2.93      0.00
    3   10    5      0.76      0.02
    5   10    5      0.65     -0.01
    7   10    5      1.91      0.00
    9   10    5      1.53      0.02
    0   11    5     -0.65      0.02
    2   11    5     -1.53      0.01
    4   11    5     -2.31      0.00
    6   11    5     -0.60      0.00
    8   11    5      1.78     -0.01
   10   11    5      0.37      0.02
    1   12    5      1.41     -0.04
    3   12    5     -3.69      0.01
    5   12    5     -0.96     -0.01
    7   12    5      0.75      0.06
    9   12    5     -0.95     -0.02
   11   12    5      0.54     -0.03
    0   13    5      0.54      0.02
    2   13    5      1.46     -0.01
    4   13    5     -3.87      0.01
    6   13    5      0.16      0.01
    8   13    5      0.80     -0.02
   10   13    5      0.05      0.04
    1   14    5      0.10     -0.03
    3   14    5     -1.84      0.01
    5   14    5     -1.97     -0.02
    7   14    5     -0.04      0.02
    9   14    5     -0.35      0.00
    0   15    5      1.23      0.00
    2   15    5      0.82     -0.01
    4   15    5      0.16     -0.01
    6   15    5      0.15      0.01
    8   15    5     -0.14      0.00
    1   16    5      0.10      0.00
    3   16    5      2.44      0.00
    5   16    5     -0.47      0.00
    0    0    6     28.33     -0.01
    1    1    6      3.49      0.07
    0    2    6     -2.56      0.01
    2    2    6     -0.79      0.06
    1    3    6     -2.64      0.03
    3    3    6     -2.30     -0.02
    0    4    6     -3.79     -0.09
    2    4    6     -2.00      0.03
    4    4    6     -5.24     -0.01
    1    5    6     -0.34      0.04
    3    5    6      2.35     -0.09
    5    5    6      2.07     -0.01
    0    6    6     -1.63     -0.01
    2    6    6     -1.67     -0.05
    4    6    6      2.42      0.02
    6    6    6     -1.89     -0.01
    1    7    6     -3.10     -0.01
    3    7    6     -1.31      0.02
    5    7    6     -2.26      0.02
    7    7    6     -4.64      0.00
    0    8    6      3.55     -0.01
    2    8    6      3.26      0.02
    4    8    6      1.46     -0.03
    6    8    6     -2.07      0.01
    8    8    6     -0.73      0.01
    1    9    6      1.81      0.01
    3    9    6      1.66      0.00
    5    9    6      1.09      0.03
    7    9    6     -2.11     -0.01
    9    9    6     -1.00     -0.02
    0   10    6      0.04     -0.05
    2   10    6     -1.22      0.01
    4   10    6      0.48     -0.01
    6   10    6     -1.04      0.00
    8   10    6     -3.97      0.09
   10   10    6     -1.48     -0.07
    1   11    6      0.98     -0.06
    3   11    6      2.30     -0.01
    5   11    6      0.56      0.05
    7   11    6     -2.02     -0.04
    9   11    6     -0.82     -0.02
   11   11    6     -0.82      0.03
    0   12    6     -0.27     -0.01
    2   12    6     -0.39      0.03
    4   12    6      2.79     -0.04
    6   12    6     -0.99      0.00
    8   12    6     -1.25      0.01
   10   12    6      0.34     -0.05
    1   13    6     -0.60     -0.02
    3   13    6      1.33      0.00
    5   13    6     -0.50      0.01
    7   13    6     -1.60     -0.06
    9   13    6      0.55      0.02
    0   14    6      0.75      0.01
    2   14    6     -0.23      0.02
    4   14    6      1.10     -0.03
    6   14    6     -0.08      0.01
    8   14    6     -0.01     -0.01
    1   15    6     -0.57     -0.03
    3   15    6     -0.31      0.01
    5   15    6     -0.80      0.01
    7   15    6     -1.06     -0.07
    0   16    6      0.17     -0.01
    2   16    6      0.38      0.00
    4   16    6     -1.45     -0.02
    0    1    7    -19.03     -0.25
    1    2    7     -0.23      0.37
    0    3    7     -2.42     -0.12
    2    3    7      4.86      0.03
    1    4    7      0.42     -0.22
    3    4    7      0.69     -0.03
    0    5    7     -5.69      0.08
    2    5    7     -1.14      0.04
    4    5    7     -4.71     -0.05
    1    6    7      0.16      0.02
    3    6    7     -4.38      0.05
    5    6    7     -3.20      0.00
    0    7    7     -4.79      0.02
    2    7    7     -0.39     -0.05
    4    7    7      0.04      0.03
    6    7    7      2.01      0.00
    1    8    7     -6.89      0.02
    3    8    7     -2.26      0.00
    5    8    7      1.65     -0.03
    7    8    7     -0.02      0.05
    0    9    7     -4.43      0.00
    2    9    7      0.39     -0.03
    4    9    7     -0.13      0.01
    6    9    7      0.23      0.02
    8    9    7     -0.92     -0.04
    1   10    7      0.32      0.02
    3   10    7      2.86     -0.01
    5   10    7      0.95     -0.01
    7   10    7      1.57      0.02
    9   10    7     -0.92     -0.05
    0   11    7     -1.03      0.00
    2   11    7      0.90     -0.02
    4   11    7      0.16      0.03
    6   11    7     -0.12     -0.01
    8   11    7     -0.57     -0.04
   10   11    7      0.25      0.02
    1   12    7     -0.86      0.02
    3   12    7      0.43     -0.03
    5   12    7     -0.17     -0.02
    7   12    7      0.45      0.07
    9   12    7     -1.19     -0.01
   11   12    7      0.21     -0.03
    0   13    7     -3.11     -0.01
    2   13    7      0.09     -0.03
    4   13    7      0.41      0.04
    6   13    7      0.73     -0.04
    8   13    7      0.22     -0.02
   10   13    7      0.75      0.06
    1   14    7     -0.06      0.04
    3   14    7     -0.25     -0.03
    5   14    7      1.33      0.00
    7   14    7     -0.30      0.04
    0   15    7      0.51      0.01
    2   15    7      0.06     -0.02
    4   15    7      1.29      0.02
    6   15    7      1.08     -0.01
    1   16    7     -1.06      0.03
    3   16    7      1.09     -0.02
    0    0    8     10.61      0.01
    1    1    8      0.08     -0.36
    0    2    8     -1.63     -0.35
    2    2    8     -5.89     -0.13
    1    3    8     -2.93     -0.74
    3    3    8     -2.85      0.11
    0    4    8      2.17      0.17
    2    4    8     -2.03      0.10
    4    4    8      1.72     -0.05
    1    5    8     -1.09      0.07
    3    5    8      5.19      0.02
    5    5    8      1.53      0.03
    0    6    8      1.14      0.01
    2    6    8     -2.91     -0.06
    4    6    8      2.64      0.01
    6    6    8     -0.53     -0.02
    1    7    8      0.27      0.05
    3    7    8     -0.04      0.06
    5    7    8     -3.45     -0.04
    7    7    8     -0.51     -0.03
    0    8    8      3.82     -0.04
    2    8    8      0.22     -0.02
    4    8    8     -1.45     -0.02
    6    8    8     -1.01      0.03
    8    8    8      0.91      0.00
    1    9    8     -1.39      0.00
    3    9    8     -0.98     -0.04
    5    9    8     -0.61      0.02
    7    9    8     -0.48     -0.01
    9    9    8      3.93      0.03
    0   10    8      0.45      0.00
    2   10    8     -2.45      0.02
    4   10    8     -0.79     -0.02
    6   10    8     -1.26      0.01
    8   10    8      2.61      0.11
   10   10    8      0.01     -0.01
    1   11    8      0.43     -0.04
    3   11    8     -1.10      0.01
    5   11    8      0.57      0.00
    7   11    8      0.52     -0.02
    9   11    8      2.02      0.08
   11   11    8     -0.20      0.01
    0   12    8      0.15      0.02
    2   12    8      1.17      0.02
    4   12    8      0.94     -0.03
    6   12    8     -0.56      0.03
    8   12    8      1.10     -0.03
   10   12    8     -0.86     -0.01
    1   13    8      2.08     -0.04
    3   13    8      0.36      0.03
    5   13    8     -0.16      0.01
    7   13    8     -0.07      0.00
    9   13    8     -0.25      0.00
    0   14    8     -1.38      0.01
    2   14    8     -0.91     -0.03
    4   14    8      0.16     -0.02
    6   14    8      0.27      0.05
    8   14    8      0.85      0.01
    1   15    8     -1.00     -0.02
    3   15    8      0.50      0.03
    5   15    8     -0.75     -0.01
    0   16    8      1.28      0.02
    2   16    8      1.03      0.02
    0    1    9      4.49      0.39
    1    2    9     -0.20      1.52
    0    3    9     -1.12      0.37
    2    3    9     -4.10      0.42
    1    4    9     -2.57      0.13
    3    4    9     -5.60     -0.08
    0    5    9     -1.88      0.00
    2    5    9     -1.80      0.03
    4    5    9     -3.16     -0.03
    1    6    9      3.37      0.03
    3    6    9     -2.59     -0.01
    5    6    9      0.79      0.04
    0    7    9     -0.10     -0.05
    2    7    9      1.04     -0.06
    4    7    9      0.69      0.01
    6    7    9      0.98     -0.01
    1    8    9      1.80      0.04
    3    8    9     -1.80     -0.01
    5    8    9     -0.05     -0.02
    7    8    9      0.40     -0.01
    0    9    9      3.25     -0.01
    2    9    9      1.69      0.06
    4    9    9     -2.70      0.00
    6    9    9      0.39     -0.05
    8    9    9     -1.53     -0.01
    1   10    9     -0.80     -0.05
    3   10    9     -1.31     -0.04
    5   10    9     -0.34      0.01
    7   10    9     -0.15     -0.03
    9   10    9     -1.12     -0.03
    0   11    9      0.83     -0.01
    2   11    9     -1.82      0.03
    4   11    9     -1.32      0.00
    6   11    9      1.28     -0.04
    8   11    9     -2.05      0.00
   10   11    9      0.81      0.03
    1   12    9     -0.09      0.01
    3   12    9     -0.36     -0.03
    5   12    9     -0.05      0.03
    7   12    9      1.51      0.06
    9   12    9      0.19     -0.06
    0   13    9      0.49      0.00
    2   13    9     -0.71      0.05
    4   13    9     -0.30     -0.01
    6   13    9      0.78     -0.05
    8   13    9      0.67      0.04
    1   14    9      2.97      0.08
    3   14    9     -0.42     -0.01
    5   14    9      0.85      0.01
    7   14    9      0.04      0.00
    0   15    9      1.14     -0.01
    2   15    9      0.50      0.02
    4   15    9     -0.54      0.01
    6   15    9      0.72     -0.01
    1   16    9     -1.85      0.00
    0    0   10     -1.57      0.01
    1    1   10      3.33     -0.33
    0    2   10      1.82     -0.32
    2    2   10      7.37     -0.11
    1    3   10      3.12     -0.72
    3    3   10      0.78      0.09
    0    4   10      1.78      0.18
    2    4   10      2.85      0.09
    4    4   10     -1.24     -0.05
    1    5   10      0.17      0.07
    3    5   10      1.52      0.04
    5    5   10      0.33      0.01
    0    6   10     -0.30      0.02
    2    6   10     -2.39     -0.10
    4    6   10      0.09     -0.01
    6    6   10     -0.16      0.02
    1    7   10      0.65      0.04
    3    7   10      0.00      0.09
    5    7   10     -0.18     -0.07
    7    7   10      1.67      0.02
    0    8   10     -2.83      0.00
    2    8   10     -0.30     -0.07
    4    8   10      1.04     -0.01
    6    8   10      1.96      0.04
    8    8   10      1.28     -0.04
    1    9   10     -4.85      0.03
    3    9   10     -0.10      0.01
    5    9   10      1.11     -0.05
    7    9   10      0.69     -0.03
    9    9   10      0.42     -0.02
    0   10   10      0.63      0.03
    2   10   10      0.16     -0.01
    4   10   10      0.45      0.02
    6   10   10      0.10      0.02
    8   10   10      1.83     -0.04
   10   10   10     -2.33     -0.06
    1   11   10      1.16      0.00
    3   11   10     -0.21      0.04
    5   11   10      0.16     -0.03
    7   11   10      1.05     -0.02
    9   11   10     -0.38      0.15
   11   11   10      0.57     -0.13
    0   12   10     -2.09      0.02
    2   12   10      0.58     -0.01
    4   12   10     -0.69     -0.01
    6   12   10     -0.48      0.01
    8   12   10     -0.81      0.08
   10   12   10     -0.07      0.16
    1   13   10      1.05     -0.01
    3   13   10     -0.06      0.03
    5   13   10     -0.40     -0.02
    7   13   10     -0.04     -0.01
    9   13   10      0.33      0.11
    0   14   10     -0.03     -0.01
    2   14   10     -1.07     -0.05
    4   14   10     -0.01      0.03
    6   14   10     -0.10      0.00
    1   15   10     -0.50      0.00
    3   15   10      1.06      0.01
    5   15   10     -1.60     -0.03
    0    1   11     -1.95     -0.27
    1    2   11     -2.74      0.36
    0    3   11      3.19     -0.19
    2    3   11      2.46      0.02
    1    4   11      0.92     -0.26
    3    4   11      5.69     -0.05
    0    5   11      0.25      0.01
    2    5   11      2.77      0.04
    4    5   11      1.94     -0.02
    1    6   11      2.10      0.02
    3    6   11      3.74     -0.01
    5    6   11      0.74      0.06
    0    7   11     -2.70     -0.05
    2    7   11      0.45      0.01
    4    7   11      2.68      0.02
    6    7   11     -0.66     -0.04
    1    8   11      1.71      0.00
    3    8   11      1.64     -0.04
    5    8   11      0.11      0.06
    7    8   11     -1.76      0.02
    0    9   11      5.80     -0.04
    2    9   11      4.46      0.04
    4    9   11      1.85      0.00
    6    9   11     -0.01      0.00
    8    9   11     -0.05      0.03
    1   10   11      0.59     -0.03
    3   10   11      1.56     -0.05
    5   10   11      0.66      0.04
    7   10   11     -0.68      0.01
    9   10   11      2.06     -0.03
    0   11   11     -0.23     -0.01
    2   11   11     -0.48      0.04
    4   11   11      1.12      0.00
    6   11   11     -0.91     -0.04
    8   11   11      0.39     -0.09
   10   11   11      0.17     -0.10
    1   12   11     -0.16     -0.06
    3   12   11      1.39     -0.01
    5   12   11     -0.05      0.03
    7   12   11      0.36     -0.05
    9   12   11      0.36     -0.39
    0   13   11     -1.88      0.01
    2   13   11     -1.10      0.01
    4   13   11      0.18     -0.03
    6   13   11     -2.16      0.01
    8   13   11      0.38     -0.12
    1   14   11     -0.85     -0.03
    3   14   11     -0.62     -0.01
    5   14   11      0.25      0.02
    0   15   11     -1.76      0.00
    2   15   11      0.94      0.00
    0    0   12     -0.43      0.02
    1    1   12      0.69      0.03
    0    2   12     -1.23      0.04
    2    2   12      0.88      0.04
    1    3   12      0.03      0.01
    3    3   12     -2.19      0.00
    0    4   12      1.31     -0.04
    2    4   12      1.32      0.02
    4    4   12      0.53     -0.02
    1    5   12     -0.22     -0.01
    3    5   12      1.10     -0.05
    5    5   12      0.95     -0.03
    0    6   12      0.35      0.03
    2    6   12     -2.84     -0.05
    4    6   12     -0.18      0.00
    6    6   12     -0.95      0.05
    1    7   12      1.89      0.01
    3    7   12     -0.58      0.07
    5    7   12     -1.46      0.00
    7    7   12      1.49      0.00
    0    8   12      0.04      0.02
    2    8   12      0.91     -0.05
    4    8   12     -1.07      0.00
    6    8   12      0.34      0.02
    8    8   12      0.43      0.03
    1    9   12     -2.46      0.05
    3    9   12      0.68      0.05
    5    9   12     -0.30     -0.03
    7    9   12     -1.31      0.02
    9    9   12     -0.95     -0.02
    0   10   12      1.01     -0.01
    2   10   12      0.99     -0.03
    4   10   12      0.70      0.03
    6   10   12     -0.38      0.03
    8   10   12     -0.83     -0.02
   10   10   12     -0.07     -0.09
    1   11   12      1.04      0.02
    3   11   12      0.33     -0.01
    5   11   12      0.03      0.00
    7   11   12     -1.32     -0.01
    9   11   12      0.28      0.09
    0   12   12     -2.14      0.00
    2   12   12      1.10      0.01
    4   12   12     -0.52      0.02
    6   12   12     -0.78     -0.02
    8   12   12     -1.60      0.11
    1   13   12      0.28      0.07
    3   13   12     -0.03     -0.01
    5   13   12      0.96     -0.01
    7   13   12      0.24      0.00
    0   14   12     -0.13     -0.01
    2   14   12     -0.80     -0.01
    4   14   12      0.23      0.03
    6   14   12      1.37     -0.05
    1   15   12     -0.01      0.05
    0    1   13     -1.08     -0.04
    1    2   13     -0.36      0.06
    0    3   13     -1.13      0.01
    2    3   13     -2.62      0.00
    1    4   13     -3.50     -0.05
    3    4   13     -5.09      0.06
    0    5   13     -1.34      0.01
    2    5   13     -2.36      0.03
    4    5   13     -3.97     -0.03
    1    6   13      0.96     -0.02
    3    6   13     -2.78     -0.04
    5    6   13     -0.08     -0.03
    0    7   13     -2.51      0.00
    2    7   13     -1.32     -0.03
    4    7   13     -0.40      0.01
    6    7   13     -0.64      0.00
    1    8   13     -1.21      0.02
    3    8   13     -2.34      0.03
    5    8   13      0.42      0.01
    7    8   13     -0.56      0.01
    0    9   13     -0.43      0.01
    2    9   13     -1.57      0.00
    4    9   13     -2.00     -0.02
    6    9   13      0.61      0.03
    8    9   13      0.05     -0.06
    1   10   13     -1.16     -0.04
    3   10   13     -2.57      0.00
    5   10   13     -1.11      0.01
    7   10   13      1.10     -0.01
    9   10   13     -0.87      0.07
    0   11   13      0.60      0.01
    2   11   13     -1.36      0.05
    4   11   13     -0.54     -0.03
    6   11   13      1.23      0.01
    8   11   13     -0.57      0.04
   10   11   13     -1.48      0.04
    1   12   13     -0.04     -0.07
    3   12   13     -0.77      0.00
    5   12   13     -0.15     -0.01
    7   12   13      2.22      0.05
    0   13   13      3.06      0.04
    2   13   13     -0.66      0.01
    4   13   13     -0.84     -0.05
    6   13   13      0.02      0.03
    1   14   13      1.56     -0.06
    3   14   13      1.09      0.04
    5   14   13     -0.65      0.01
    0    0   14      5.45      0.01
    1    1   14     -0.55     -0.01
    0    2   14     -2.98     -0.02
    2    2   14     -3.05      0.06
    1    3   14     -1.65     -0.02
    3    3   14     -2.56     -0.08
    0    4   14     -1.40      0.03
    2    4   14      0.78      0.04
    4    4   14     -0.12      0.06
    1    5   14     -1.35     -0.03
    3    5   14      2.38      0.00
    5    5   14     -0.61      0.04
    0    6   14      0.04      0.00
    2    6   14     -0.79      0.05
    4    6   14      1.26     -0.03
    6    6   14      0.84     -0.04
    1    7   14      0.38      0.02
    3    7   14      0.89     -0.05
    5    7   14     -0.24      0.05
    7    7   14      1.81     -0.04
    0    8   14      0.65     -0.05
    2    8   14     -0.22     -0.04
    4    8   14     -0.68      0.00
    6    8   14     -0.19     -0.06
    8    8   14      0.43      0.07
    1    9   14     -0.68      0.07
    3    9   14      0.23      0.00
    5    9   14     -0.18     -0.01
    7    9   14     -1.05      0.00
    9    9   14     -0.85      0.00
    0   10   14      0.19     -0.03
    2   10   14     -1.20     -0.01
    4   10   14      0.00      0.00
    6   10   14     -0.12      0.01
    8   10   14      0.12      0.04
   10   10   14     -1.25     -0.01
    1   11   14     -0.77      0.00
    3   11   14     -0.56     -0.02
    5   11   14      0.10      0.01
    7   11   14     -0.50     -0.02
    9   11   14      0.52      0.02
    0   12   14     -0.96     -0.02
    2   12   14      1.70      0.01
    4   12   14      1.46      0.02
    6   12   14     -1.01      0.01
    1   13   14     -0.30      0.01
    3   13   14     -0.02     -0.03
    5   13   14      1.15      0.02
    0   14   14     -2.36     -0.02
    2   14   14     -1.21     -0.01
    0    1   15     -1.84      0.01
    1    2   15      1.53      0.04
    0    3   15      1.71      0.03
    2    3   15      0.88     -0.05
    1    4   15     -0.32      0.03
    3    4   15      1.66      0.00
    0    5   15      2.14      0.05
    2    5   15     -0.45      0.00
    4    5   15      0.89      0.02
    1    6   15      1.23     -0.01
    3    6   15      0.14      0.07
    5    6   15      0.45     -0.05
    0    7   15     -0.36      0.04
    2    7   15      1.17     -0.01
    4    7   15      0.38      0.01
    6    7   15     -0.63      0.01
    1    8   15      1.40      0.00
    3    8   15      1.21      0.03
    5    8   15      0.47     -0.05
    7    8   15     -0.26      0.04
    0    9   15      0.25      0.02
    2    9   15      2.18     -0.04
    4    9   15      0.70     -0.01
    6    9   15      0.45      0.00
    8    9   15      0.39     -0.02
    1   10   15      1.06      0.01
    3   10   15      1.12      0.01
    5   10   15      0.39     -0.02
    7   10   15     -0.22      0.01
    9   10   15      1.75     -0.02
    0   11   15      0.09      0.04
    2   11   15      1.12     -0.03
    4   11   15      0.23      0.03
    6   11   15      0.20     -0.01
    8   11   15     -0.15      0.00
    1   12   15     -1.25      0.00
    3   12   15     -0.99     -0.01
    5   12   15     -0.85      0.00
    7   12   15      0.44      0.04
    0   13   15     -0.13      0.00
    2   13   15     -0.63      0.01
    4   13   15     -0.62      0.03
    0    0   16      5.11     -0.02
    1    1   16      1.54     -0.03
    0    2   16      1.18     -0.03
    2    2   16      4.82      0.08
    1    3   16      6.03     -0.01
    3    3   16      2.05     -0.03
    0    4   16      2.23      0.01
    2    4   16      5.62      0.04
    4    4   16      1.82      0.01
    1    5   16      0.54     -0.03
    3    5   16      2.32     -0.04
    5    5   16      0.18      0.03
    0    6   16     -0.67      0.01
    2    6   16     -0.64      0.06
    4    6   16     -0.18     -0.04
    6    6   16     -0.30      0.00
    1    7   16     -0.96     -0.01
    3    7   16     -0.30      0.01
    5    7   16      0.11      0.06
    7    7   16      0.13     -0.02
    0    8   16     -2.21     -0.02
    2    8   16     -1.29      0.03
    4    8   16      0.90     -0.03
    6    8   16     -0.14     -0.02
    8    8   16      0.85      0.02
    1    9   16     -1.05     -0.03
    3    9   16      0.21      0.01
    5    9   16      0.45      0.04
    7    9   16      0.71     -0.03
    9    9   16     -0.41     -0.02
    0   10   16      0.96     -0.04
    2   10   16     -0.28      0.04
    4   10   16      0.05     -0.06
    6   10   16      0.52      0.03
    8   10   16      0.51      0.02
    1   11   16     -0.29     -0.02
    3   11   16      0.25      0.03
    5   11   16     -0.64      0.01
    7   11   16      0.12     -0.07
    0   12   16      1.06     -0.01
    2   12   16      0.54      0.06
    4   12   16      0.80     -0.04
    1   13   16      1.43     -0.03
    3   13   16     -0.02      0.01
    0    1   17      1.62     -0.01
    1    2   17      0.55      0.02
    0    3   17     -2.39     -0.02
    2    3   17     -2.12     -0.05
    1    4   17     -2.27      0.06
    3    4   17     -1.32      0.00
    0    5   17      1.76     -0.01
    2    5   17     -0.78     -0.01
    4    5   17     -1.56      0.07
    1    6   17      0.18      0.05
    3    6   17      0.38     -0.03
    5    6   17      0.63     -0.06
    0    7   17      0.02      0.01
    2    7   17      0.01     -0.04
    4    7   17     -0.27      0.04
    6    7   17      0.46      0.02
    1    8   17      1.49      0.06
    3    8   17     -0.49     -0.02
    5    8   17     -0.60      0.01
    7    8   17      0.02      0.03
    0    9   17      0.70      0.00
    2    9   17      0.01     -0.03
    4    9   17     -0.55      0.06
    6    9   17     -0.30     -0.06
    8    9   17     -0.28     -0.03
    1   10   17     -0.42      0.03
    3   10   17     -0.69      0.00
    5   10   17      0.54     -0.04
    7   10   17     -1.01      0.04
    0   11   17      0.32     -0.02
    2   11   17      0.46     -0.04
    4   11   17      0.28      0.03
    6   11   17      0.50      0.00
    1   12   17      0.09      0.03
    3   12   17      0.08     -0.02
    0    0   18      2.22      0.02
    1    1   18     -2.93     -0.03
    0    2   18     -2.67      0.02
    2    2   18     -3.46      0.05
    1    3   18     -0.35     -0.05
    3    3   18     -5.70      0.01
    0    4   18     -1.32      0.03
    2    4   18     -2.12      0.01
    4    4   18     -0.26     -0.05
    1    5   18     -1.45     -0.06
    3    5   18     -0.59      0.02
    5    5   18     -0.52      0.02
    0    6   18      2.04      0.02
    2    6   18     -0.66      0.01
    4    6   18     -1.48     -0.03
    6    6   18     -0.15      0.02
    1    7   18      0.91     -0.04
    3    7   18     -0.29      0.03
    5    7   18     -0.39     -0.02
    7    7   18     -0.12     -0.01
    0    8   18     -1.43      0.04
    2    8   18     -0.06     -0.01
    4    8   18      0.27     -0.04
    6    8   18     -0.46      0.04
    8    8   18     -0.41      0.00
    1    9   18     -0.26      0.00
    3    9   18     -0.48      0.03
    5    9   18     -0.39      0.02
    7    9   18      0.25     -0.02
    0   10   18      0.08      0.02
    2   10   18      0.73     -0.02
    4   10   18     -0.75     -0.01
    6   10   18      0.05      0.00
    1   11   18     -0.08     -0.01
    3   11   18      0.36      0.01
    0   12   18     -0.29     -0.02
    0    1   19     -2.37     -0.01
    1    2   19     -1.10      0.06
    0    3   19     -2.13     -0.02
    2    3   19      0.92      0.04
    1    4   19     -0.66      0.05
    3    4   19      0.60     -0.05
    0    5   19     -0.77     -0.06
    2    5   19     -0.31     -0.02
    4    5   19     -0.84      0.02
    1    6   19     -0.82     -0.03
    3    6   19      0.64     -0.03
    5    6   19      0.26      0.02
    0    7   19      0.29     -0.04
    2    7   19      0.16      0.08
    4    7   19      0.44      0.01
    6    7   19     -0.05     -0.02
    1    8   19      1.00     -0.03
    3    8   19      0.05     -0.03
    5    8   19     -0.48      0.02
    7    8   19      0.26     -0.03
    0    9   19      1.59     -0.01
    2    9   19     -0.16      0.04
    4    9   19      0.45     -0.03
    6    9   19      0.14     -0.02
    1   10   19     -0.02      0.01
    3   10   19     -0.42      0.01
    5   10   19      0.61      0.03
    0   11   19     -0.28      0.00
    2   11   19     -1.04      0.04
    0    0   20      1.08      0.03
    1    1   20     -0.29     -0.02
    0    2   20     -0.19     -0.01
    2    2   20      1.55     -0.04
    1    3   20      1.66     -0.12
    3    3   20     -0.22      0.03
    0    4   20      0.28     -0.02
    2    4   20      1.62     -0.06
    4    4   20      2.48      0.02
    1    5   20      0.86      0.02
    3    5   20      2.54      0.04
    5    5   20      1.05     -0.04
    0    6   20      0.41      0.03
    2    6   20      0.44     -0.05
    4    6   20     -0.32      0.01
    6    6   20      0.18      0.01
    1    7   20     -0.83      0.00
    3    7   20     -0.15      0.00
    5    7   20     -0.07     -0.03
    7    7   20     -1.73      0.04
    0    8   20     -1.26      0.03
    2    8   20      0.55     -0.06
    4    8   20      0.88      0.04
    6    8   20     -0.71      0.03
    1    9   20      0.05      0.01
    3    9   20      0.08      0.01
    0   10   20     -0.93      0.00
    2   10   20      0.96     -0.10
    0    1   21      1.20     -0.02
    1    2   21      1.03      0.02
    0    3   21      1.08      0.01
    2    3   21      0.64      0.05
    1    4   21      0.85      0.05
    3    4   21     -0.35     -0.02
    0    5   21      0.29     -0.04
    2    5   21     -1.37      0.01
    4    5   21     -0.38      0.02
    1    6   21     -0.56     -0.01
    3    6   21     -0.49      0.00
    5    6   21      0.18      0.00
    0    7   21     -0.25     -0.01
    2    7   21     -0.46      0.03
    4    7   21      0.77     -0.03
    6    7   21      1.93      0.00
    1    8   21     -1.41     -0.02
    3    8   21      0.08     -0.04
    0    9   21     -0.88      0.00
    2    9   21     -1.07      0.04
    0    0   22      2.55      0.00
    1    1   22     -0.03      0.02
    0    2   22     -0.15      0.00
    2    2   22     -0.58      0.02
    1    3   22     -0.27      0.00
    3    3   22     -1.52     -0.01
    0    4   22     -1.16      0.02
    2    4   22     -0.70      0.03
    4    4   22     -0.54     -0.02
    1    5   22     -0.34     -0.01
    3    5   22      0.94     -0.04
    5    5   22      0.18      0.02
    0    6   22      1.03      0.00
    2    6   22      1.08      0.00
    4    6   22     -0.29     -0.02
    1    7   22      0.93     -0.01
    3    7   22     -0.23      0.01
    0    8   22      1.26      0.02
    2    8   22      0.41      0.00
    0    1   23      0.66      0.01
    1    2   23      0.10     -0.05
    0    3   23     -1.06      0.03
    2    3   23     -0.19     -0.04
    1    4   23      0.24     -0.01
    3    4   23     -0.64      0.02
    0    5   23      0.21      0.02
    2    5   23     -0.53      0.00
    4    5   23     -0.65      0.02
    1    6   23     -0.32      0.02
    3    6   23     -1.03      0.03
    0    0   24     -1.69      0.03
    1    1   24     -1.32      0.06
    0    2   24     -0.03     -0.02
    2    2   24      0.83      0.00
    1    3   24      1.14      0.05
    3    3   24      0.98     -0.02
    0    4   24      0.53     -0.02
    2    4   24      0.55     -0.01
    0    0    0      0.00      0.00
loop_
  _platon_squeeze_void_nr
  _platon_squeeze_void_average_x
  _platon_squeeze_void_average_y
  _platon_squeeze_void_average_z
  _platon_squeeze_void_volume
  _platon_squeeze_void_count_electrons
  _platon_squeeze_void_content
   1  0.000  0.000  0.500       837       217 ' '
   2  0.500  0.500  0.000       837       217 ' '
_platon_squeeze_details
TITL FJU-14-NO3I 4/m m m    R = 0.08
CELL   13.9585   13.9585   20.0529     90.00     90.00     90.00
SPGR I4/mmm
C101 0.500 0.512 0.297 !       1.94 eA-3
C102 1.000 1.010 0.250 !       1.79 eA-3
Q103 0.500 1.004 0.156 !       1.02 eA-3
C104 0.359 0.507 0.266 !       0.89 eA-3
C105 0.260 0.500 0.000 !       0.88 eA-3
Q106 0.594 1.001 0.172 !       0.86 eA-3
C107 0.225 0.609-0.001 !       0.82 eA-3
C108 1.000 0.244 0.356 !       0.69 eA-3
Q109 0.300 0.929 0.450 !       0.64 eA-3
C110 0.894 0.793 0.466 !       0.62 eA-3
C111 0.642 0.297-0.009 !       0.60 eA-3
C112 1.000 0.154 0.309 !       0.60 eA-3
Q113 0.152 0.500 0.000 !       0.59 eA-3
Q114 0.782 0.491 0.078 !       0.59 eA-3
C115 0.546 0.328-0.006 !       0.57 eA-3
C116 0.631 0.375-0.006 !       0.57 eA-3
Q117 0.834 0.503 0.032 !       0.57 eA-3
C118 0.394 0.400 0.144 !       0.54 eA-3
Q119 0.194 0.497 0.112 !       0.52 eA-3
;
_olex2_submission_special_instructions 'No special instructions were received'
loop_
_space_group_symop_operation_xyz
'x, y, z'
'-y, x, z'
'-x, -y, z'
'y, -x, z'
'x, -y, -z'
'-x, y, -z'
'y, x, -z'
'-y, -x, -z'
'x+1/2, y+1/2, z+1/2'
'-y+1/2, x+1/2, z+1/2'
'-x+1/2, -y+1/2, z+1/2'
'y+1/2, -x+1/2, z+1/2'
'x+1/2, -y+1/2, -z+1/2'
'-x+1/2, y+1/2, -z+1/2'
'y+1/2, x+1/2, -z+1/2'
'-y+1/2, -x+1/2, -z+1/2'
'-x, -y, -z'
'y, -x, -z'
'x, y, -z'
'-y, x, -z'
'-x, y, z'
'x, -y, z'
'-y, -x, z'
'y, x, z'
'-x+1/2, -y+1/2, -z+1/2'
'y+1/2, -x+1/2, -z+1/2'
'x+1/2, y+1/2, -z+1/2'
'-y+1/2, x+1/2, -z+1/2'
'-x+1/2, y+1/2, z+1/2'
'x+1/2, -y+1/2, z+1/2'
'-y+1/2, -x+1/2, z+1/2'
'y+1/2, x+1/2, z+1/2'
loop_
_atom_site_label
_atom_site_type_symbol
_atom_site_fract_x
_atom_site_fract_y
_atom_site_fract_z
_atom_site_U_iso_or_equiv
_atom_site_adp_type
_atom_site_occupancy
_atom_site_site_symmetry_order
_atom_site_calc_flag
_atom_site_refinement_flags_posn
_atom_site_refinement_flags_adp
_atom_site_refinement_flags_occupancy
_atom_site_disorder_assembly
_atom_site_disorder_group
Cu1 Cu 0.18418(5) 0.0000 0.0000 0.0238(3) Uani 1 4 d S TU P . .
Cl1 Cl 0.0000 0.0000 0.0000 0.0359(6) Uani 1 16 d S TU P A .
N2 N 0.1766(8) -0.1081(10) -0.0681(7) 0.0374(14) Uani 0.5 1 d . U . A 1
N1 N 0.1983(2) -0.1983(2) -0.1586(2) 0.0398(9) Uani 0.5 2 d S TU P A 1
C4 C 0.3102(3) -0.1898(3) -0.2500 0.085(2) Uani 1 2 d S TU P . .
H4 H 0.3574 -0.1427 -0.2500 0.102 Uiso 1 2 calc RS T P B 2
C5 C 0.2343(5) -0.2343(5) -0.2180(4) 0.043(2) Uani 0.5 2 d S TU P A 1
C2 C 0.2301(4) -0.1212(4) -0.1209(3) 0.0378(12) Uani 0.5 1 d . U . A 1
H2 H 0.2828 -0.0836 -0.1317 0.045 Uiso 0.5 1 calc R . . A 1
OW O 0.3534(5) 0.0000 0.0000 0.113(3) Uani 1 4 d S TU P A .
C1 C 0.1612(4) -0.1612(4) -0.0963(4) 0.0344(16) Uani 0.5 2 d S TU P A 2
C3 C 0.2745(7) -0.1554(6) -0.1917(4) 0.077(3) Uani 0.5 1 d . U . A 2
H3 H 0.3023 -0.1010 -0.1732 0.092 Uiso 0.5 1 calc R . . A 2
O1 O 0.2021(6) -0.0903(7) -0.0731(6) 0.0374(14) Uani 0.5 1 d . U . A 2
C6 C 0.1983(2) -0.1983(2) -0.1586(2) 0.0398(9) Uani 0.5 2 d S TU P A 2
O2 O 0.4216(8) 0.0000 -0.1707(8) 0.178(5) Uani 0.75 2 d DS TU P . .
N3 N 0.5000 0.0000 -0.151(2) 0.309(18) Uani 0.75 4 d DS TU P . .
O3 O 0.5000 0.0000 -0.091(2) 0.56(3) Uani 0.75 4 d DS TU P . .
loop_
_atom_site_aniso_label
_atom_site_aniso_U_11
_atom_site_aniso_U_22
_atom_site_aniso_U_33
_atom_site_aniso_U_23
_atom_site_aniso_U_13
_atom_site_aniso_U_12
Cu1 0.0315(4) 0.0250(4) 0.0151(4) 0.000 0.000 0.000
Cl1 0.0271(8) 0.0271(8) 0.0533(15) 0.000 0.000 0.000
N2 0.044(5) 0.040(4) 0.0278(19) -0.006(2) 0.014(3) -0.006(3)
N1 0.0415(12) 0.0415(12) 0.0364(19) -0.0139(12) 0.0139(12) -0.0072(15)
C4 0.093(3) 0.093(3) 0.070(4) -0.053(3) 0.053(3) -0.059(4)
C5 0.050(3) 0.050(3) 0.028(4) -0.020(3) 0.020(3) -0.008(4)
C2 0.041(3) 0.041(3) 0.031(3) -0.016(2) 0.014(2) -0.008(2)
OW 0.057(4) 0.163(8) 0.118(6) 0.000 0.000 0.000
C1 0.041(3) 0.041(3) 0.022(3) -0.009(2) 0.009(2) 0.011(3)
C3 0.091(6) 0.077(5) 0.062(4) -0.047(4) 0.048(4) -0.044(4)
O1 0.044(5) 0.040(4) 0.0278(19) -0.006(2) 0.014(3) -0.006(3)
C6 0.0415(12) 0.0415(12) 0.0364(19) -0.0139(12) 0.0139(12) -0.0072(15)
O2 0.108(7) 0.163(9) 0.263(12) 0.000 -0.039(8) 0.000
N3 0.30(2) 0.31(2) 0.31(2) 0.000 0.000 0.000
O3 0.56(4) 0.57(4) 0.56(4) 0.000 0.000 0.000
loop_
_atom_type_symbol
_atom_type_description
_atom_type_scat_dispersion_real
_atom_type_scat_dispersion_imag
_atom_type_scat_source
C C 0.0181 0.0091 'International Tables Vol C Tables 4.2.6.8 and 6.1.1.4'
H H 0.0000 0.0000 'International Tables Vol C Tables 4.2.6.8 and 6.1.1.4'
Cl Cl 0.3639 0.7018 'International Tables Vol C Tables 4.2.6.8 and 6.1.1.4'
Cu Cu -1.9646 0.5888 'International Tables Vol C Tables 4.2.6.8 and 6.1.1.4'
N N 0.0311 0.0180 'International Tables Vol C Tables 4.2.6.8 and 6.1.1.4'
O O 0.0492 0.0322 'International Tables Vol C Tables 4.2.6.8 and 6.1.1.4'
loop_
_geom_angle_atom_site_label_1
_geom_angle_atom_site_label_2
_geom_angle_atom_site_label_3
_geom_angle
_geom_angle_site_symmetry_1
_geom_angle_site_symmetry_3
N2 Cu1 Cl1 87.0(3) . .
N2 Cu1 Cl1 87.0(3) 19 .
N2 Cu1 Cl1 87.0(3) 22 .
N2 Cu1 Cl1 87.0(3) 5 .
N2 Cu1 N2 95.5(8) 5 19
N2 Cu1 N2 84.2(7) 5 22
N2 Cu1 N2 174.1(7) 22 19
N2 Cu1 N2 174.1(7) 5 .
N2 Cu1 N2 95.5(8) 22 .
N2 Cu1 N2 84.2(7) 19 .
N2 Cu1 OW 93.0(3) 19 .
N2 Cu1 OW 93.0(3) 22 .
N2 Cu1 OW 93.0(3) 5 .
N2 Cu1 OW 93.0(3) . .
OW Cu1 Cl1 180.0 . .
O1 Cu1 Cl1 97.4(3) 19 .
O1 Cu1 Cl1 97.4(3) . .
O1 Cu1 Cl1 97.4(3) 22 .
O1 Cu1 Cl1 97.4(3) 5 .
O1 Cu1 OW 82.6(3) 22 .
O1 Cu1 OW 82.6(3) . .
O1 Cu1 OW 82.6(3) 19 .
O1 Cu1 OW 82.6(3) 5 .
O1 Cu1 O1 97.5(6) 5 22
O1 Cu1 O1 80.6(6) . 22
O1 Cu1 O1 97.5(6) . 19
O1 Cu1 O1 165.3(5) . 5
O1 Cu1 O1 165.3(5) 22 19
O1 Cu1 O1 80.6(6) 5 19
Cu1 Cl1 Cu1 90.0 . 18
Cu1 Cl1 Cu1 180.0 18 2
Cu1 Cl1 Cu1 90.0 . 2
Cu1 Cl1 Cu1 180.0 . 17
Cu1 Cl1 Cu1 90.0 18 17
Cu1 Cl1 Cu1 90.0 17 2
N2 N2 Cu1 124.1(2) 23 .
C2 N2 Cu1 128.1(7) . .
C2 N2 N2 107.7(6) . 23
C5 N1 C2 129.3(2) . .
C5 N1 C2 129.3(2) . 23
C2 N1 C2 101.4(5) . 23
C5 C4 C5 61.9(5) . 25_544
C3 C4 C3 178.8(8) . 15_544
N1 C5 C4 120.8(3) . .
N1 C5 C4 120.8(3) . 25_544
N1 C5 C5 175.0(12) . 25_544
C4 C5 C4 118.1(5) . 25_544
C4 C5 C5 59.0(3) 25_544 25_544
C4 C5 C5 59.0(3) . 25_544
N2 C2 N1 111.6(7) . .
O1 C1 O1 127.0(10) 23 .
C1 O1 Cu1 138.0(6) . .
O2 N3 O2 140(4) . 3_655
O2 N3 O3 110(2) 3_655 .
O2 N3 O3 110(2) . .
loop_
_geom_bond_atom_site_label_1
_geom_bond_atom_site_label_2
_geom_bond_distance
_geom_bond_site_symmetry_2
Cu1 Cl1 2.5709(7) .
Cu1 N2 2.037(15) 5
Cu1 N2 2.037(15) 22
Cu1 N2 2.037(15) .
Cu1 N2 2.037(15) 19
Cu1 OW 2.362(7) .
Cu1 O1 1.950(12) 22
Cu1 O1 1.950(12) 5
Cu1 O1 1.950(12) .
Cu1 O1 1.950(12) 19
Cl1 Cu1 2.5709(7) 18
Cl1 Cu1 2.5709(7) 2
Cl1 Cu1 2.5709(7) 17
N2 N2 1.354(19) 23
N2 C2 1.308(14) .
N1 C5 1.387(7) .
N1 C2 1.388(6) .
N1 C2 1.388(6) 23
C4 C5 1.387(5) .
C4 C5 1.387(5) 25_544
C4 C3 1.358(7) .
C4 C3 1.358(7) 15_544
C5 C4 1.387(5) 25_544
C5 C5 1.426(13) 25_544
C1 O1 1.233(10) .
C1 O1 1.233(10) 23
O2 N3 1.164(11) .
N3 O2 1.164(11) 3_655
N3 O3 1.21(2) .
