#------------------------------------------------------------------------------
#$Date: 2017-01-01 03:26:02 +0200 (Sun, 01 Jan 2017) $
#$Revision: 189527 $
#$URL: file:///home/coder/svn-repositories/cod/cif/4/34/49/4344929.cif $
#------------------------------------------------------------------------------
#
# This file is available in the Crystallography Open Database (COD),
# http://www.crystallography.net/
#
# All data on this site have been placed in the public domain by the
# contributors.
#
data_4344929
loop_
_publ_author_name
'Maity, Dilip Kumar'
'Halder, Arijit'
'Pahari, Goutam'
'Haque, Fazle'
'Ghoshal, Debajyoti'
_publ_section_title
;
 Hydrogen Uptake by an Inclined Polycatenated Dynamic Metal-Organic
 Framework Based Material.
;
_journal_name_full               'Inorganic chemistry'
_journal_paper_doi               10.1021/acs.inorgchem.6b02719
_journal_year                    2016
_chemical_formula_sum            'C20 H21 Cu N3 O10'
_chemical_formula_weight         526.94
_space_group_crystal_system      monoclinic
_space_group_IT_number           9
_space_group_name_Hall           'I -2ya'
_space_group_name_H-M_alt        'I 1 a 1'
_symmetry_space_group_name_Hall  'I -2ya'
_symmetry_space_group_name_H-M   'I 1 a 1'
_atom_sites_solution_hydrogens   mixed
_audit_creation_method           SHELXL-2016/4
_cell_angle_alpha                90.000(5)
_cell_angle_beta                 103.198(5)
_cell_angle_gamma                90.000(5)
_cell_formula_units_Z            4
_cell_length_a                   12.743(5)
_cell_length_b                   10.874(5)
_cell_length_c                   17.709(5)
_cell_measurement_reflns_used    250
_cell_measurement_temperature    298(2)
_cell_measurement_theta_max      27.6
_cell_measurement_theta_min      2.2
_cell_volume                     2389.1(16)
_computing_cell_refinement       'SMART APEX II'
_computing_data_collection       'SMART APEX II (BRUKER,2010)'
_computing_data_reduction        'SAINT (BRUKER,2000)'
_computing_molecular_graphics    'Ortep-3v2 for windows (Farrugia,1997)'
_computing_publication_material  'PLATON (Spek, 2008)'
_computing_structure_refinement  'SHELXL-2016/4 (Sheldrick, 2016)'
_computing_structure_solution    'SHELXS-2016/4 (Sheldrick, 2016)'
_diffrn_ambient_temperature      298(2)
_diffrn_measured_fraction_theta_full 1.000
_diffrn_measured_fraction_theta_max 0.995
_diffrn_measurement_device_type  'CCD area detector'
_diffrn_measurement_method       'phi and omega scans'
_diffrn_radiation_type           MoK\a
_diffrn_radiation_wavelength     0.71073
_diffrn_reflns_av_R_equivalents  0.0516
_diffrn_reflns_av_unetI/netI     0.0717
_diffrn_reflns_Laue_measured_fraction_full 1.000
_diffrn_reflns_Laue_measured_fraction_max 0.995
_diffrn_reflns_limit_h_max       16
_diffrn_reflns_limit_h_min       -16
_diffrn_reflns_limit_k_max       14
_diffrn_reflns_limit_k_min       -14
_diffrn_reflns_limit_l_max       22
_diffrn_reflns_limit_l_min       -22
_diffrn_reflns_number            17958
_diffrn_reflns_point_group_measured_fraction_full 1.000
_diffrn_reflns_point_group_measured_fraction_max 0.995
_diffrn_reflns_theta_full        25.242
_diffrn_reflns_theta_max         27.577
_diffrn_reflns_theta_min         2.214
_diffrn_source                   'fine-focus sealed tube'
_exptl_absorpt_coefficient_mu    0.972
_exptl_absorpt_correction_T_max  0.9852
_exptl_absorpt_correction_T_min  0.8859
_exptl_absorpt_correction_type   multi-scan
_exptl_absorpt_process_details
;
'XPREP' - A PROGRAM DATA PREPARATION & RECIPROCAL 
SPACE EXPLORATION,
Bruker Analytical X-ray Systems, 1997
;
_exptl_crystal_colour            Blue
_exptl_crystal_density_diffrn    1.465
_exptl_crystal_description       Linear
_exptl_crystal_F_000             1084
_exptl_crystal_size_max          0.20
_exptl_crystal_size_mid          0.10
_exptl_crystal_size_min          0.10
_refine_diff_density_max         0.354
_refine_diff_density_min         -0.453
_refine_diff_density_rms         0.068
_refine_ls_abs_structure_details
;
 Refined as an inversion twin.
;
_refine_ls_abs_structure_Flack   0.31(2)
_refine_ls_extinction_method     none
_refine_ls_goodness_of_fit_ref   0.978
_refine_ls_hydrogen_treatment    constr
_refine_ls_matrix_type           full
_refine_ls_number_parameters     302
_refine_ls_number_reflns         5389
_refine_ls_number_restraints     2
_refine_ls_restrained_S_all      0.978
_refine_ls_R_factor_all          0.0797
_refine_ls_R_factor_gt           0.0512
_refine_ls_shift/su_max          0.000
_refine_ls_shift/su_mean         0.000
_refine_ls_structure_factor_coef Fsqd
_refine_ls_weighting_details
'w=1/[\s^2^(Fo^2^)+(0.0661P)^2^] where P=(Fo^2^+2Fc^2^)/3'
_refine_ls_weighting_scheme      calc
_refine_ls_wR_factor_gt          0.1111
_refine_ls_wR_factor_ref         0.1268
_reflns_Friedel_coverage         0.997
_reflns_Friedel_fraction_full    1.000
_reflns_Friedel_fraction_max     0.995
_reflns_number_gt                3993
_reflns_number_total             5389
_reflns_threshold_expression     'I > 2\s(I)'
_cod_data_source_file            ic6b02719_si_002.cif
_cod_data_source_block           DG1_rev
_cod_database_code               4344929
_shelx_shelxl_version_number     2016/4
_shelx_space_group_comment
;
The symmetry employed for this shelxl refinement is uniquely defined
by the following loop, which should always be used as a source of
symmetry information in preference to the above space-group names.
They are only intended as comments.
;
_shelx_res_file
;
TITL dm-524final in Ia
 shelx.res created by SHELXL-2016/4 at 19:55:04 on 12-Dec-2016
CELL  0.71073  12.7430  10.8740  17.7090   90.000  103.198   90.000
ZERR     4.00   0.0050   0.0050   0.0050    0.005    0.005    0.005
LATT  -2
SYMM  1/2 + X, - Y,   Z
SFAC  C    H    N    O    CU
UNIT  80 84 12 40 4
MERG   2
TWIN
FMAP   2
PLAN   25
ACTA
L.S.  40
WGHT    0.066100
BASF   0.31087
FVAR       0.11594
CU1   5    0.046740    0.228770    0.396808    11.00000    0.04941    0.06401 =
         0.01875    0.00783    0.00844    0.03376
O2    4    0.248488    0.270188    0.534257    11.00000    0.07515    0.05117 =
         0.06181    0.01926    0.00809    0.00580
O1    4    0.135732    0.122357    0.475908    11.00000    0.05271    0.05375 =
         0.02599    0.00444    0.00058    0.02366
C5    1    0.129870    0.204099    0.257770    11.00000    0.07287    0.04984 =
         0.03930    0.00695    0.02680    0.01150
AFIX  43
H5    2    0.122661    0.289227    0.256854    11.00000   -1.20000
AFIX   0
C14   1    0.252767    0.078847    0.596732    11.00000    0.04162    0.03692 =
         0.02782    0.00456    0.00357    0.01083
N1    3    0.102022    0.141067    0.314018    11.00000    0.03543    0.05189 =
         0.02577    0.00033    0.00838    0.01353
C18   1    0.393063    0.014310    0.707088    11.00000    0.04072    0.04206 =
         0.03189    0.00578   -0.00614    0.00724
AFIX  43
H18   2    0.463534    0.022426    0.735861    11.00000   -1.20000
AFIX   0
C19   1    0.355747    0.086080    0.642010    11.00000    0.03912    0.03755 =
         0.03761    0.01133    0.00739    0.00473
C15   1    0.186071   -0.004895    0.619146    11.00000    0.04378    0.05500 =
         0.04439    0.01609   -0.01742    0.00044
AFIX  43
H15   2    0.116182   -0.013739    0.589466    11.00000   -1.20000
AFIX   0
C2    1    0.144322   -0.042089    0.255950    11.00000    0.04547    0.05062 =
         0.05452   -0.00814    0.01655    0.00574
AFIX  43
H2    2    0.146185   -0.127586    0.256613    11.00000   -1.20000
AFIX   0
C6    1    0.221965   -0.041498    0.134940    11.00000    0.04269    0.07327 =
         0.04039   -0.02002    0.01157    0.00801
AFIX  23
H6A   2    0.196697   -0.125782    0.127875    11.00000   -1.20000
H6B   2    0.196031    0.001983    0.086438    11.00000   -1.20000
AFIX   0
C4    1    0.169187    0.147166    0.200621    11.00000    0.07879    0.06234 =
         0.03578    0.00639    0.03868    0.00953
AFIX  43
H4    2    0.190733    0.194237    0.162995    11.00000   -1.20000
AFIX   0
C13   1    0.210452    0.165158    0.528623    11.00000    0.04700    0.05030 =
         0.03073    0.00650    0.01332    0.02110
O5    4    0.478158    0.245302    0.666264    11.00000    0.09796    0.08279 =
         0.17904    0.05366   -0.04375   -0.04213
N3    3    0.434989    0.170133    0.618903    11.00000    0.05390    0.07052 =
         0.09738    0.04902    0.00873    0.01290
C1    1    0.108620    0.019287    0.312873    11.00000    0.05051    0.04753 =
         0.03564    0.00788    0.02032    0.01008
AFIX  43
H1    2    0.088400   -0.025754    0.351886    11.00000   -1.20000
AFIX   0
O6    4    0.451429    0.152928    0.553862    11.00000    0.10567    0.14997 =
         0.14935    0.08297    0.08479    0.04914
C3    1    0.176998    0.019204    0.198663    11.00000    0.03481    0.06134 =
         0.03978   -0.01217    0.01350    0.00700
C7    1   -0.156493    0.460041    0.655743    11.00000    0.05251    0.08565 =
         0.04161   -0.01948    0.01579    0.00753
AFIX  23
H7A   2   -0.131865    0.544319    0.664742    11.00000   -1.20000
H7B   2   -0.131147    0.414707    0.703612    11.00000   -1.20000
AFIX   0
C12   1   -0.069562    0.477919    0.542995    11.00000    0.05444    0.04675 =
         0.04084   -0.00880    0.02030    0.01000
AFIX  43
H12   2   -0.073123    0.563079    0.546566    11.00000   -1.20000
AFIX   0
C9    1   -0.102874    0.280181    0.582906    11.00000    0.06940    0.05750 =
         0.05409    0.01016    0.03665    0.01050
AFIX  43
H9    2   -0.130009    0.226539    0.614664    11.00000   -1.20000
AFIX   0
C8    1   -0.108449    0.405153    0.593982    11.00000    0.03955    0.07138 =
         0.03293   -0.00262    0.01298    0.01270
C17   1    0.324192   -0.069305    0.728558    11.00000    0.04200    0.03691 =
         0.02348    0.00556   -0.00138    0.00990
C16   1    0.219736   -0.078330    0.685792    11.00000    0.04493    0.05209 =
         0.05037    0.02324   -0.00834   -0.00420
AFIX  43
H16   2    0.171777   -0.132485    0.700786    11.00000   -1.20000
AFIX   0
C11   1   -0.025306    0.425162    0.486590    11.00000    0.04684    0.04754 =
         0.04079    0.00205    0.01747    0.00991
AFIX  43
H11   2    0.000813    0.476250    0.452947    11.00000   -1.20000
AFIX   0
C10   1   -0.058273    0.234473    0.526227    11.00000    0.06974    0.05118 =
         0.04162    0.00708    0.03231    0.01457
AFIX  43
H10   2   -0.055431    0.149585    0.520612    11.00000   -1.20000
AFIX   0
N2    3   -0.018597    0.304877    0.478523    11.00000    0.04307    0.05155 =
         0.02645    0.00434    0.01239    0.01698
AFIX   6
O1W   4    0.204191    0.386525    0.396755    11.00000    0.13250    0.07342 =
         0.05257    0.01305   -0.00792   -0.00512
H1WA  2    0.218887    0.348812    0.439927    11.00000   -1.50000
H1WB  2    0.181518    0.458380    0.403269    11.00000   -1.50000
O2W   4   -0.103122    0.056841    0.381988    11.00000    0.08328    0.09335 =
         0.08769    0.00231    0.00652    0.01175
H2WA  2   -0.082005    0.041148    0.430088    11.00000   -1.50000
H2WB  2   -0.090468   -0.004633    0.355774    11.00000   -1.50000
O3W   4    0.126633    0.622982    0.369322    11.00000    0.17285    0.10895 =
         0.21635    0.07064    0.08352    0.01347
H3WA  2    0.131169    0.635577    0.322799    11.00000   -1.50000
H3WB  2    0.174112    0.665451    0.399873    11.00000   -1.50000
O4W   4    0.408128    0.242234    0.370621    11.00000    0.17082    0.22791 =
         0.30784    0.06779    0.06139    0.05432
AFIX   0
O4    4    0.299733   -0.224325    0.817246    11.00000    0.06062    0.06797 =
         0.07380    0.03930   -0.00364   -0.00951
C20   1    0.364714   -0.158405    0.793783    11.00000    0.04506    0.04091 =
         0.02775    0.00670   -0.00016    0.01237
O3    4    0.465790   -0.159143    0.818510    11.00000    0.04494    0.06185 =
         0.02813    0.01113    0.00987    0.02253
HKLF    4




REM  dm-524final in Ia
REM R1 =  0.0512 for    3993 Fo > 4sig(Fo)  and  0.0797 for all    5389 data
REM    302 parameters refined using      2 restraints

END

WGHT      0.0638      0.0000

REM Highest difference peak  0.354,  deepest hole -0.453,  1-sigma level  0.068
Q1    1   0.1097  0.8126  0.4720  11.00000  0.05    0.35
Q2    1   0.0908  0.7580  0.4782  11.00000  0.05    0.35
Q3    1   0.2861  0.3590  0.3897  11.00000  0.05    0.32
Q4    1   0.0717  0.1392  0.3493  11.00000  0.05    0.29
Q5    1   0.4244  0.2690  0.4015  11.00000  0.05    0.29
Q6    1   0.5172  0.2633  0.3281  11.00000  0.05    0.29
Q7    1   0.0013  0.2984  0.4421  11.00000  0.05    0.29
Q8    1   0.1055  0.6137  0.3560  11.00000  0.05    0.28
Q9    1   0.4248  0.3268  0.3537  11.00000  0.05    0.26
Q10   1   0.3943  0.1994  0.3894  11.00000  0.05    0.26
Q11   1   0.5253  0.2612  0.4403  11.00000  0.05    0.26
Q12   1   0.4827  0.1828  0.3219  11.00000  0.05    0.26
Q13   1   0.1123  0.0636  0.4690  11.00000  0.05    0.25
Q14   1   0.5866  0.3134  0.6753  11.00000  0.05    0.24
Q15   1  -0.1818  0.1069  0.4054  11.00000  0.05    0.24
Q16   1   0.5523 -0.2071  0.8345  11.00000  0.05    0.23
Q17   1   0.2470  0.3477  0.4557  11.00000  0.05    0.23
Q18   1   0.3882 -0.2560  0.7628  11.00000  0.05    0.23
Q19   1   0.0790  0.6487  0.4490  11.00000  0.05    0.22
Q20   1   0.0571  0.7073  0.3502  11.00000  0.05    0.22
Q21   1   0.1479  0.6709  0.4413  11.00000  0.05    0.22
Q22   1   0.3076 -0.2701  0.7718  11.00000  0.05    0.21
Q23   1   0.0334  0.6634  0.3577  11.00000  0.05    0.21
Q24   1   0.5039  0.2653  0.3862  11.00000  0.05    0.21
Q25   1   0.1955  0.8187  0.4492  11.00000  0.05    0.21
;
_shelx_res_checksum              35735
_shelx_hkl_file
;
   0   0   2   12.37    0.58
   0   0  -2   12.49    0.59
   0   0   4  224.26    6.83
   0   0  -4  223.99    6.38
   0   0  -4  231.64    6.92
   0   0   6   80.30    3.01
   0   0   6   81.20    2.94
   0   0   6   82.93    3.13
   0   0  -6   90.25    3.23
   0   0  -6   89.69    2.99
   0   0  -6   91.01    3.23
   0   0   8   75.31    3.22
   0   0  -8   81.82    3.30
   0   0  -8   79.87    3.06
   0   0  -8   78.95    3.35
   0   0 -10  165.37    5.66
   0   0 -10  174.78    6.21
   0   0 -10  170.60    6.12
   0   0  10  172.99    6.06
   0   0  12  137.92    5.56
   0   0 -12  149.66    5.30
   0   0 -12  139.79    5.71
   0   0  14  130.68    5.62
   0   0 -14  134.86    5.86
   0   0 -16   41.10    3.24
   0   0  16   42.27    3.05
   0   0 -18    0.85    1.04
   0   0 -20   12.58    2.53
   0   0 -22   11.03    2.32
   0  -1   1    0.63    0.20
   0  -1  -1    0.85    0.22
   0  -1   1    0.97    0.17
   0  -1   1    1.74    0.18
   0   1  -1    1.62    0.21
   0   1  -1    0.54    0.22
   0   1  -1    0.87    0.19
   0   1   1    0.81    0.25
   0   1   1    0.72    0.21
   0  -1   3   12.44    0.50
   0  -1   3   12.99    0.49
   0  -1   3   11.82    0.70
   0  -1  -3   12.87    0.85
   0   1  -3   10.88    0.71
   0   1   3   12.66    0.62
   0  -1  -5    0.43    0.33
   0  -1   5    0.64    0.28
   0  -1   5    0.74    0.41
   0  -1  -5   -0.05    0.36
   0   1   5    0.80    0.20
   0   1  -5    0.19    0.25
   0   1  -5    0.51    0.39
   0   1   5    0.40    0.18
   0   1   5    0.66    0.20
   0  -1   7    4.01    0.86
   0  -1   7    5.42    0.69
   0  -1  -7    3.39    0.71
   0  -1  -7    4.65    0.83
   0   1  -7    4.30    0.83
   0   1   7    6.05    0.80
   0   1  -7    3.83    0.69
   0  -1   9   18.78    1.90
   0  -1  -9   18.19    1.50
   0  -1  -9   16.70    1.63
   0   1  -9   18.25    1.24
   0   1  -9   17.01    1.38
   0   1  -9   22.33    2.06
   0   1   9   18.94    1.40
   0  -1  11    2.82    0.91
   0  -1 -11    2.65    0.85
   0  -1 -11    2.23    0.76
   0  -1 -11    2.35    0.86
   0   1 -11    2.48    0.77
   0   1 -11    3.99    0.79
   0   1 -11    1.03    0.74
   0   1  11    2.73    0.78
   0  -1 -13    2.96    1.07
   0  -1  13    4.97    1.25
   0  -1 -13    3.18    1.07
   0   1  13    2.43    0.84
   0   1 -13    3.31    1.16
   0  -1 -15    4.30    1.41
   0  -1 -15    3.27    1.17
   0  -1  15    4.65    1.24
   0   1 -15    5.51    1.51
   0  -1  17    1.94    1.07
   0  -1 -17    2.10    1.23
   0   1 -17    2.72    1.28
   0  -1 -19    0.43    1.10
   0   1 -19    3.45    1.50
   0  -1 -21    0.48    1.29
   0   1 -21   -0.46    1.17
   0  -2   0  141.56    4.27
   0  -2   0  138.13    4.40
   0  -2   0  137.52    3.98
   0   2   0  138.04    4.40
   0   2   0  137.01    4.26
   0   2   0  142.32    4.00
   0  -2  -2  478.60   13.13
   0  -2   2  485.86   12.77
   0  -2   2  455.43   13.58
   0  -2  -2  459.74   12.75
   0  -2   2  471.94   11.92
   0  -2   2  464.83   13.59
   0  -2   2  477.12   13.41
   0   2   2  467.32   13.04
   0   2  -2  471.07   13.58
   0   2   2  475.64   12.07
   0   2  -2  465.34   12.97
   0  -2   4   36.45    1.28
   0  -2  -4   39.36    1.88
   0  -2   4   34.11    1.30
   0  -2   4   34.06    1.82
   0  -2  -4   42.98    1.54
   0  -2   4   32.90    1.63
   0   2  -4   39.03    1.74
   0   2   4   34.13    1.47
   0   2  -4   41.39    1.90
   0  -2   6   35.46    2.05
   0  -2  -6   40.34    2.08
   0  -2  -6   39.01    2.08
   0  -2  -6   37.51    1.43
   0  -2   6   36.45    1.78
   0   2  -6   36.81    1.93
   0   2   6   36.98    1.42
   0   2  -6   40.33    1.92
   0   2   6   35.80    1.46
   0   2   6   37.43    1.46
   0  -2  -8  115.32    3.58
   0  -2  -8  120.99    3.62
   0  -2  -8  124.91    4.81
   0  -2   8  114.79    4.70
   0  -2  -8  123.02    4.61
   0   2   8  120.87    3.24
   0   2  -8  116.54    4.47
   0   2  -8  115.64    4.46
   0   2   8  121.49    3.23
   0   2   8  120.27    3.94
   0  -2 -10   41.58    2.52
   0  -2 -10   39.05    1.56
   0  -2  10   39.56    2.59
   0  -2 -10   39.01    2.45
   0   2 -10   38.71    2.21
   0   2  10   42.71    2.04
   0   2 -10   37.91    1.73
   0   2 -10   40.22    2.46
   0  -2 -12   36.32    2.63
   0  -2  12   44.14    2.95
   0   2 -12   39.11    2.72
   0   2  12   38.53    2.21
   0  -2 -14   47.85    3.24
   0  -2 -14   47.53    3.22
   0  -2  14   49.60    3.36
   0   2 -14   50.47    3.33
   0  -2 -16   23.71    2.93
   0  -2 -16   26.60    2.85
   0  -2  16   26.38    3.11
   0   2 -16   25.51    2.94
   0  -2  18   16.61    2.64
   0  -2 -18   11.81    2.20
   0   2 -18   11.85    2.24
   0  -2 -20    5.34    1.73
   0   2 -20    3.71    1.65
   0  -2 -22   11.23    2.52
   0   2 -22    8.47    2.19
   0  -3   1   59.20    2.14
   0  -3  -1   55.54    2.16
   0  -3   1   57.96    2.31
   0  -3  -1   51.09    2.21
   0  -3   1   55.50    2.22
   0  -3  -1   51.68    2.26
   0  -3   1   55.45    2.09
   0  -3   1   59.10    2.21
   0  -3  -1   46.80    2.22
   0   3  -1   54.68    2.15
   0   3  -1   50.56    2.15
   0   3   1   57.36    2.33
   0   3   1   55.86    2.19
   0   3  -1   50.53    2.21
   0   3  -1   53.15    2.21
   0  -3   3   88.11    2.48
   0  -3   3   89.03    2.82
   0  -3   3   88.05    2.48
   0  -3  -3   85.62    3.00
   0  -3  -3   90.70    3.20
   0  -3   3   87.03    3.30
   0  -3   3   85.92    3.34
   0  -3   3   86.37    2.59
   0  -3   3   86.83    2.59
   0   3  -3   85.70    3.27
   0   3   3   86.31    3.03
   0   3  -3   84.32    2.98
   0   3   3   86.34    2.99
   0   3  -3   85.09    3.12
   0  -3   5   26.43    1.17
   0  -3   5   23.78    1.71
   0  -3   5   29.05    1.59
   0  -3   5   26.33    1.21
   0  -3  -5   24.69    1.41
   0   3  -5   25.57    1.16
   0   3  -5   26.71    1.17
   0   3   5   26.10    1.40
   0   3  -5   28.42    1.72
   0   3  -5   24.24    1.59
   0   3   5   25.52    1.40
   0  -3  -7   62.61    3.21
   0  -3  -7   61.76    2.53
   0  -3   7   64.48    1.81
   0  -3   7   62.78    2.75
   0  -3  -7   66.93    3.22
   0  -3   7   62.20    3.18
   0  -3   7   63.48    1.81
   0   3  -7   63.25    2.04
   0   3  -7   64.09    3.17
   0   3  -7   66.18    2.03
   0   3  -7   67.18    2.11
   0   3   7   59.11    2.27
   0   3   7   65.16    2.42
   0   3   7   61.41    2.37
   0   3  -7   64.39    2.96
   0   3  -7   66.29    2.12
   0  -3  -9    7.66    1.36
   0  -3  -9    6.51    1.24
   0  -3  -9    6.36    0.85
   0  -3   9   10.16    1.63
   0   3   9    8.56    0.74
   0   3  -9    9.75    1.50
   0   3   9    8.79    0.77
   0   3  -9    8.70    1.35
   0  -3 -11    7.62    1.52
   0  -3  11    4.85    1.28
   0   3 -11    4.09    1.11
   0  -3  13    1.34    0.98
   0  -3 -13    0.38    0.92
   0   3 -13    1.05    0.87
   0  -3  15    5.06    1.52
   0  -3 -15    8.91    1.87
   0   3 -15    4.95    1.42
   0  -3 -17    1.74    1.15
   0  -3  17    3.23    1.52
   0  -3 -17    1.04    1.16
   0   3 -17    5.58    1.60
   0  -3 -19    0.39    0.96
   0  -3  19    1.25    1.17
   0   3 -19    0.18    0.96
   0  -3 -21    3.37    1.70
   0  -3  21    2.44    1.53
   0   3 -21    1.57    1.39
   0  -4   0  103.64    3.81
   0  -4   0  106.58    4.00
   0  -4   0  105.08    3.70
   0  -4   0  107.96    3.80
   0  -4   0  101.78    3.65
   0   4   0  105.92    4.07
   0   4   0  106.86    3.76
   0   4   0  109.73    4.00
   0  -4  -2    0.62    0.59
   0  -4   2    0.60    0.36
   0  -4   2    0.72    0.34
   0  -4  -2    1.24    0.53
   0  -4   2    0.66    0.39
   0  -4  -2    0.82    0.51
   0  -4   2    0.22    0.42
   0  -4  -2    0.52    0.27
   0  -4   2    0.04    0.36
   0  -4   2    0.87    0.48
   0   4   2    0.39    0.40
   0   4   2    1.15    0.54
   0   4  -2    0.60    0.42
   0   4  -2    0.87    0.47
   0   4  -2    0.95    0.48
   0   4  -2    1.32    0.55
   0  -4   4   34.86    2.19
   0  -4  -4   39.46    1.99
   0  -4  -4   39.07    2.04
   0  -4   4   36.69    1.73
   0  -4   4   39.76    2.14
   0  -4  -4   37.65    2.27
   0   4  -4   37.14    2.06
   0   4   4   38.71    1.98
   0   4  -4   35.17    1.92
   0   4   4   40.14    1.76
   0   4  -4   39.97    2.11
   0   4  -4   36.62    1.92
   0   4   4   36.30    1.92
   0  -4   6   73.77    2.54
   0  -4   6   77.74    2.64
   0  -4   6   66.90    3.18
   0  -4  -6   70.64    3.50
   0  -4  -6   73.14    3.09
   0  -4   6   75.42    3.58
   0  -4  -6   71.98    3.00
   0   4   6   75.83    2.97
   0   4  -6   71.35    3.21
   0   4  -6   74.52    2.80
   0   4  -6   76.63    3.44
   0   4   6   69.28    2.86
   0  -4   8   77.62    2.29
   0  -4  -8   84.40    3.35
   0  -4   8   79.81    2.31
   0  -4   8   78.60    3.96
   0  -4  -8   82.17    3.99
   0  -4  -8   80.96    4.06
   0  -4   8   81.05    3.49
   0   4  -8   77.28    3.78
   0   4  -8   74.41    2.89
   0   4   8   78.90    2.89
   0   4  -8   79.86    3.66
   0   4   8   75.69    2.97
   0  -4  10   10.09    1.75
   0  -4 -10   11.22    1.85
   0   4  10   10.01    0.97
   0   4 -10    8.23    0.76
   0   4 -10    9.87    1.56
   0   4  10    9.70    0.93
   0  -4 -12    8.94    1.77
   0  -4  12    6.09    1.52
   0   4 -12    8.67    1.61
   0  -4  14   15.40    2.45
   0  -4 -14   13.15    2.24
   0   4 -14   17.20    2.42
   0  -4 -16   13.70    2.34
   0  -4  16   13.86    2.52
   0   4 -16   16.45    2.44
   0  -4  18    9.34    2.35
   0  -4 -18    4.77    1.78
   0  -4 -18    8.83    2.05
   0   4 -18    9.07    2.15
   0  -4 -20    7.09    1.99
   0  -4  20    4.05    1.62
   0   4 -20    5.03    1.70
   0  -5   1   35.27    2.01
   0  -5  -1   38.93    2.16
   0  -5   1   34.11    2.09
   0  -5   1   38.91    2.05
   0  -5   1   38.42    2.02
   0  -5  -1   42.57    2.26
   0  -5  -1   38.14    2.17
   0  -5   1   35.06    2.00
   0  -5  -1   36.73    2.09
   0  -5   1   33.06    1.93
   0  -5  -1   37.90    1.85
   0   5  -1   33.25    2.13
   0   5  -1   40.92    2.16
   0   5  -1   39.00    2.16
   0   5   1   34.08    2.06
   0   5   1   37.27    2.09
   0   5   1   40.16    2.20
   0   5  -1   36.02    2.07
   0  -5   3   30.26    1.64
   0  -5  -3   31.95    1.97
   0  -5   3   32.20    2.05
   0  -5  -3   35.12    2.25
   0  -5  -3   30.49    2.00
   0  -5   3   34.77    2.02
   0  -5   3   27.82    1.70
   0  -5   3   31.86    1.55
   0  -5   3   30.72    1.53
   0   5  -3   31.04    2.03
   0   5   3   31.64    1.97
   0   5   3   29.88    1.89
   0   5  -3   31.67    1.95
   0   5   3   30.43    1.84
   0   5  -3   31.45    1.94
   0   5  -3   32.67    2.00
   0  -5  -5   90.77    4.18
   0  -5  -5   91.37    3.85
   0  -5   5   90.01    3.31
   0  -5  -5   92.99    3.72
   0  -5   5   88.72    3.95
   0  -5   5   90.11    4.11
   0   5   5   91.65    3.33
   0   5   5   91.17    3.65
   0   5   5   96.25    3.68
   0   5  -5   90.18    3.62
   0   5  -5   87.62    3.81
   0   5  -5   90.49    3.91
   0  -5  -7   39.09    2.30
   0  -5   7   40.41    1.82
   0  -5   7   36.16    2.61
   0  -5  -7   35.33    2.64
   0  -5  -7   41.97    2.39
   0  -5   7   45.00    2.75
   0  -5   7   36.30    1.73
   0   5   7   41.28    2.19
   0   5  -7   37.26    2.47
   0   5   7   38.62    2.16
   0   5  -7   38.25    2.40
   0  -5   9   42.86    3.03
   0  -5  -9   42.96    3.08
   0  -5   9   43.67    1.48
   0  -5  -9   46.47    2.62
   0  -5   9   42.81    1.46
   0   5  -9   49.30    2.90
   0   5   9   44.25    2.23
   0  -5 -11    2.13    1.20
   0  -5  11    2.65    1.22
   0   5 -11    1.80    1.02
   0   5  11    4.93    0.80
   0  -5  13    3.77    1.40
   0  -5 -13    4.98    1.60
   0   5 -13    7.77    1.64
   0  -5  15    5.98    1.79
   0  -5 -15    6.03    1.76
   0   5 -15    4.34    1.50
   0  -5 -17    8.49    2.08
   0  -5  17    8.02    2.09
   0   5 -17    7.42    1.93
   0  -5  19   10.77    2.41
   0  -5 -19    6.24    2.13
   0   5 -19    8.25    2.24
   0  -6   0   18.11    1.55
   0  -6   0   21.11    1.96
   0  -6   0   18.31    1.64
   0  -6   0   21.34    1.96
   0  -6   0   18.97    1.52
   0  -6   0   18.32    1.56
   0   6   0   18.32    1.55
   0   6   0   16.99    1.78
   0   6   0   20.68    2.02
   0  -6   2   24.80    1.84
   0  -6   2   26.04    1.86
   0  -6   2   23.16    1.56
   0  -6  -2   22.64    1.81
   0  -6  -2   23.69    1.79
   0  -6  -2   20.22    1.35
   0  -6  -2   20.67    1.78
   0  -6   2   24.16    1.67
   0  -6   2   22.25    1.68
   0  -6  -2   23.20    1.90
   0  -6   2   19.57    1.46
   0   6  -2   19.88    1.65
   0   6  -2   23.22    1.86
   0   6  -2   22.37    2.06
   0   6  -2   20.57    2.02
   0   6   2   23.11    1.82
   0   6   2   25.42    1.92
   0  -6   4   55.27    2.43
   0  -6   4   53.39    3.04
   0  -6  -4   59.00    2.92
   0  -6   4   55.08    2.63
   0  -6   4   51.93    2.07
   0  -6  -4   57.16    2.97
   0  -6   4   51.97    2.06
   0  -6   4   54.22    2.93
   0  -6  -4   53.51    3.18
   0  -6   4   53.58    2.03
   0   6   4   55.85    2.64
   0   6  -4   56.96    2.93
   0   6   4   54.56    2.80
   0   6  -4   48.70    2.72
   0   6  -4   52.23    2.89
   0   6   4   56.80    2.92
   0   6  -4   51.20    2.78
   0  -6  -6   34.06    2.29
   0  -6   6   32.91    2.26
   0  -6  -6   36.45    2.67
   0  -6   6   32.68    1.85
   0  -6   6   33.36    2.49
   0  -6  -6   26.64    2.39
   0  -6  -6   32.38    2.45
   0   6   6   32.42    2.14
   0   6  -6   33.21    2.29
   0   6  -6   29.63    2.23
   0   6   6   29.94    2.10
   0  -6   8   33.57    1.71
   0  -6   8   32.68    2.67
   0  -6  -8   38.46    2.50
   0  -6  -8   31.84    3.14
   0   6   8   32.11    2.12
   0   6  -8   30.43    2.47
   0  -6  10   12.71    2.11
   0  -6 -10   12.02    2.09
   0   6  10   12.63    1.49
   0   6 -10   10.62    1.73
   0  -6  12   14.08    2.30
   0  -6 -12    9.32    2.10
   0   6  12   16.63    1.30
   0   6 -12   16.50    2.28
   0  -6 -14    5.89    1.87
   0  -6  14    3.50    1.46
   0   6 -14    3.58    1.34
   0  -6 -16    8.83    2.25
   0  -6  16   12.18    2.56
   0   6 -16   12.66    2.38
   0  -6  18    3.16    1.69
   0  -6 -18    3.33    1.62
   0   6 -18    7.51    1.99
   0  -6  20    3.52    1.74
   0  -6 -20    5.65    2.05
   0   6 -20    3.96    1.75
   0  -7  -1    7.42    1.27
   0  -7   1    4.71    1.10
   0  -7   1    4.11    1.01
   0  -7  -1    6.26    1.25
   0  -7  -1    7.23    1.37
   0  -7   1    7.23    1.18
   0  -7  -1    8.22    1.43
   0  -7   1    4.51    1.10
   0  -7   1    5.73    1.10
   0  -7   1    7.06    1.13
   0  -7  -1    3.25    1.02
   0  -7  -1    7.53    1.15
   0   7  -1    6.91    1.39
   0   7   1    4.98    1.21
   0   7  -1    7.33    1.42
   0   7  -1    6.43    1.15
   0   7   1    5.81    1.22
   0  -7  -3   67.83    3.41
   0  -7   3   67.16    3.58
   0  -7   3   64.24    2.86
   0  -7  -3   62.89    3.41
   0  -7   3   64.14    3.05
   0  -7   3   66.13    3.48
   0  -7   3   67.77    3.27
   0  -7  -3   71.71    2.81
   0  -7  -3   64.09    3.65
   0  -7  -3   70.61    3.69
   0   7  -3   65.08    3.53
   0   7  -3   65.65    3.40
   0   7   3   68.12    3.45
   0   7   3   71.39    3.53
   0   7  -3   70.43    3.50
   0   7  -3   74.74    3.58
   0  -7   5   26.83    2.19
   0  -7   5   28.57    2.43
   0  -7  -5   29.24    2.27
   0  -7  -5   26.54    2.72
   0  -7   5   28.68    1.93
   0  -7  -5   24.20    2.16
   0   7   5   30.63    2.26
   0   7  -5   29.16    2.75
   0   7  -5   30.99    2.23
   0   7   5   31.85    2.26
   0  -7  -7   53.51    3.21
   0  -7   7   50.40    2.50
   0  -7  -7   47.02    3.47
   0  -7   7   52.86    3.20
   0  -7   7   46.54    3.33
   0  -7  -7   50.20    3.33
   0   7   7   53.51    2.97
   0   7  -7   53.44    3.24
   0  -7  -9   18.50    2.62
   0  -7   9   21.24    1.38
   0  -7   9   19.21    2.60
   0  -7  -9   19.79    2.32
   0   7  -9   28.16    2.93
   0   7   9   24.29    2.27
   0  -7 -11    3.35    1.48
   0  -7  11    2.52    1.30
   0   7 -11    0.90    0.95
   0   7  11    1.05    0.66
   0  -7  13    2.90    1.35
   0  -7 -13    3.44    1.65
   0   7  13    2.12    0.67
   0   7 -13    2.28    1.24
   0  -7 -15    6.37    2.05
   0  -7  15    5.20    1.89
   0   7 -15   10.31    2.16
   0  -7  17    6.94    2.24
   0  -7 -17   11.42    2.58
   0   7 -17    6.08    1.99
   0  -7 -19    2.15    1.62
   0  -7  19    2.47    1.74
   0   7 -19    4.81    2.00
   0  -8   0   11.47    1.75
   0  -8   0   11.01    1.58
   0  -8   0    9.04    1.42
   0  -8   0   12.19    1.65
   0  -8   0   15.28    1.99
   0  -8   0   13.05    1.78
   0   8   0    9.27    1.64
   0   8   0   10.77    1.60
   0  -8  -2    9.09    1.57
   0  -8  -2   11.46    1.68
   0  -8  -2    9.66    1.67
   0  -8   2   10.04    1.50
   0  -8   2   11.58    1.64
   0  -8   2   11.64    1.74
   0  -8  -2    9.58    1.66
   0  -8   2   10.13    1.62
   0  -8   2    9.89    1.31
   0   8   2   10.17    1.66
   0   8  -2    8.45    1.57
   0   8  -2   11.96    1.67
   0  -8   4    3.73    0.70
   0  -8   4    3.10    0.92
   0  -8  -4    3.81    1.13
   0  -8   4    4.18    1.14
   0  -8   4    3.85    1.24
   0  -8   4    3.28    0.62
   0  -8  -4    4.29    1.27
   0  -8  -4    2.23    1.24
   0  -8  -4    4.62    1.21
   0   8   4    2.65    1.10
   0   8  -4    2.75    1.05
   0  -8  -6    2.25    0.95
   0  -8   6    4.61    1.36
   0  -8   6    3.25    0.92
   0  -8  -6    5.60    1.40
   0  -8   6    4.49    1.22
   0  -8  -6    6.30    1.74
   0   8  -6    7.22    1.48
   0   8   6    4.90    1.35
   0  -8  -8    9.64    2.01
   0  -8   8    4.73    1.53
   0  -8   8    6.99    1.12
   0  -8  -8    6.25    1.51
   0   8  -8    8.35    1.68
   0   8   8    7.51    1.44
   0  -8 -10    8.50    1.79
   0  -8 -10    6.79    1.81
   0  -8  10   12.03    2.27
   0  -8  10    9.83    1.07
   0   8 -10    9.50    1.86
   0   8  10    7.25    1.35
   0  -8  12    0.73    1.12
   0  -8 -12    2.93    1.65
   0   8  12    2.30    0.91
   0   8 -12    1.12    1.08
   0  -8  14    5.32    1.83
   0  -8 -14    3.74    1.83
   0   8  14    2.18    0.63
   0   8 -14    4.15    1.55
   0  -8 -16    1.57    1.57
   0  -8  16    0.05    1.12
   0   8 -16    1.39    1.46
   0  -8 -18    1.54    1.74
   0  -8  18   -0.78    1.25
   0   8 -18    1.52    1.42
   0  -9  -1    4.76    1.31
   0  -9  -1    8.01    1.67
   0  -9   1    7.59    1.63
   0  -9  -1    4.47    1.23
   0  -9   1    7.02    1.48
   0  -9   1    4.85    1.32
   0  -9   1    3.50    1.02
   0  -9  -1    4.44    1.25
   0  -9   1    5.70    1.41
   0   9   1    4.63    1.48
   0   9  -1    7.45    1.67
   0  -9  -3   11.31    1.94
   0  -9   3   11.83    1.80
   0  -9   3    8.31    1.69
   0  -9  -3   10.22    1.94
   0  -9   3   12.60    1.44
   0  -9  -3    7.05    1.51
   0  -9  -3   11.81    1.90
   0   9   3   14.60    2.15
   0   9  -3   10.98    1.94
   0  -9   5    8.55    1.78
   0  -9  -5    5.63    1.46
   0  -9   5    7.93    1.42
   0  -9  -5    7.52    1.67
   0  -9  -5    3.70    1.41
   0   9   5    6.75    1.56
   0   9  -5    2.57    1.21
   0  -9   7    2.30    0.89
   0  -9   7    1.31    1.14
   0  -9  -7    2.40    1.33
   0  -9  -7    4.19    1.37
   0   9   7    3.58    1.20
   0   9  -7    3.21    1.37
   0  -9  -9    3.75    1.33
   0  -9   9    4.88    1.60
   0  -9   9    5.58    1.07
   0  -9  -9    6.30    1.83
   0   9   9    7.34    1.52
   0   9  -9    7.16    1.78
   0  -9 -11   11.98    2.37
   0  -9  11    8.94    0.83
   0  -9  11    6.35    1.91
   0   9 -11   11.25    2.26
   0   9  11    6.30    1.33
   0  -9  13    4.96    1.74
   0  -9 -13    6.73    2.11
   0   9 -13    1.03    1.25
   0   9  13    4.75    1.13
   0  -9 -15    2.15    1.60
   0  -9  15    1.29    1.45
   0   9  15    0.13    0.41
   0   9 -15   -1.13    0.95
   0  -9  17    0.99    1.42
   0  -9 -17    1.84    1.60
   0   9 -17    2.49    1.56
   0 -10   0    4.16    1.35
   0 -10   0    0.56    0.87
   0 -10   0    3.64    1.34
   0  10   0    1.53    1.22
   0 -10   2    1.15    0.76
   0 -10  -2    2.56    1.22
   0 -10  -2    0.35    1.07
   0 -10  -2    2.59    1.11
   0 -10   2    1.36    1.08
   0 -10   2    2.73    1.12
   0  10   2    2.16    1.23
   0 -10  -4    0.45    1.16
   0 -10  -4    0.97    1.10
   0 -10   4   -0.80    0.66
   0 -10   4    0.67    1.03
   0  10   4    0.53    0.90
   0  10  -4   -0.66    0.85
   0 -10   6    0.19    0.69
   0 -10   6   -0.03    0.98
   0 -10  -6    0.16    1.05
   0  10   6   -0.55    0.81
   0  10  -6    0.56    0.97
   0 -10   8    3.25    0.93
   0 -10   8    5.59    1.69
   0 -10  -8    2.28    1.44
   0  10  -8    3.51    1.45
   0  10   8    2.03    1.14
   0 -10 -10   -0.62    1.20
   0 -10  10    1.25    1.22
   0 -10  10    1.47    0.67
   0  10  10    0.56    0.88
   0  10 -10    0.93    1.14
   0 -10  12    2.61    1.64
   0 -10 -12    0.67    1.31
   0  10  12    0.69    0.77
   0  10 -12    1.85    1.44
   0 -10 -14   -1.86    1.24
   0 -10  14   -0.88    1.11
   0  10 -14    1.21    1.27
   0  10  14    0.43    0.66
   0 -11  -1    7.10    1.69
   0 -11   1    9.10    1.87
   0 -11  -1   11.56    2.15
   0  11   1    7.17    1.87
   0 -11  -3    2.62    1.31
   0 -11  -3    4.30    1.57
   0 -11   3    3.75    1.32
   0 -11   3    5.68    1.45
   0  11   3    4.05    1.58
   0 -11  -5    0.64    1.38
   0 -11   5   -0.51    1.02
   0 -11   5    0.37    0.77
   0  11   5    1.49    1.17
   0  11  -5    2.00    1.38
   0 -11  -7    1.45    1.26
   0 -11   7    0.14    0.74
   0 -11   7    1.65    1.35
   0  11  -7    2.10    1.44
   0  11   7    3.72    1.34
   0 -11   9    1.99    0.82
   0 -11  -9    1.61    1.65
   0 -11   9    5.04    1.80
   0  11   9    4.06    1.40
   0  11  -9    4.62    1.66
   0 -11  11    1.99    0.62
   0 -11  11    1.80    1.35
   0 -11 -11    5.78    2.20
   0  11  11    1.01    0.92
   0  11 -11    0.36    1.19
   0 -11 -13   -1.05    1.15
   0 -11  13    0.10    1.49
   0  11 -13    1.01    1.42
   0  11  13    2.42    1.03
   0 -12   0   -0.23    0.96
   0 -12  -2    1.18    1.19
   0 -12   2    1.05    1.15
   0 -12  -2    2.79    1.58
   0  12   2    0.63    1.17
   0 -12  -4   -2.50    1.08
   0 -12   4   -0.26    0.83
   0  12   4    0.98    1.28
   0 -12  -6    0.95    1.46
   0 -12   6   -0.46    0.67
   0 -12   6   -0.50    1.08
   0  12   6    2.79    1.33
   0 -12   8    0.36    1.16
   0 -12  -8   -0.87    1.16
   0 -12   8    0.58    0.76
   0  12   8   -0.54    0.94
   0  12  -8    1.69    1.49
   0 -12 -10    1.81    1.77
   0 -12  10    2.50    1.69
   0 -12  10    2.27    0.89
   0  12 -10    2.77    1.73
   0  12  10    1.34    1.08
   0 -13  -1    2.42    1.40
   0 -13   1    1.66    1.23
   0 -13  -3    1.06    1.30
   0 -13   3    0.68    1.13
   0 -13  -3    0.35    1.47
   0  13   3    3.43    1.59
   0 -13   5    1.63    1.08
   0 -13  -5    0.72    1.55
   0  13   5    1.38    1.36
   0 -13   7   -0.01    0.72
   0 -13   7    2.56    1.50
   0 -13  -7    4.12    1.80
   0  13   7    2.58    1.41
   0 -14   0    1.02    1.32
   0 -14   2    0.50    1.13
   0 -14  -2    0.94    1.19
   0  14   2   -0.95    1.34
  -1   0 -21   -0.79    0.94
  -1   0 -19   -0.67    1.02
  -1   0 -17    0.89    1.04
  -1   0 -15    0.78    0.91
   1   0  15    0.43    0.75
  -1   0 -13   -0.29    0.55
   1   0  13   -0.04    0.59
  -1   0 -11   -0.45    0.42
  -1   0 -11    0.16    0.30
   1   0  11    0.83    0.64
  -1   0 -11    0.25    0.60
   1   0   9    0.43    0.46
  -1   0  -9    0.21    0.51
  -1   0  -9    0.22    0.50
  -1   0  -9    0.02    0.46
  -1   0  -9    0.05    0.26
   1   0   9    0.41    0.50
  -1   0  -7    0.15    0.22
   1   0   7   -0.20    0.33
  -1   0  -7    0.23    0.43
  -1   0  -7   -0.44    0.36
   1   0   7   -0.23    0.18
   1   0   7    0.18    0.44
  -1   0  -7    0.06    0.41
  -1   0  -7    0.10    0.22
   1   0   7    0.23    0.24
   1   0   5    0.04    0.29
  -1   0  -5   -0.08    0.16
  -1   0  -5   -0.18    0.30
   1   0   5   -0.10    0.32
   1   0   5    0.03    0.22
  -1   0  -5    0.10    0.18
  -1   0  -5    0.12    0.19
  -1   0  -5   -0.34    0.27
   1   0   5   -0.13    0.20
   1   0   3    0.11    0.11
  -1   0  -3    0.03    0.17
   1   0   3   -0.03    0.24
   1   0   3    0.04    0.12
  -1   0  -3    0.25    0.20
   1   0   3    0.23    0.22
  -1   0  -3   -0.06    0.24
  -1   0  -3   -0.11    0.18
   1   0   1   -1.24    0.11
  -1   0  -1   -0.74    0.19
   1   0   1   -1.00    0.19
   1   0   1   -1.10    0.14
   1   0   1   -1.22    0.17
  -1   0  -1   -1.08    0.19
  -1   0  -1   -1.14    0.13
  -1   0  -1   -1.16    0.12
   1   0   1   -1.29    0.07
  -1   0   1   -0.04    0.12
   1   0  -1   -0.17    0.09
   1   0  -5   -0.14    0.16
  -1   0   7    0.48    0.41
   1   0  -7   -0.37    0.30
  -1   0   7    0.39    0.39
   1   0  -7   -0.33    0.23
   1   0  -9   -0.48    0.46
  -1   0   9    0.27    0.43
   1   0  -9   -0.11    0.41
  -1   0   9   -0.17    0.36
   1   0  -9    0.06    0.35
   1   0 -11    0.22    0.56
  -1   0  11   -0.45    0.38
   1   0 -11   -0.01    0.41
  -1   0  11    0.16    0.46
   1   0 -11    0.00    0.47
   1   0 -13    0.21    0.59
  -1   0  13    0.38    0.59
   1   0 -13    1.06    0.81
   1   0 -15    0.84    0.86
  -1   0  15    0.21    0.70
   1   0 -17   -0.41    0.73
   1   0 -19   -0.87    0.94
   1   0 -21    1.42    1.23
  -1   1 -22    5.63    2.04
  -1  -1 -20    8.53    2.13
  -1   1 -20    5.68    1.71
  -1  -1 -18    2.51    1.30
  -1   1 -18    3.85    1.51
   1  -1  16   35.96    3.64
  -1  -1 -16   29.57    3.32
  -1   1 -16   28.51    3.27
   1  -1  14   49.54    3.28
  -1  -1 -14   49.72    3.35
  -1  -1 -14   45.35    2.94
   1   1  14   45.92    2.93
  -1   1 -14   41.71    3.10
  -1  -1 -12  106.96    3.95
  -1  -1 -12  110.03    4.86
   1  -1  12  105.53    4.86
  -1  -1 -12   99.80    4.39
  -1   1 -12  109.16    4.86
  -1   1 -12  105.24    3.71
   1   1  12  102.36    4.42
  -1  -1 -10  121.65    5.11
  -1  -1 -10  121.05    4.01
  -1  -1 -10  116.85    4.61
  -1  -1 -10  119.00    4.83
   1  -1  10  114.69    4.90
   1   1  10  116.52    4.78
  -1   1 -10  124.27    3.80
   1   1  10  129.19    4.65
  -1   1 -10  120.42    3.91
  -1   1 -10  118.92    4.08
  -1   1 -10  120.34    4.88
  -1   1 -10  116.46    4.84
   1  -1   8   78.48    3.34
   1  -1   8   80.20    2.29
   1  -1   8   76.81    3.48
  -1  -1  -8   76.67    3.55
  -1  -1  -8   76.42    3.28
  -1  -1  -8   80.49    2.78
   1  -1   8   81.67    2.29
  -1   1  -8   78.45    2.55
   1   1   8   82.25    2.52
  -1   1  -8   76.93    2.54
  -1   1  -8   83.41    3.50
   1   1   8   84.41    3.51
  -1   1  -8   81.91    2.64
  -1   1  -8   77.18    2.81
   1   1   8   80.40    3.25
   1   1   8   80.64    2.55
  -1   1  -8   78.46    3.44
  -1  -1  -6  111.45    3.53
   1  -1   6  113.82    3.29
  -1  -1  -6  113.00    4.35
   1  -1   6  112.84    3.26
  -1  -1  -6  112.48    3.58
  -1  -1  -6  111.72    3.97
   1  -1   6  110.96    4.17
   1  -1   6  114.94    4.19
   1   1   6  120.14    3.87
   1   1   6  107.18    3.37
  -1   1  -6  116.07    4.06
  -1   1  -6  107.54    3.36
  -1   1  -6  114.43    3.53
   1   1   6  115.08    4.28
  -1   1  -6  106.66    3.38
   1   1   6  118.40    3.46
  -1   1  -6  113.54    4.20
   1  -1   4   38.33    1.77
   1  -1   4   39.40    1.40
  -1  -1  -4   32.49    1.65
   1  -1   4   35.81    1.79
  -1  -1  -4   33.45    1.48
  -1  -1  -4   36.91    1.46
  -1  -1  -4   36.27    1.85
  -1   1  -4   33.28    1.83
   1   1   4   39.09    1.84
  -1   1  -4   37.52    1.67
  -1   1  -4   36.02    1.37
  -1   1  -4   31.18    1.67
  -1   1  -4   35.46    1.33
  -1   1  -4   33.35    1.35
   1   1   4   40.62    1.48
  -1  -1  -2  118.53    3.76
   1  -1   2  122.35    3.51
   1  -1   2  116.81    3.62
   1  -1   2  114.11    3.91
   1  -1   2  113.56    3.90
  -1  -1  -2  117.29    4.01
   1  -1   2  120.28    3.33
   1  -1   2  116.84    3.47
  -1  -1  -2  114.82    3.61
  -1   1  -2  119.43    3.57
  -1   1  -2  117.60    3.94
   1   1   2  119.39    3.56
   1   1   2  117.92    3.38
   1   1   2  118.33    4.01
   1   1   2  117.29    3.73
  -1   1  -2  117.20    3.91
  -1   1  -2  112.30    3.67
   1  -1   0  512.30   14.45
  -1  -1   0  498.74   12.62
  -1  -1   0  500.68   14.69
   1  -1   0  512.72   13.83
  -1  -1   0  510.57   14.73
  -1  -1   0  507.66   14.03
   1   1   0  503.84   13.78
   1   1   0  507.52   14.50
  -1   1   0  491.16   12.63
  -1   1   0  509.39   14.44
  -1  -1   2  650.97   18.70
  -1   1   2  660.95   16.26
   1  -1  -4    4.76    0.68
  -1  -1   4    4.71    0.71
   1   1  -4    4.74    0.63
   1   1  -4    5.68    0.42
  -1   1   4    2.43    0.57
   1  -1  -6   31.50    1.66
  -1  -1   6   27.36    1.64
  -1   1   6   29.23    1.61
   1   1  -6   31.01    1.64
   1   1  -6   29.90    1.32
  -1  -1   8   53.80    2.29
   1  -1  -8   59.56    2.54
  -1  -1   8   55.70    2.74
   1  -1  -8   59.31    2.67
   1   1  -8   61.01    2.34
   1   1  -8   57.76    2.69
   1   1  -8   57.10    2.36
  -1   1   8   52.70    2.58
  -1   1   8   57.06    2.37
   1  -1 -10  158.51    5.72
  -1  -1  10  163.86    5.32
  -1  -1  10  160.67    5.96
   1  -1 -10  167.25    5.86
   1   1 -10  159.40    5.30
   1   1 -10  159.09    5.84
  -1   1  10  164.51    5.50
  -1   1  10  166.27    5.76
   1   1 -10  160.16    5.64
  -1  -1  12   64.15    3.39
  -1  -1  12   60.96    2.82
   1  -1 -12   60.88    3.18
   1   1 -12   60.90    3.35
   1   1 -12   64.63    2.99
  -1   1  12   60.23    2.97
   1   1 -12   57.16    2.78
  -1  -1  14  110.16    5.02
   1  -1 -14  106.93    4.69
   1  -1 -14   95.13    4.83
   1   1 -14  102.31    4.96
  -1   1  14  101.65    4.43
  -1  -1  16   28.51    3.09
   1  -1 -16   39.15    3.09
   1   1 -16   40.03    3.74
   1  -1 -18    5.30    1.70
   1   1 -18    7.40    1.84
   1  -1 -20   11.02    2.33
   1   1 -20    7.66    1.91
   1  -1 -22    8.61    2.21
   1   1 -22    9.99    2.34
  -1  -2 -21    1.82    1.36
  -1   2 -21    2.83    1.54
   1  -2  19    0.58    1.19
  -1  -2 -19   -0.02    0.94
  -1   2 -19    2.62    1.28
  -1  -2 -17    4.95    1.57
   1  -2  17    4.45    1.52
  -1   2 -17    5.10    1.69
  -1  -2 -15    7.65    1.71
  -1  -2 -15    6.19    1.48
   1  -2  15    7.83    1.78
  -1   2 -15    5.30    1.49
  -1  -2 -13    0.19    0.87
   1  -2  13    1.28    0.94
  -1  -2 -13    1.32    0.85
  -1   2 -13    0.43    0.74
   1  -2  11    2.30    0.98
  -1  -2 -11    0.79    0.78
  -1   2 -11    1.69    0.45
  -1   2 -11    2.02    0.91
   1   2  11    1.69    0.69
  -1  -2  -9   -0.07    0.39
  -1  -2  -9   -0.03    0.53
   1  -2   9   -0.33    0.46
  -1  -2  -9   -0.49    0.57
   1  -2   9    0.02    0.45
  -1   2  -9    0.04    0.25
   1   2   9    0.10    0.26
  -1   2  -9    0.19    0.44
  -1   2  -9   -0.06    0.25
  -1   2  -9   -0.43    0.52
   1   2   9    0.05    0.28
   1   2   9    0.42    0.43
  -1  -2  -7  161.18    5.52
  -1  -2  -7  161.31    5.05
   1  -2   7  144.75    5.54
   1  -2   7  156.16    4.37
   1  -2   7  155.17    5.56
   1  -2   7  156.05    4.41
  -1  -2  -7  159.17    5.93
   1   2   7  152.28    4.67
  -1   2  -7  155.22    5.36
  -1   2  -7  157.33    4.90
  -1   2  -7  155.88    5.67
  -1   2  -7  157.92    5.96
   1   2   7  147.26    4.88
   1   2   7  151.91    4.60
  -1   2  -7  158.60    4.72
   1  -2   5   17.12    1.20
  -1  -2  -5   17.03    1.38
   1  -2   5   17.34    1.33
  -1  -2  -5   15.88    1.36
   1  -2   5   15.22    0.89
  -1  -2  -5   16.58    1.08
   1   2   5   15.62    1.30
  -1   2  -5   17.31    0.91
  -1   2  -5   16.65    1.23
  -1   2  -5   15.35    0.87
  -1   2  -5   15.78    1.31
   1   2   5   13.38    0.99
  -1   2  -5   16.54    0.95
  -1   2  -5   15.11    1.19
   1  -2   3  219.03    6.64
   1  -2   3  216.65    5.90
  -1  -2  -3  223.76    7.19
   1  -2   3  214.47    6.93
   1  -2   3  211.14    6.12
  -1  -2  -3  220.20    6.79
   1  -2   3  221.17    6.96
  -1  -2  -3  215.13    6.52
   1  -2   3  214.45    6.09
  -1   2  -3  214.56    6.59
  -1   2  -3  204.81    6.35
   1   2   3  217.43    6.37
  -1   2  -3  212.16    6.27
   1   2   3  212.81    6.04
  -1   2  -3  208.42    6.89
   1  -2   1    2.45    0.55
  -1  -2  -1    1.07    0.39
  -1  -2  -1    1.51    0.42
   1  -2   1    2.10    0.45
   1  -2   1    2.00    0.41
  -1  -2  -1    1.67    0.52
  -1  -2  -1    0.81    0.36
   1   2   1    1.65    0.39
  -1   2  -1    1.70    0.42
   1   2   1    1.68    0.42
   1   2   1    1.30    0.40
  -1   2  -1    1.05    0.37
  -1   2  -1    1.45    0.50
  -1   2  -1    1.56    0.46
  -1  -2   1  369.77   10.09
   1  -2  -1  369.32   10.95
   1  -2  -1  369.35    9.56
  -1  -2   1  376.43   10.38
  -1  -2   1  362.88   10.59
   1  -2  -1  369.03   10.33
  -1  -2   1  373.29    9.46
   1   2  -1  360.05   10.21
  -1   2   1  370.49    9.53
  -1   2   1  355.06   10.28
   1   2  -1  370.63   10.72
  -1   2   1  354.56   10.91
   1   2  -1  362.88   10.37
   1  -2  -3  238.91    6.99
  -1  -2   3  234.43    6.03
  -1  -2   3  242.33    6.04
   1  -2  -3  236.77    6.72
  -1  -2   3  239.11    7.12
  -1   2   3  241.42    6.34
   1   2  -3  231.87    7.10
  -1   2   3  234.23    6.97
  -1  -2   5   29.28    1.67
  -1  -2   5   27.21    1.22
   1  -2  -5   27.41    1.61
   1   2  -5   28.33    1.46
  -1   2   5   25.56    0.97
  -1   2   5   24.09    1.54
  -1   2   5   26.53    0.97
  -1  -2   7   41.15    2.29
   1  -2  -7   38.38    2.21
   1   2  -7   40.76    1.88
   1   2  -7   40.87    2.10
  -1   2   7   40.35    2.20
   1  -2  -9   24.92    1.76
  -1  -2   9   26.02    1.39
   1  -2  -9   27.20    1.91
  -1  -2   9   27.39    2.03
   1   2  -9   24.85    1.37
   1   2  -9   26.61    1.86
   1   2  -9   28.92    1.61
  -1   2   9   23.84    1.81
  -1   2   9   24.80    1.37
  -1  -2  11    7.90    1.38
   1  -2 -11    7.28    1.33
   1  -2 -11    7.27    1.20
  -1  -2  11    7.00    0.93
  -1   2  11    8.39    1.05
   1   2 -11    6.94    1.00
   1   2 -11    9.12    1.47
   1   2 -11    7.22    0.91
  -1  -2  13    2.14    0.95
   1  -2 -13   -0.05    0.67
   1   2 -13    0.23    0.73
   1  -2 -15    4.04    1.38
  -1  -2  15    3.07    1.23
   1  -2 -15    4.41    1.25
   1   2 -15    6.80    1.54
  -1  -2  17   11.08    2.11
   1  -2 -17   10.10    1.94
   1  -2 -17    7.95    1.81
   1   2 -17    6.54    1.73
   1  -2 -19    2.44    1.45
  -1  -2  19    5.18    1.67
   1   2 -19    4.61    1.68
   1  -2 -21    3.80    1.68
   1   2 -21    1.13    1.34
  -1  -3 -20    5.35    1.80
   1  -3  20   12.10    2.64
  -1   3 -20   11.30    2.47
  -1  -3 -18   13.80    2.44
   1  -3  18   17.97    2.85
  -1   3 -18   17.21    2.79
  -1  -3 -16   11.55    2.12
   1  -3  16   22.02    3.05
  -1  -3 -16   14.49    2.18
  -1   3 -16   15.56    2.39
  -1  -3 -14   20.45    2.56
   1  -3  14   25.55    3.06
  -1   3 -14   20.78    2.66
   1  -3  12   13.02    2.16
  -1  -3 -12   13.96    2.07
  -1   3 -12   11.46    1.88
   1  -3  10   23.68    2.53
  -1  -3 -10   21.17    2.26
  -1  -3 -10   19.23    1.51
   1   3  10   18.31    1.20
   1   3  10   17.71    1.13
   1   3  10   20.18    1.35
  -1   3 -10   20.51    1.25
  -1   3 -10   23.71    2.37
   1   3  10   19.54    1.21
   1  -3   8  126.37    3.74
  -1  -3  -8  128.45    5.13
   1  -3   8  127.42    5.24
   1  -3   8  129.67    5.00
   1  -3   8  125.05    3.78
  -1  -3  -8  125.33    5.40
  -1  -3  -8  128.28    4.59
  -1   3  -8  128.77    4.94
  -1   3  -8  124.03    5.31
   1   3   8  129.04    4.20
   1   3   8  124.78    4.09
   1   3   8  133.64    4.18
  -1   3  -8  129.24    4.35
  -1   3  -8  124.71    4.18
  -1  -3  -6  230.80    8.27
   1  -3   6  229.08    6.54
  -1  -3  -6  236.59    7.39
   1  -3   6  235.38    6.53
  -1  -3  -6  228.57    6.97
  -1  -3  -6  231.14    7.67
   1  -3   6  231.09    7.89
   1  -3   6  240.43    7.88
   1   3   6  237.30    6.86
  -1   3  -6  234.75    7.34
  -1   3  -6  236.96    8.11
  -1   3  -6  234.37    7.38
  -1  -3  -4    1.41    0.63
   1  -3   4    2.45    0.71
   1  -3   4    1.76    0.24
  -1  -3  -4    2.65    0.64
   1  -3   4    1.99    0.63
   1  -3   4    1.81    0.25
   1  -3   4    1.38    0.57
   1  -3   4    2.01    0.28
   1  -3   4    1.94    0.46
  -1  -3  -4    2.50    0.72
   1  -3   4    1.72    0.24
  -1  -3  -4    1.55    0.55
   1   3   4    1.83    0.46
   1   3   4    1.23    0.49
  -1   3  -4    1.82    0.60
  -1   3  -4    1.31    0.59
  -1  -3  -2   78.25    3.45
   1  -3   2   79.01    2.78
  -1  -3  -2   79.96    3.08
  -1  -3  -2   82.02    3.13
   1  -3   2   77.85    2.84
  -1  -3  -2   77.70    2.85
  -1  -3  -2   81.20    3.04
   1  -3   2   76.85    3.21
   1  -3   2   77.43    3.02
  -1   3  -2   81.64    3.22
  -1   3  -2   81.01    3.02
  -1   3  -2   82.69    2.89
   1   3   2   77.47    2.93
   1   3   2   81.22    2.91
  -1   3  -2   80.42    2.96
   1  -3   0   54.44    2.42
  -1  -3   0   48.29    2.14
   1  -3   0   53.91    2.09
  -1  -3   0   49.70    2.07
  -1  -3   0   50.47    2.12
   1  -3   0   55.22    2.20
  -1  -3   0   53.35    2.08
  -1  -3   0   50.56    2.02
  -1   3   0   53.14    2.12
   1   3   0   54.09    2.15
  -1   3   0   48.87    2.32
  -1   3   0   52.25    2.16
  -1   3   0   47.56    2.20
   1   3   0   58.07    2.16
  -1  -3   2   15.89    0.93
  -1  -3   2   14.45    0.66
   1  -3  -2   13.73    1.11
   1  -3  -2   13.02    1.13
  -1  -3   2   16.39    0.68
   1  -3  -2   12.92    0.98
  -1  -3   2   14.41    0.89
   1  -3  -2   12.37    0.96
  -1  -3   2   13.73    1.06
  -1   3   2   16.27    1.20
   1   3  -2   12.82    0.86
   1   3  -2    9.99    0.81
   1   3  -2   14.27    0.99
  -1   3   2   15.16    1.03
   1   3  -2   11.87    0.84
  -1   3   2   17.36    1.19
  -1   3   2   14.20    0.91
  -1  -3   4   63.73    2.04
  -1  -3   4   60.92    2.79
   1  -3  -4   63.74    2.39
  -1  -3   4   61.32    2.01
   1  -3  -4   63.57    2.77
   1   3  -4   63.77    2.07
   1   3  -4   61.79    2.49
   1   3  -4   64.79    2.53
   1   3  -4   63.43    2.06
   1   3  -4   64.28    2.00
  -1   3   4   61.87    2.74
  -1   3   4   60.43    2.29
   1  -3  -6   65.24    2.32
   1  -3  -6   67.24    3.03
  -1  -3   6   63.90    2.59
  -1  -3   6   64.14    3.06
  -1   3   6   59.05    2.16
   1   3  -6   69.20    2.93
   1   3  -6   68.61    2.82
  -1   3   6   60.34    2.22
  -1   3   6   67.72    3.04
   1  -3  -8   85.93    3.86
  -1  -3   8   83.29    3.90
   1  -3  -8   86.06    2.82
   1   3  -8   87.61    3.86
   1   3  -8   87.73    3.66
  -1   3   8   86.46    2.42
  -1   3   8   84.74    2.40
   1  -3 -10   13.94    1.86
  -1  -3  10   21.24    2.35
   1  -3 -10   15.29    1.80
   1   3 -10   14.51    1.76
   1  -3 -12    8.88    1.60
  -1  -3  12   10.80    1.82
   1   3 -12   10.10    1.61
   1  -3 -14   19.82    2.50
  -1  -3  14   19.39    2.61
   1   3 -14   17.10    2.21
  -1  -3  16   36.61    3.84
   1  -3 -16   28.43    3.15
   1   3 -16   33.29    3.37
  -1  -3  18    9.10    2.21
   1  -3 -18   10.87    2.20
   1  -3 -18    7.38    1.94
   1   3 -18   14.71    2.45
  -1  -3  20    7.50    2.12
   1  -3 -20    4.75    1.79
   1   3 -20    6.26    1.80
   1  -3 -22    5.56    1.85
   1   3 -22    8.63    2.26
   1  -4  21    7.22    2.23
  -1  -4 -21    4.07    1.75
  -1   4 -21    4.28    1.80
   1  -4  19    1.60    1.42
  -1  -4 -19    0.00    0.79
  -1   4 -19    1.19    1.41
  -1  -4 -17    7.24    1.83
   1  -4  17    9.10    2.21
  -1  -4 -17   10.78    2.16
  -1   4 -17    8.13    1.94
   1  -4  15    5.49    1.65
  -1  -4 -15    5.40    1.72
  -1   4 -15    4.77    1.40
   1  -4  13    5.88    1.66
  -1  -4 -13    4.95    1.57
  -1   4 -13    4.45    1.35
   1  -4  11    3.36    1.24
  -1  -4 -11    3.74    1.26
   1   4  11    4.52    0.79
  -1   4 -11    3.54    1.11
   1  -4   9   18.30    1.01
   1  -4   9   16.19    2.15
  -1  -4  -9   16.79    1.69
   1  -4   9   17.81    1.03
  -1  -4  -9   18.73    2.18
  -1   4  -9   18.87    1.34
  -1   4  -9   18.19    2.11
   1   4   9   16.86    1.54
   1  -4   7   31.97    1.61
  -1  -4  -7   35.72    2.10
   1  -4   7   34.30    1.69
  -1  -4  -7   31.82    2.40
  -1  -4  -7   37.48    2.54
   1  -4   7   39.03    2.27
   1  -4   7   30.30    2.30
  -1  -4  -7   34.33    2.05
  -1   4  -7   34.39    1.80
  -1   4  -7   35.60    2.38
  -1   4  -7   29.86    2.13
   1   4   7   35.21    1.95
   1  -4   5   33.71    2.10
  -1  -4  -5   35.71    2.30
   1  -4   5   34.70    2.25
   1  -4   5   33.94    1.70
  -1  -4  -5   37.32    2.51
  -1  -4  -5   32.45    1.96
   1  -4   5   30.73    2.12
  -1  -4  -5   32.41    1.91
  -1   4  -5   32.96    2.04
  -1   4  -5   33.26    1.90
   1   4   5   33.26    1.68
  -1   4  -5   35.38    2.21
   1   4   5   35.60    1.96
   1  -4   3   52.15    2.69
  -1  -4  -3   54.03    2.74
  -1  -4  -3   53.14    2.42
  -1  -4  -3   49.82    2.89
  -1  -4  -3   50.58    2.52
   1  -4   3   58.45    2.24
   1  -4   3   55.95    2.66
  -1  -4  -3   53.12    2.49
   1  -4   3   52.87    2.27
   1  -4   3   56.88    2.23
  -1   4  -3   51.00    2.39
   1   4   3   55.78    2.43
   1   4   3   54.79    2.47
  -1   4  -3   51.97    2.53
  -1   4  -3   52.27    2.63
   1  -4   1   62.54    3.05
   1  -4   1   71.66    2.82
  -1  -4  -1   71.78    2.98
   1  -4   1   76.69    2.93
   1  -4   1   72.56    2.74
  -1  -4  -1   69.53    2.88
   1  -4   1   73.80    2.93
  -1  -4  -1   69.21    2.63
  -1  -4  -1   70.04    3.03
  -1  -4  -1   70.94    2.94
  -1  -4  -1   72.84    2.86
  -1   4  -1   74.21    3.07
   1   4   1   69.80    2.87
  -1   4  -1   72.86    3.14
  -1   4  -1   73.03    2.90
   1   4   1   78.22    3.08
  -1  -4   1   41.60    1.90
   1  -4  -1   42.26    2.08
  -1  -4   1   39.17    2.02
  -1  -4   1   39.54    1.91
  -1  -4   1   41.90    1.89
   1  -4  -1   42.50    1.83
   1  -4  -1   43.47    2.10
  -1  -4   1   41.14    1.98
   1  -4  -1   41.80    2.27
   1  -4  -1   40.46    2.02
  -1  -4   1   43.93    2.07
  -1   4   1   41.68    2.04
   1   4  -1   45.37    2.10
  -1   4   1   41.90    2.01
   1   4  -1   44.69    1.94
   1   4  -1   44.84    2.07
  -1   4   1   41.97    2.23
   1  -4  -3    2.86    0.70
   1  -4  -3    3.92    0.84
  -1  -4   3    5.71    0.77
  -1  -4   3    3.31    0.63
  -1  -4   3    3.75    0.67
  -1  -4   3    4.22    0.86
   1  -4  -3    5.39    0.94
   1  -4  -3    3.96    0.77
   1   4  -3    4.32    0.81
   1   4  -3    4.70    0.90
   1   4  -3    4.13    0.69
   1   4  -3    3.92    0.65
  -1   4   3    5.47    0.84
  -1   4   3    4.09    0.66
  -1  -4   5   16.52    0.98
  -1  -4   5   16.70    1.78
   1  -4  -5   14.99    1.40
  -1  -4   5   14.66    0.92
   1  -4  -5   11.73    1.49
   1  -4  -5   14.10    1.23
   1   4  -5   17.32    1.59
   1   4  -5   15.80    1.30
  -1   4   5   16.37    1.22
   1   4  -5   15.08    0.97
   1  -4  -7  136.37    5.46
  -1  -4   7  139.64    5.04
   1  -4  -7  144.14    4.82
  -1  -4   7  139.87    5.57
  -1   4   7  136.10    4.32
   1   4  -7  136.56    4.36
  -1   4   7  143.98    4.44
   1   4  -7  143.35    5.11
   1   4  -7  143.84    4.36
   1   4  -7  140.51    5.33
   1  -4  -9    9.93    1.07
  -1  -4   9   11.01    1.71
   1  -4  -9    9.35    1.62
  -1   4   9    9.37    0.73
   1   4  -9   11.71    1.59
   1   4  -9   10.31    1.47
  -1   4   9   10.05    0.73
   1  -4 -11    2.36    1.14
  -1  -4  11    3.63    1.23
   1   4 -11    4.54    1.17
   1  -4 -13    2.35    1.27
  -1  -4  13    2.40    1.13
   1   4 -13    2.55    1.07
  -1  -4  15    9.99    2.00
   1  -4 -15    7.59    1.77
   1   4 -15    6.91    1.75
   1  -4 -17    1.70    1.29
  -1  -4  17    1.07    1.01
   1   4 -17    0.03    1.05
  -1  -4  19   16.24    2.92
   1  -4 -19    9.21    2.11
   1  -4 -19   12.73    2.54
   1   4 -19    9.60    2.25
  -1  -4  21    1.15    1.27
   1  -4 -21    1.37    1.32
   1   4 -21    1.40    1.47
  -1  -5 -20    2.70    1.63
   1  -5  20    4.29    1.95
  -1   5 -20    4.74    1.92
   1  -5  18   10.90    2.41
  -1  -5 -18    8.95    2.24
  -1   5 -18    7.66    2.15
  -1  -5 -16    5.69    1.79
   1  -5  16    5.87    1.87
  -1   5 -16    9.02    2.01
  -1  -5 -14    5.78    1.75
   1  -5  14    6.38    1.77
  -1   5 -14    8.10    1.79
  -1  -5 -12    6.96    1.83
   1  -5  12    6.17    1.68
  -1   5 -12    4.78    1.42
   1   5  12    8.79    1.11
  -1  -5 -10   16.50    2.34
   1  -5  10   15.73    2.35
  -1  -5 -10   13.52    1.78
   1  -5  10   13.51    0.86
   1   5  10   16.23    1.65
  -1   5 -10   12.20    1.88
   1   5  10   10.67    1.35
  -1  -5  -8   22.67    1.89
  -1  -5  -8   21.31    2.36
   1  -5   8   24.95    2.61
   1  -5   8   24.32    1.44
   1   5   8   22.37    1.71
  -1   5  -8   24.42    2.36
  -1  -5  -6   83.67    4.09
  -1  -5  -6   88.81    4.45
   1  -5   6   79.38    3.11
   1  -5   6   72.15    3.74
   1  -5   6   87.21    4.04
  -1  -5  -6   85.75    3.71
   1  -5   6   83.67    4.02
  -1  -5  -6   84.92    3.59
   1   5   6   80.32    3.42
   1   5   6   80.55    3.05
  -1   5  -6   75.30    3.66
  -1   5  -6   83.46    3.97
  -1   5  -6   74.92    3.41
  -1  -5  -4   47.73    2.60
  -1  -5  -4   54.04    2.66
   1  -5   4   46.14    2.29
   1  -5   4   43.41    1.97
  -1  -5  -4   44.72    2.74
  -1  -5  -4   49.70    2.54
   1  -5   4   46.50    1.99
   1  -5   4   52.03    2.79
  -1   5  -4   49.83    2.74
   1   5   4   45.76    2.46
  -1   5  -4   44.52    2.56
   1   5   4   52.66    2.44
  -1   5  -4   45.58    2.45
  -1  -5  -2  106.92    4.41
  -1  -5  -2  105.91    4.33
   1  -5   2  111.44    4.31
   1  -5   2  110.20    4.06
  -1  -5  -2  110.77    4.32
  -1  -5  -2  110.98    3.78
   1  -5   2  113.14    4.11
  -1  -5  -2  111.17    4.14
  -1  -5  -2  106.32    4.27
   1  -5   2  119.79    3.92
  -1   5  -2  100.97    4.06
   1   5   2  109.03    3.78
  -1   5  -2  115.46    4.40
   1   5   2  109.52    4.19
  -1   5  -2  107.67    4.46
  -1  -5   0   48.65    2.29
   1  -5   0   43.62    2.31
  -1  -5   0   43.72    2.43
   1  -5   0   43.62    2.36
  -1  -5   0   52.96    2.47
  -1  -5   0   50.57    2.37
  -1  -5   0   46.49    2.33
   1  -5   0   46.65    2.28
   1  -5   0   47.69    2.40
  -1  -5   0   46.59    2.33
  -1   5   0   47.49    2.42
   1   5   0   44.25    2.40
  -1   5   0   50.48    2.64
   1   5   0   45.59    2.25
  -1  -5   2   45.17    1.95
  -1  -5   2   44.39    2.36
   1  -5  -2   36.93    2.24
  -1  -5   2   39.90    2.11
  -1  -5   2   42.09    2.11
   1  -5  -2   43.50    2.53
   1  -5  -2   43.04    2.29
  -1  -5   2   42.81    1.94
   1  -5  -2   43.65    1.91
   1  -5  -2   41.82    2.39
  -1  -5   2   38.50    2.09
   1   5  -2   41.96    2.09
  -1   5   2   43.83    2.30
  -1   5   2   47.44    2.25
   1   5  -2   42.64    2.30
  -1   5   2   43.56    2.48
   1   5  -2   37.76    2.20
  -1  -5   4   24.58    1.51
  -1  -5   4   24.50    1.65
   1  -5  -4   28.55    2.08
   1  -5  -4   29.45    2.07
   1  -5  -4   26.00    1.80
   1  -5  -4   31.09    1.94
  -1  -5   4   27.89    1.59
  -1  -5   4   33.99    2.16
   1   5  -4   28.29    1.79
   1   5  -4   28.40    1.83
  -1   5   4   27.31    1.54
  -1   5   4   27.05    1.78
   1   5  -4   26.45    1.70
  -1  -5   6  109.54    3.56
   1  -5  -6  107.69    4.65
   1  -5  -6  107.98    4.12
   1  -5  -6  108.18    4.22
  -1  -5   6  103.96    3.46
   1  -5  -6  108.19    4.85
  -1  -5   6  100.61    4.65
  -1  -5   6  105.46    3.44
   1   5  -6  108.95    4.33
   1   5  -6  105.68    4.25
  -1   5   6  107.22    3.95
   1  -5  -8   53.97    2.69
   1  -5  -8   54.26    3.28
  -1  -5   8   49.15    3.18
   1   5  -8   52.68    2.37
   1   5  -8   54.50    2.28
  -1   5   8   53.75    2.41
   1   5  -8   50.61    2.85
   1   5  -8   56.07    2.99
   1  -5 -10   14.37    2.07
  -1  -5  10   16.39    2.30
   1   5 -10   16.94    1.10
   1   5 -10   19.71    2.21
  -1   5  10   15.37    1.09
  -1  -5  12    9.76    1.94
   1  -5 -12   10.26    1.97
   1   5 -12    9.35    1.71
  -1  -5  14   12.59    2.36
   1  -5 -14    7.54    1.86
   1   5 -14   10.16    1.93
   1  -5 -16    6.13    1.86
  -1  -5  16   12.91    2.53
   1   5 -16    9.00    1.90
   1  -5 -18   11.35    2.38
  -1  -5  18    4.98    1.70
   1   5 -18    8.35    1.99
  -1  -5  20    7.08    2.29
   1  -5 -20    3.94    1.81
   1   5 -20    7.31    2.00
  -1  -6 -19    4.94    1.89
   1  -6  19    5.03    1.99
  -1   6 -19    6.03    1.92
  -1  -6 -17   10.01    2.27
   1  -6  17    8.84    2.25
  -1   6 -17    4.78    1.79
  -1  -6 -15   14.31    2.58
   1  -6  15   15.06    2.69
  -1   6 -15   13.40    2.39
   1  -6  13   -0.30    0.98
  -1  -6 -13    1.36    1.37
   1   6  13    0.90    0.58
  -1   6 -13    0.98    1.11
  -1  -6 -11    4.36    1.61
   1  -6  11    7.27    0.57
   1  -6  11    7.51    1.80
  -1   6 -11    8.27    1.77
   1   6  11    8.88    1.32
  -1  -6  -9   16.45    1.92
   1  -6   9   14.52    2.23
   1  -6   9   16.09    1.42
  -1  -6  -9   18.46    2.53
   1   6   9   14.99    1.72
  -1   6  -9   12.57    1.90
   1   6   9   19.70    1.99
   1  -6   7   36.07    2.80
  -1  -6  -7   29.22    2.94
  -1  -6  -7   34.66    2.42
   1  -6   7   36.39    1.99
   1  -6   7   39.60    2.71
  -1   6  -7   35.43    2.55
   1   6   7   34.31    2.29
   1  -6   5   22.19    1.65
   1  -6   5   23.57    1.05
  -1  -6  -5   23.72    1.95
   1  -6   5   23.67    2.38
  -1  -6  -5   24.79    2.29
  -1  -6  -5   18.67    1.72
   1  -6   5   21.79    1.03
   1  -6   5   21.02    1.01
  -1  -6  -5   23.31    2.48
   1  -6   5   21.80    1.02
   1   6   5   21.62    2.14
  -1   6  -5   19.39    2.17
   1   6   5   22.21    1.65
  -1   6  -5   25.33    1.92
  -1   6  -5   23.31    1.95
   1  -6   3   51.01    2.46
  -1  -6  -3   49.94    2.79
   1  -6   3   49.20    2.58
  -1  -6  -3   58.38    2.94
   1  -6   3   47.01    2.32
  -1  -6  -3   51.55    3.07
  -1  -6  -3   52.50    2.87
   1  -6   3   52.68    2.48
   1  -6   3   49.55    2.84
  -1  -6  -3   55.73    2.30
  -1  -6  -3   58.70    2.89
   1   6   3   52.59    2.79
  -1   6  -3   50.01    2.78
  -1   6  -3   49.65    2.88
  -1   6  -3   54.51    2.96
   1   6   3   54.03    2.27
  -1  -6  -1   13.55    1.61
  -1  -6  -1   13.07    1.64
  -1  -6  -1   12.33    1.45
  -1  -6  -1   14.63    1.44
   1  -6   1   13.34    1.57
   1  -6   1   12.53    1.44
  -1  -6  -1   15.79    1.39
  -1  -6  -1   11.76    1.39
   1  -6   1   13.44    1.63
   1  -6   1   13.15    1.46
  -1   6  -1   11.90    1.65
  -1   6  -1   10.93    1.51
   1   6   1   10.53    1.47
  -1   6  -1   16.62    1.80
   1  -6  -1    8.73    1.32
  -1  -6   1   11.67    1.30
   1  -6  -1   11.12    1.54
  -1  -6   1   13.32    1.39
  -1  -6   1    9.59    1.32
  -1  -6   1    8.74    1.29
  -1  -6   1   11.49    1.45
   1  -6  -1   14.97    1.43
   1  -6  -1   12.45    1.54
  -1  -6   1    8.62    1.21
  -1   6   1    9.74    1.36
   1   6  -1   12.01    1.54
   1   6  -1   10.20    1.22
  -1   6   1   12.75    1.59
   1  -6  -3   11.96    1.65
   1  -6  -3    9.40    1.38
   1  -6  -3   12.35    1.68
  -1  -6   3   10.28    0.95
  -1  -6   3    9.89    0.82
  -1  -6   3   10.00    1.26
  -1  -6   3    9.82    1.26
  -1  -6   3   11.90    1.65
   1  -6  -3   12.98    0.99
  -1  -6   3   11.91    1.39
   1  -6  -3   13.67    1.66
   1   6  -3   13.19    1.65
   1   6  -3    9.84    1.23
  -1   6   3    8.09    1.26
   1   6  -3   13.77    1.65
  -1   6   3    8.94    1.16
  -1  -6   5   63.35    3.11
  -1  -6   5   66.28    3.53
   1  -6  -5   72.53    3.73
   1  -6  -5   58.27    3.40
   1  -6  -5   65.15    3.19
   1  -6  -5   65.89    3.26
  -1  -6   5   63.47    2.74
  -1  -6   5   67.75    2.75
  -1   6   5   65.34    3.09
  -1   6   5   62.23    2.63
   1   6  -5   65.09    3.23
   1   6  -5   63.88    3.11
  -1  -6   7   45.52    3.00
  -1  -6   7   39.15    1.80
   1  -6  -7   37.04    2.76
   1  -6  -7   39.85    2.50
   1  -6  -7   35.81    2.80
   1   6  -7   36.48    2.50
   1   6  -7   38.46    2.42
  -1   6   7   38.27    2.26
   1  -6  -9   36.04    2.92
   1  -6  -9   33.43    2.37
  -1  -6   9   34.58    2.83
  -1   6   9   38.24    2.12
   1   6  -9   31.60    2.43
   1  -6 -11    6.41    1.74
  -1  -6  11    5.58    1.60
   1   6 -11    6.42    1.56
  -1   6  11    6.59    0.92
   1  -6 -13   16.54    2.67
  -1  -6  13   12.46    2.35
   1   6 -13   14.56    2.27
  -1  -6  15    2.77    1.44
   1  -6 -15    3.12    1.66
   1   6 -15    3.98    1.42
  -1  -6  17   11.25    2.45
   1  -6 -17    8.47    2.20
   1   6 -17    6.65    1.78
   1  -6 -19    4.74    1.88
  -1  -6  19    0.84    1.07
   1   6 -19    3.40    1.69
  -1  -7 -18    5.51    2.10
   1  -7  18    2.81    1.64
  -1   7 -18    4.08    1.80
  -1  -7 -16    0.82    1.46
   1  -7  16    3.66    1.68
  -1   7 -16    1.40    1.21
   1  -7  14    2.80    1.53
  -1  -7 -14    5.52    1.98
   1   7  14    4.38    0.85
  -1   7 -14    3.37    1.40
   1  -7  12    7.83    1.89
  -1  -7 -12    6.25    1.78
  -1   7 -12    6.47    1.71
   1   7  12    5.15    1.09
  -1  -7 -10    7.69    1.63
   1  -7  10    4.71    1.48
   1  -7  10    9.20    1.08
  -1  -7 -10   10.09    2.03
  -1   7 -10   10.94    2.03
   1   7  10    9.38    1.51
  -1  -7  -8   11.07    1.78
  -1  -7  -8    9.02    1.85
   1  -7   8   10.62    1.97
   1  -7   8   10.10    1.31
  -1   7  -8   10.70    1.88
   1   7   8   11.75    1.72
   1   7   8   11.17    1.66
   1  -7   6   13.56    1.60
  -1  -7  -6   10.58    1.61
  -1  -7  -6   18.95    2.20
  -1  -7  -6   16.34    2.00
   1  -7   6   19.72    2.40
  -1  -7  -6   15.90    2.25
   1  -7   6   11.35    1.74
   1   7   6   17.70    2.07
   1   7   6   17.65    2.02
  -1   7  -6   14.95    2.08
   1  -7   4   11.27    1.52
   1  -7   4   10.46    1.16
  -1  -7  -4   10.15    1.57
   1  -7   4   12.51    1.35
   1  -7   4   10.83    1.69
   1  -7   4   10.22    1.61
   1  -7   4    8.81    1.01
  -1  -7  -4    8.11    1.40
  -1  -7  -4   10.02    1.78
  -1  -7  -4    8.48    1.46
  -1   7  -4    8.56    1.58
   1   7   4   10.66    1.63
  -1   7  -4   11.58    1.74
  -1  -7  -2   16.00    2.10
   1  -7   2   16.14    1.89
   1  -7   2   14.66    1.89
  -1  -7  -2   14.78    1.73
  -1  -7  -2   15.57    1.51
  -1  -7  -2   16.74    1.95
   1  -7   2   15.38    1.63
   1  -7   2   16.05    1.68
   1  -7   2   16.58    1.71
  -1  -7  -2   15.65    1.80
  -1  -7  -2   17.12    1.87
   1  -7   2   15.10    1.79
  -1   7  -2   15.72    1.92
  -1   7  -2   14.68    1.93
   1   7   2   14.53    1.48
  -1   7  -2   14.47    1.95
   1   7   2   14.79    1.83
  -1  -7   0   12.22    1.63
  -1  -7   0   11.08    1.40
   1  -7   0   14.72    1.62
  -1  -7   0   14.02    1.66
  -1  -7   0   10.12    1.36
   1  -7   0   11.55    1.70
   1  -7   0   12.52    1.63
  -1  -7   0   11.08    1.59
  -1  -7   0   12.95    1.53
   1  -7   0    9.95    1.42
   1  -7   0   11.22    1.52
  -1   7   0   14.02    1.80
   1   7   0   10.61    1.62
  -1   7   0    9.57    1.50
   1  -7  -2   13.91    1.42
  -1  -7   2    9.38    1.43
  -1  -7   2   10.58    1.25
  -1  -7   2   11.61    1.47
  -1  -7   2    9.79    1.17
   1  -7  -2    8.81    1.51
  -1  -7   2   16.41    1.94
  -1  -7   2   14.79    1.71
   1  -7  -2    8.56    1.41
   1  -7  -2    9.85    1.57
   1   7  -2   12.70    1.71
   1   7  -2    9.03    1.50
   1   7  -2   11.04    1.41
  -1   7   2   10.41    1.54
  -1  -7   4   12.36    1.80
   1  -7  -4   16.15    1.98
   1  -7  -4   13.86    1.92
  -1  -7   4   12.82    1.59
   1  -7  -4   11.93    1.93
  -1  -7   4   12.81    1.51
   1  -7  -4   14.52    1.87
  -1  -7   4   10.13    1.37
   1   7  -4   11.49    1.46
   1   7  -4   12.52    1.79
  -1   7   4   10.06    1.51
  -1  -7   6   35.17    2.00
   1  -7  -6   32.16    3.18
   1  -7  -6   34.94    2.53
   1  -7  -6   32.71    2.66
  -1  -7   6   36.37    2.80
  -1  -7   6   33.63    2.31
  -1   7   6   35.10    2.37
   1   7  -6   33.00    2.33
   1   7  -6   31.54    2.47
  -1  -7   8   20.82    1.36
   1  -7  -8   20.14    2.51
   1  -7  -8   18.83    2.17
   1  -7  -8   20.71    2.63
  -1  -7   8   20.94    2.64
  -1   7   8   21.89    2.10
   1   7  -8   27.88    2.75
   1  -7 -10    6.83    1.92
  -1  -7  10    5.32    1.54
  -1   7  10    4.39    1.01
   1   7 -10    3.40    1.21
   1  -7 -12    2.16    1.52
  -1  -7  12    3.47    1.48
  -1   7  12    3.70    0.75
   1   7 -12    3.12    1.32
  -1  -7  14    2.95    1.41
   1  -7 -14    4.20    1.81
   1   7 -14    2.36    1.23
   1  -7 -16    5.43    2.03
  -1  -7  16    5.82    1.95
   1   7 -16    8.00    2.02
   1  -7 -18    5.07    1.93
  -1  -7  18    3.26    1.83
   1   7 -18    4.18    1.76
  -1  -8 -17    1.91    1.56
   1  -8  17    4.08    1.73
  -1   8 -17    1.42    1.55
  -1  -8 -15    5.28    2.05
   1  -8  15    4.64    1.86
  -1   8 -15    5.75    1.90
   1   8  15    4.04    0.77
   1  -8  13    3.43    1.74
  -1  -8 -13    5.60    2.08
   1   8  13    3.10    0.92
  -1   8 -13    5.35    1.76
   1  -8  11    0.68    0.99
  -1  -8 -11    0.25    1.02
  -1  -8 -11    0.03    1.20
   1  -8  11    0.52    0.45
   1   8  11    1.84    0.83
  -1   8 -11    0.69    1.22
   1  -8   9   33.17    2.08
   1  -8   9   30.64    3.45
  -1  -8  -9   36.07    3.65
  -1  -8  -9   29.90    3.10
   1   8   9   28.74    2.72
  -1   8  -9   29.19    3.24
   1  -8   7   15.95    2.32
  -1  -8  -7   17.94    2.55
   1  -8   7   16.50    2.43
   1  -8   7   18.74    1.98
  -1  -8  -7   20.33    2.51
   1   8   7   21.53    2.41
  -1   8  -7   16.06    2.37
   1   8   7   14.48    2.04
  -1  -8  -5    2.08    1.08
  -1  -8  -5    0.69    0.68
   1  -8   5    1.05    0.93
   1  -8   5    2.56    0.91
  -1  -8  -5    1.45    1.00
   1  -8   5    2.82    0.56
  -1  -8  -5    5.63    1.63
   1  -8   5    3.35    1.19
   1   8   5    2.98    1.15
   1   8   5    1.71    0.96
  -1   8  -5    1.74    1.17
   1  -8   3   14.88    1.88
  -1  -8  -3   13.47    1.83
  -1  -8  -3   16.20    2.21
   1  -8   3   16.08    1.65
   1  -8   3   16.23    2.12
  -1  -8  -3   16.35    2.00
  -1  -8  -3   18.10    2.19
   1  -8   3   14.20    2.05
   1  -8   3   15.78    1.74
   1   8   3   16.19    2.09
  -1   8  -3   17.39    2.36
   1   8   3   11.80    1.83
  -1   8  -3   19.32    2.32
  -1  -8  -1   15.50    1.99
  -1  -8  -1   18.93    2.09
  -1  -8  -1   17.46    2.21
   1  -8   1   20.16    2.20
   1  -8   1   16.34    2.14
  -1  -8  -1   16.99    1.83
  -1  -8  -1   18.47    2.01
   1  -8   1   20.37    2.14
   1  -8   1   15.69    1.81
  -1  -8  -1   20.43    1.84
   1  -8   1   16.35    2.05
   1   8   1   16.82    2.09
   1   8   1   17.56    2.16
  -1   8  -1   18.49    2.25
  -1  -8   1    8.54    1.48
   1  -8  -1    7.61    1.30
   1  -8  -1    8.72    1.67
   1  -8  -1    8.03    1.55
  -1  -8   1    7.44    1.38
  -1  -8   1    6.52    1.18
   1  -8  -1    9.26    1.61
   1  -8  -1    8.72    1.49
  -1  -8   1   11.23    1.64
  -1  -8   1    9.85    1.47
   1   8  -1    6.02    1.38
  -1   8   1    8.92    1.71
   1   8  -1    7.09    1.54
  -1  -8   3    6.79    0.92
   1  -8  -3    6.58    1.44
   1  -8  -3    7.01    1.51
  -1  -8   3    4.86    1.28
  -1  -8   3    6.20    1.26
  -1  -8   3    8.40    1.44
   1  -8  -3    4.08    1.34
  -1  -8   3    6.67    1.31
   1   8  -3    8.61    1.57
  -1   8   3   10.64    1.64
  -1  -8   5   18.82    2.37
   1  -8  -5   25.19    2.79
   1  -8  -5   22.29    2.43
   1  -8  -5   22.73    2.65
  -1  -8   5   21.45    2.09
   1  -8  -5   22.72    2.48
   1   8  -5   24.07    2.51
  -1   8   5   18.02    2.14
   1  -8  -7   29.70    3.24
   1  -8  -7   21.59    2.70
   1  -8  -7   27.86    2.45
  -1  -8   7   26.85    1.84
  -1  -8   7   33.19    3.34
   1   8  -7   32.84    3.17
  -1   8   7   23.89    2.44
  -1  -8   9    1.29    1.09
   1  -8  -9    0.42    0.91
  -1  -8   9    0.42    0.40
   1  -8  -9   -2.19    0.91
  -1   8   9   -0.03    0.63
   1   8  -9    0.43    0.92
  -1  -8  11    5.67    1.65
   1  -8 -11    2.48    1.43
  -1   8  11    4.21    1.03
   1   8 -11    6.05    1.66
   1  -8 -13   15.62    2.81
  -1  -8  13   15.34    2.74
  -1   8  13   13.31    1.36
   1   8 -13   15.25    2.48
  -1  -8  15    1.07    1.17
   1  -8 -15    4.25    1.88
   1   8 -15    2.05    1.34
  -1  -8  17    3.15    1.71
   1  -8 -17    4.10    1.98
   1   8 -17    3.86    1.79
  -1  -9 -16   -1.67    1.03
   1  -9  16    1.28    1.33
  -1   9 -16    0.85    1.22
   1  -9  14    0.55    1.30
  -1  -9 -14    0.69    1.25
   1   9  14    0.80    0.69
  -1   9 -14   -0.39    1.04
   1  -9  12    1.79    0.43
  -1  -9 -12    1.86    1.49
   1  -9  12    1.79    1.35
  -1   9 -12    1.95    1.37
   1   9  12    0.17    0.73
   1  -9  10    8.68    1.25
   1  -9  10   10.93    2.29
  -1  -9 -10   13.87    2.60
  -1  -9 -10   13.01    2.20
  -1   9 -10   12.83    2.31
   1   9  10   10.78    1.77
  -1  -9  -8    0.57    0.96
  -1  -9  -8    0.66    1.15
   1  -9   8    0.20    0.96
   1  -9   8    0.01    0.54
   1   9   8    0.63    0.92
  -1   9  -8    0.13    0.91
  -1  -9  -6    2.67    1.33
   1  -9   6    2.60    1.17
  -1  -9  -6    4.08    1.33
   1  -9   6    4.40    1.14
   1   9   6    3.36    1.28
   1   9   6    3.81    1.30
  -1   9  -6    3.11    1.33
   1  -9   4    3.30    0.84
   1  -9   4    2.49    1.30
  -1  -9  -4    3.97    1.30
  -1  -9  -4    3.49    1.25
  -1  -9  -4    4.30    1.62
   1  -9   4    2.12    1.06
   1  -9   4    3.00    1.12
   1   9   4    4.74    1.37
   1   9   4    2.67    1.15
  -1   9  -4    2.55    1.26
  -1  -9  -2    3.28    1.13
   1  -9   2    7.07    1.52
  -1  -9  -2    4.51    1.34
   1  -9   2    4.98    1.29
   1  -9   2    5.34    1.15
   1  -9   2    2.99    1.11
  -1  -9  -2    2.70    1.32
   1  -9   2    2.56    1.15
   1   9   2    3.70    1.36
   1   9   2    3.24    1.36
  -1   9  -2    4.35    1.41
   1  -9   0    3.08    1.04
   1  -9   0    3.32    1.29
   1  -9   0    5.12    1.23
   1  -9   0    3.01    1.17
  -1  -9   0    2.24    0.96
  -1  -9   0    1.82    1.13
  -1  -9   0    2.81    1.07
   1  -9   0    2.98    1.12
  -1  -9   0    2.63    0.99
   1   9   0    2.69    1.20
   1   9   0    4.59    1.37
  -1   9   0    2.06    1.15
  -1  -9   2    4.41    1.25
  -1  -9   2    4.06    0.98
   1  -9  -2    4.25    1.42
  -1  -9   2    3.39    1.19
   1  -9  -2    3.43    1.24
   1  -9  -2    1.94    1.02
  -1  -9   2    3.41    1.18
   1  -9  -2    2.27    1.02
  -1   9   2    1.84    1.13
  -1  -9   4   11.24    1.70
   1  -9  -4   10.92    2.07
   1  -9  -4   14.06    1.96
  -1  -9   4   10.07    1.81
   1  -9  -4   12.64    2.07
   1   9  -4   10.14    1.91
  -1   9   4   13.88    2.06
  -1  -9   6   11.50    2.14
  -1  -9   6    7.52    1.31
   1  -9  -6    5.77    1.65
   1  -9  -6    9.63    1.85
  -1   9   6    8.43    1.63
   1   9  -6    9.63    1.87
  -1  -9   8   17.27    1.71
  -1  -9   8   15.92    2.58
   1  -9  -8   17.65    2.69
   1  -9  -8   15.09    2.30
   1   9  -8   21.11    2.76
  -1   9   8   21.53    2.42
  -1  -9  10    0.43    1.05
   1  -9 -10   -0.22    0.96
   1  -9 -10    0.57    1.19
  -1  -9  10    0.66    0.40
  -1   9  10    1.90    0.89
   1   9 -10    0.75    1.15
  -1  -9  12    1.73    1.34
   1  -9 -12    3.83    1.79
   1   9 -12    2.06    1.29
  -1   9  12    0.43    0.64
   1  -9 -14    0.89    1.62
  -1  -9  14    0.62    1.13
  -1   9  14    2.30    0.64
   1   9 -14    0.80    1.32
  -1  -9  16    2.10    1.58
   1  -9 -16    0.59    1.61
   1   9 -16   -1.50    0.80
   1 -10  15    1.71    1.53
  -1 -10 -15    4.34    1.94
  -1  10 -15    2.61    1.64
   1  10  15    2.09    0.83
  -1 -10 -13    2.30    1.79
   1 -10  13    2.18    1.51
   1  10  13    1.72    0.97
  -1  10 -13    0.61    1.26
   1 -10  11    8.51    1.19
  -1 -10 -11   12.61    2.78
   1 -10  11   12.30    2.66
   1  10  11   10.99    1.87
  -1  10 -11   10.96    2.44
   1 -10   9    4.09    1.08
   1 -10   9    3.19    1.49
  -1 -10  -9    4.89    1.83
   1  10   9    6.04    1.53
  -1  10  -9    7.76    2.05
  -1 -10  -7    3.48    1.59
   1 -10   7    0.90    1.14
   1 -10   7    0.57    0.79
  -1  10  -7    1.48    1.24
   1  10   7    1.36    1.04
   1 -10   5    2.50    1.04
   1 -10   5    1.37    1.19
  -1 -10  -5    1.34    1.21
   1  10   5    3.58    1.37
  -1  10  -5    2.03    1.23
  -1 -10  -3    6.37    1.67
  -1 -10  -3   13.73    2.26
   1 -10   3    9.20    1.40
  -1 -10  -3    9.59    2.10
   1 -10   3   11.16    1.87
   1 -10   3    7.44    1.64
   1  10   3    8.97    1.84
   1  10   3    9.91    1.93
  -1 -10  -1   17.02    2.11
  -1 -10  -1   18.66    2.41
   1 -10   1   16.29    1.98
   1 -10   1   18.60    2.36
   1 -10   1   15.81    2.19
  -1 -10  -1   17.68    2.49
   1  10   1   15.68    2.35
   1  10   1   19.21    2.57
  -1  10  -1   14.80    2.30
   1 -10  -1   10.88    1.91
  -1 -10   1   10.39    1.54
   1 -10  -1    9.01    1.94
  -1 -10   1    9.60    1.91
  -1 -10   1    6.99    1.60
   1 -10  -1    9.84    1.73
  -1  10   1    9.53    1.87
  -1 -10   3    6.28    1.46
  -1 -10   3    6.08    1.48
   1 -10  -3    5.81    1.45
   1 -10  -3    8.29    1.94
   1 -10  -3    9.57    1.84
  -1  10   3    9.74    1.88
  -1 -10   5    1.67    0.94
   1 -10  -5   -0.72    0.97
  -1 -10   5    2.77    1.19
   1 -10  -5    1.56    1.07
  -1  10   5    3.26    1.26
   1  10  -5    1.70    1.04
  -1 -10   7    0.41    0.61
   1 -10  -7   -0.82    1.12
  -1 -10   7    1.64    1.17
   1  10  -7    1.38    1.19
  -1  10   7    0.80    0.91
  -1 -10   9    5.39    1.01
   1 -10  -9    4.35    1.83
  -1 -10   9    2.73    1.32
  -1  10   9    3.70    1.29
   1  10  -9    3.28    1.50
   1 -10 -11    4.96    1.89
  -1 -10  11    2.94    1.45
  -1  10  11    3.45    1.06
   1  10 -11    5.44    1.74
  -1 -10  13    7.18    2.11
   1 -10 -13    6.54    2.15
  -1  10  13    5.41    1.10
   1  10 -13    9.24    2.16
   1 -10 -15   -0.15    1.55
  -1 -10  15    0.42    1.33
   1  10 -15   -0.33    1.18
  -1 -11 -12    0.12    1.20
   1 -11  12    1.24    1.35
   1  11  12   -0.34    0.77
  -1  11 -12    1.03    1.41
  -1 -11 -10    0.41    1.36
   1 -11  10   -0.34    0.57
   1 -11  10    0.02    1.29
   1  11  10   -0.03    0.90
  -1  11 -10   -0.52    1.02
  -1 -11  -8    0.53    1.33
   1 -11   8   -0.78    0.51
   1 -11   8    0.19    1.25
  -1  11  -8    1.70    1.32
   1  11   8    0.44    0.94
   1 -11   6    0.97    0.87
   1 -11   6   -0.65    0.82
  -1 -11  -6   -1.76    0.93
  -1  11  -6   -0.60    0.94
   1  11   6   -0.23    0.92
  -1 -11  -4    3.92    1.60
   1 -11   4    1.47    1.04
  -1 -11  -4    3.82    1.50
   1 -11   4   -0.24    1.01
   1  11   4    0.05    1.06
   1 -11   2    3.86    1.37
  -1 -11  -2    2.23    1.27
  -1 -11  -2    2.19    1.36
   1  11   2   -0.44    0.92
   1 -11   0   -0.20    0.92
  -1 -11   0   -0.25    1.04
  -1 -11   0    0.69    1.02
  -1  11   0    0.68    1.21
  -1 -11   2    5.64    1.44
   1 -11  -2    8.61    1.79
  -1 -11   2    4.50    1.02
   1 -11  -2    5.54    1.74
  -1  11   2    6.10    1.74
  -1 -11   4    3.73    1.52
   1 -11  -4    1.90    1.52
  -1 -11   4    1.84    1.04
  -1  11   4    2.25    1.28
  -1 -11   6    0.97    1.05
  -1 -11   6    1.04    0.76
   1 -11  -6    0.35    1.16
  -1  11   6    0.53    0.97
   1  11  -6   -0.49    0.94
   1 -11  -8    0.46    1.33
  -1 -11   8   -0.24    0.60
  -1 -11   8   -0.55    1.02
  -1  11   8   -0.17    1.03
   1  11  -8    0.14    1.11
   1 -11 -10    1.12    1.29
  -1 -11  10    2.63    1.53
  -1 -11  10    2.54    0.74
   1  11 -10    7.46    2.00
  -1  11  10    2.47    1.12
  -1 -11  12    1.26    1.53
   1 -11 -12    3.63    1.88
   1  11 -12    1.09    1.30
  -1  11  12    1.81    0.94
   1 -11 -14    1.70    1.67
  -1 -11  14    0.43    1.36
   1  11 -14    0.79    1.47
  -1  11  14   -0.03    0.61
  -1 -12 -11    2.58    1.68
   1 -12  11    2.00    0.82
   1 -12  11    2.34    1.71
   1  12  11   -1.22    0.85
  -1  12 -11   -0.43    1.08
   1 -12   9    2.02    1.61
  -1 -12  -9    1.27    1.64
   1 -12   9    1.88    0.95
   1  12   9    2.13    1.32
  -1  12  -9    3.13    1.60
   1 -12   7    3.44    1.17
   1 -12   7    1.35    1.35
  -1 -12  -7    1.86    1.61
  -1  12  -7    3.96    1.81
   1  12   7    1.01    1.33
   1 -12   5    1.59    1.32
   1 -12   5    1.33    1.04
  -1 -12  -5    2.97    1.65
   1  12   5   -0.16    1.09
  -1 -12  -3    2.93    1.35
  -1 -12  -3    2.59    1.57
   1 -12   3    1.82    1.21
   1  12   3    5.46    1.81
  -1 -12  -1    5.54    1.59
  -1 -12  -1    9.70    2.20
   1 -12   1    5.63    1.69
   1 -12  -1    0.92    1.17
  -1 -12   1    0.80    1.03
  -1  12   1   -0.21    1.24
   1 -12  -3   -0.29    1.09
  -1 -12   3    1.93    1.13
   1 -12  -3    0.85    1.32
  -1  12   3    1.51    1.37
  -1 -12   5    3.73    1.22
   1 -12  -5    5.56    1.97
  -1 -12   5    4.57    1.58
  -1  12   5    1.96    1.33
  -1 -12   7    4.30    1.64
   1 -12  -7    2.83    1.62
  -1 -12   7    2.02    0.89
  -1  12   7    3.57    1.43
   1  12  -7    5.06    1.84
  -1 -12   9    3.30    1.60
  -1 -12   9    1.64    0.81
   1 -12  -9    3.83    1.91
  -1  12   9    4.27    1.47
   1  12  -9    1.98    1.50
   1 -12 -11    1.73    1.78
  -1 -12  11    4.05    1.87
  -1  12  11    1.40    0.94
   1  12 -11    3.40    1.79
   1 -13   8    0.00    0.73
   1 -13   8   -0.14    1.32
  -1 -13  -8   -0.31    1.31
  -1  13  -8    2.65    1.63
   1  13   8   -0.34    1.07
   1 -13   6    0.24    0.85
  -1 -13  -6   -0.37    1.47
   1  13   6    1.57    1.48
  -1 -13  -4    2.16    1.43
  -1 -13  -4    1.36    1.54
   1 -13   4   -0.56    0.91
   1  13   4    0.55    1.38
  -1 -13  -2    0.01    1.28
   1 -13   2    0.68    1.02
  -1 -13  -2   -0.34    1.05
   1 -13   0    0.45    1.14
  -1 -13   0   -0.35    1.05
  -1 -13   2   -0.35    1.01
   1 -13  -2    0.85    1.20
  -1  13   2    1.05    1.43
   1 -13  -4    1.12    1.59
  -1 -13   4    1.02    1.06
  -1  13   4    1.52    1.41
  -1 -13   6    1.31    0.87
   1 -13  -6   -0.02    1.20
  -1  13   6   -0.73    1.04
  -1 -13   8   -0.31    0.62
   1 -13  -8    1.01    1.66
  -1 -13   8    0.29    1.28
  -1  13   8    0.14    1.11
   1 -14   1    1.51    1.31
  -1 -14  -1    1.14    1.33
  -1 -14   1   -0.17    1.11
   1 -14  -1   -0.09    1.25
  -2   0 -20    3.58    1.58
  -2   0 -18    3.09    1.54
  -2   0 -16   23.19    2.90
   2   0  16   27.22    3.06
  -2   0 -14   47.81    3.42
   2   0  14   54.19    3.39
   2   0  12   62.92    3.45
  -2   0 -12   66.87    3.14
  -2   0 -12   62.91    3.60
  -2   0 -10   50.72    2.87
   2   0  10   53.69    2.92
  -2   0 -10   48.06    2.41
  -2   0 -10   50.75    2.34
  -2   0 -10   51.38    2.35
   2   0  10   47.48    1.90
   2   0  10   45.77    1.85
  -2   0  -8   42.96    2.38
  -2   0  -8   41.45    1.96
   2   0   8   42.14    1.82
  -2   0  -8   44.09    2.02
   2   0   8   42.65    2.46
   2   0   8   43.26    1.81
  -2   0  -8   36.52    2.39
  -2   0  -8   42.99    2.07
   2   0   8   36.21    2.23
  -2   0  -6   10.15    1.30
  -2   0  -6    9.30    0.84
  -2   0  -6   10.73    0.90
   2   0   6   11.77    1.04
   2   0   6   10.17    1.23
   2   0   6   12.64    1.37
  -2   0  -6   10.57    1.01
  -2   0  -6    8.87    1.11
  -2   0  -4   17.24    1.11
   2   0   4   21.98    1.45
  -2   0  -4   20.29    1.20
  -2   0  -4   19.51    1.13
  -2   0  -4   17.78    1.16
   2   0   4   22.96    1.40
   2   0   4   22.03    1.16
   2   0   4   24.39    1.06
  -2   0  -4   17.89    1.34
  -2   0  -4   21.34    1.16
   2   0   4   22.97    1.05
   2   0   4   20.20    1.00
  -2   0  -2  933.30   27.15
  -2   0  -2  918.40   27.49
  -2   0  -2 1000.00   27.89
   2   0   2  980.12   23.93
   2   0   2  980.24   26.16
   2   0   2  972.33   26.14
  -2   0  -2  946.59   23.93
   2   0   2  972.85   27.86
   2   0   2  951.51   27.48
  -2   0  -2  946.28   26.18
   2   0   0   60.13    2.20
  -2   0   0   63.25    2.31
  -2   0   0   63.41    2.23
  -2   0   0   62.74    1.97
   2   0  -2  201.62    5.78
   2   0  -2  185.36    5.86
  -2   0   4  186.05    5.52
  -2   0   6   45.75    2.00
  -2   0   6   43.70    1.99
   2   0  -6   46.19    2.04
  -2   0   8   22.71    1.52
  -2   0   8   23.68    1.55
   2   0  -8   26.02    1.15
   2   0  -8   26.32    1.60
  -2   0  10   90.87    3.73
   2   0 -10   90.87    3.86
   2   0 -10   93.36    3.36
   2   0 -10   89.73    3.67
  -2   0  10   88.43    3.70
   2   0 -12  104.39    4.39
   2   0 -12  110.07    4.76
  -2   0  12  112.05    4.45
  -2   0  12  110.04    4.53
   2   0 -12  109.65    4.17
  -2   0  14  110.42    4.71
   2   0 -14  116.47    5.21
  -2   0  14  112.50    4.89
   2   0 -14  114.42    4.82
  -2   0  16    3.28    1.10
   2   0 -16    7.83    1.68
   2   0 -18   29.27    3.36
   2   0 -20    8.57    2.07
   2   0 -22   15.39    2.84
  -2  -1 -21    0.35    1.11
  -2   1 -21   -0.80    0.82
  -2  -1 -19    0.30    1.15
  -2   1 -19    2.81    1.42
  -2  -1 -17    7.17    1.81
   2  -1  17    7.77    1.81
  -2   1 -17    7.36    1.76
   2  -1  15    1.77    1.13
  -2  -1 -15    2.00    1.06
  -2   1 -15    0.87    0.95
  -2  -1 -13    8.73    1.51
  -2  -1 -13    6.02    1.43
   2  -1  13    5.53    1.45
  -2   1 -13    7.04    1.56
   2   1  13    7.24    1.45
   2  -1  11    4.66    1.22
  -2  -1 -11    5.04    1.20
   2  -1  11    5.21    0.50
  -2  -1 -11    5.48    1.18
   2  -1  11    6.06    0.54
   2   1  11    5.11    0.66
   2   1  11    5.20    0.64
   2   1  11    5.90    1.21
  -2   1 -11    4.03    1.07
   2  -1   9    0.65    0.54
   2  -1   9    0.15    0.30
  -2  -1  -9    0.03    0.45
   2  -1   9    0.28    0.69
  -2  -1  -9    0.00    0.43
  -2  -1  -9    0.79    0.61
  -2  -1  -9   -0.16    0.54
   2  -1   9    0.00    0.30
  -2  -1  -9    0.31    0.40
  -2   1  -9    0.36    0.35
   2   1   9    0.17    0.49
  -2   1  -9    0.51    0.40
   2   1   9   -0.53    0.42
   2   1   9    0.60    0.37
  -2   1  -9   -0.02    0.48
   2   1   9    0.41    0.40
  -2   1  -9    0.42    0.43
  -2   1  -9    0.76    0.62
  -2  -1  -7   44.78    2.09
  -2  -1  -7   44.24    2.59
   2  -1   7   42.58    2.42
  -2  -1  -7   46.36    2.09
   2  -1   7   40.26    2.38
  -2  -1  -7   43.89    2.25
   2  -1   7   42.97    1.85
  -2  -1  -7   46.35    2.32
   2  -1   7   42.97    1.83
   2   1   7   42.88    2.48
  -2   1  -7   44.58    1.99
  -2   1  -7   40.28    2.26
  -2   1  -7   42.85    2.62
  -2   1  -7   46.03    1.99
   2   1   7   42.15    1.91
   2   1   7   46.59    2.27
  -2   1  -7   44.00    2.44
  -2  -1  -5   26.25    1.44
   2  -1   5   23.88    1.61
  -2  -1  -5   26.68    1.44
   2  -1   5   25.79    1.63
  -2  -1  -5   26.88    1.75
  -2  -1  -5   29.05    1.59
  -2  -1  -5   25.51    1.41
   2  -1   5   23.97    0.86
   2  -1   5   25.46    1.32
   2  -1   5   25.63    0.89
   2   1   5   24.26    1.68
  -2   1  -5   28.56    1.62
   2   1   5   26.89    1.39
  -2   1  -5   23.80    1.71
  -2   1  -5   26.39    1.36
   2   1   5   25.96    1.49
  -2   1  -5   26.91    1.66
   2   1   5   26.80    1.14
   2   1   5   25.31    1.12
  -2   1  -5   25.54    1.33
  -2  -1  -3  365.34   10.42
   2  -1   3  361.15   10.28
   2  -1   3  355.52   11.21
  -2  -1  -3  364.65   11.30
   2  -1   3  350.05   11.05
   2  -1   3  350.26   10.22
   2  -1   3  363.19   10.41
  -2  -1  -3  362.67   10.89
  -2  -1  -3  360.91   10.06
   2  -1   3  356.47   10.72
  -2  -1  -3  372.25    9.66
   2  -1   3  366.07    9.58
  -2   1  -3  367.43   11.19
  -2   1  -3  347.98    9.83
  -2   1  -3  367.61   10.85
   2   1   3  366.95    9.60
   2   1   3  373.10   10.83
   2   1   3  368.55   10.34
  -2   1  -3  363.04   10.37
  -2   1  -3  375.78   11.13
   2   1   3  336.34   11.24
  -2   1  -3  368.47    9.66
   2   1   3  360.25   10.16
  -2  -1  -1   62.14    2.53
   2  -1   1   62.51    2.24
  -2  -1  -1   65.64    2.24
   2  -1   1   63.53    2.51
   2  -1   1   61.51    2.12
   2  -1   1   60.54    2.26
   2  -1   1   59.06    2.45
  -2  -1  -1   60.82    2.26
  -2  -1  -1   61.75    2.11
   2   1   1   63.33    2.22
  -2   1  -1   66.38    2.19
  -2   1  -1   60.94    2.22
  -2   1  -1   63.56    2.49
   2   1   1   63.86    2.29
   2   1   1   60.14    2.11
  -2   1  -1   61.69    2.49
   2   1   1   68.40    2.62
   2  -1  -1  122.90    4.17
  -2  -1   1  120.23    4.05
  -2  -1   1  124.07    3.40
  -2  -1   1  122.28    3.63
  -2   1   1  125.17    4.20
   2   1  -1  126.18    4.09
  -2   1   1  127.75    3.48
   2   1  -1  124.54    3.62
   2  -1  -3  142.30    4.59
  -2  -1   3  151.64    4.37
  -2  -1   3  155.30    4.72
   2  -1  -3  152.14    5.05
   2   1  -3  148.02    4.56
  -2   1   3  150.96    4.64
   2  -1  -5  116.70    4.07
  -2  -1   5  125.16    4.19
  -2  -1   5  117.12    3.85
   2   1  -5  119.75    3.57
   2   1  -5  127.07    3.57
  -2   1   5  124.53    4.14
   2   1  -5  120.78    3.84
   2  -1  -7   67.82    2.88
  -2  -1   7   68.30    2.63
  -2  -1   7   71.59    2.98
  -2   1   7   67.63    2.87
  -2   1   7   68.01    2.54
   2   1  -7   66.51    2.23
   2   1  -7   64.30    2.58
   2   1  -7   67.40    2.76
  -2  -1   9   42.63    2.12
  -2  -1   9   43.97    2.45
   2  -1  -9   43.91    2.04
   2  -1  -9   44.66    2.43
   2   1  -9   43.19    1.81
  -2   1   9   45.53    2.42
   2   1  -9   46.87    2.17
   2   1  -9   45.96    2.40
  -2   1   9   41.72    2.07
   2  -1 -11   31.29    2.14
  -2  -1  11   29.67    2.15
  -2  -1  11   30.14    1.91
   2  -1 -11   29.15    1.78
   2   1 -11   30.96    2.16
  -2   1  11   32.06    2.14
   2   1 -11   31.32    1.89
   2   1 -11   30.83    1.64
  -2   1  11   32.07    1.91
  -2  -1  13    2.16    0.90
   2  -1 -13    0.97    0.78
  -2  -1  13    0.92    0.67
   2   1 -13    0.72    0.54
  -2   1  13    1.07    0.68
   2   1 -13    0.61    0.61
   2   1 -13   -0.14    0.63
  -2   1  13    2.81    0.97
   2  -1 -15   14.97    2.18
   2  -1 -15   12.54    1.89
  -2  -1  15   12.28    1.95
   2   1 -15   13.71    2.06
  -2   1  15   13.57    1.97
  -2  -1  17   13.08    2.14
   2  -1 -17   11.34    2.12
   2   1 -17   12.38    2.19
   2  -1 -19    3.33    1.38
   2   1 -19    4.21    1.49
   2  -1 -21    0.51    1.04
   2   1 -21   -1.79    0.73
  -2  -2 -20    8.51    2.21
  -2   2 -20    4.83    1.85
   2  -2  18   25.69    3.50
  -2  -2 -18   23.47    3.21
  -2   2 -18   29.20    3.51
  -2  -2 -16   13.24    2.32
   2  -2  16   16.21    2.63
  -2   2 -16   11.74    2.26
  -2  -2 -14   21.31    2.57
  -2  -2 -14   22.13    2.47
   2  -2  14   19.67    2.70
  -2   2 -14   24.13    2.76
  -2  -2 -12   58.32    3.35
   2  -2  12   50.15    3.36
  -2  -2 -12   50.90    3.09
   2   2  12   51.79    1.98
   2   2  12   46.16    2.70
  -2   2 -12   51.40    3.21
   2  -2  10   67.09    3.56
   2  -2  10   60.61    2.18
  -2  -2 -10   62.91    3.23
  -2  -2 -10   57.26    2.83
   2  -2  10   60.32    2.16
   2   2  10   56.74    2.44
  -2   2 -10   61.80    2.70
   2   2  10   60.18    2.91
  -2   2 -10   60.49    3.24
   2  -2   8   61.04    2.34
  -2  -2  -8   64.43    3.40
  -2  -2  -8   63.22    2.78
  -2  -2  -8   64.26    3.09
  -2  -2  -8   60.66    2.75
  -2  -2  -8   58.93    2.74
   2  -2   8   61.15    2.35
   2  -2   8   53.76    3.11
   2  -2   8   62.65    3.10
  -2   2  -8   66.27    3.10
   2   2   8   58.87    3.19
  -2   2  -8   58.41    3.05
  -2   2  -8   65.39    2.59
   2   2   8   56.41    2.48
   2   2   8   59.48    2.69
  -2   2  -8   60.26    2.60
   2   2   8   61.05    2.49
  -2  -2  -6  193.10    6.34
   2  -2   6  199.30    6.98
   2  -2   6  190.47    6.68
  -2  -2  -6  201.23    7.23
  -2  -2  -6  191.04    6.45
  -2  -2  -6  195.37    6.56
  -2  -2  -6  199.83    6.02
   2  -2   6  196.69    5.73
  -2   2  -6  197.01    6.94
   2   2   6  196.69    5.90
  -2   2  -6  200.83    6.38
   2   2   6  186.77    5.64
   2   2   6  200.24    5.64
  -2   2  -6  195.16    7.09
  -2   2  -6  190.41    6.35
   2   2   6  195.59    6.10
   2   2   6  192.19    7.07
  -2   2  -6  199.87    6.16
   2  -2   4  169.87    4.93
   2  -2   4  159.01    5.81
  -2  -2  -4  167.91    5.36
  -2  -2  -4  165.49    5.43
   2  -2   4  157.24    5.50
   2  -2   4  166.30    5.15
  -2  -2  -4  172.92    6.08
  -2  -2  -4  158.83    5.49
   2  -2   4  164.64    5.88
   2  -2   4  160.19    4.97
   2  -2   4  164.27    4.93
  -2  -2  -4  165.04    5.05
  -2   2  -4  162.90    5.40
   2   2   4  165.97    5.01
   2   2   4  158.18    5.13
  -2   2  -4  167.11    5.02
  -2   2  -4  164.96    5.84
   2   2   4  154.79    5.91
  -2   2  -4  171.55    5.89
   2   2   4  161.68    5.06
  -2   2  -4  164.11    5.25
  -2  -2  -2   12.26    0.94
   2  -2   2   15.87    1.21
   2  -2   2   14.23    0.96
  -2  -2  -2   11.56    1.15
   2  -2   2   13.40    0.90
   2  -2   2   16.22    0.98
  -2  -2  -2   13.12    0.97
   2  -2   2   16.14    1.17
   2  -2   2   16.48    1.17
  -2  -2  -2   12.57    1.14
  -2  -2  -2   12.11    0.97
   2   2   2   13.32    1.18
  -2   2  -2   12.40    1.10
   2   2   2   12.52    0.97
  -2   2  -2   10.79    0.93
  -2   2  -2   12.47    1.13
  -2   2  -2   12.80    1.15
   2   2   2   14.90    1.01
  -2  -2   0  317.09    8.95
   2  -2   0  311.46    8.42
  -2  -2   0  315.22    8.89
   2  -2   0  311.35    9.12
   2  -2   0  311.65    9.74
  -2  -2   0  316.39    9.38
  -2  -2   0  320.51    8.38
  -2  -2   0  323.72    9.85
  -2   2   0  313.18    8.41
   2   2   0  315.07    9.03
  -2   2   0  315.35    8.72
  -2   2   0  315.42    9.06
  -2   2   0  319.37    9.74
   2   2   0  311.96    9.47
   2   2   0  304.74    8.37
  -2  -2   2   29.11    1.42
   2  -2  -2   32.38    1.77
   2  -2  -2   33.86    1.33
  -2  -2   2   30.45    1.17
   2  -2  -2   33.43    1.55
  -2  -2   2   30.80    1.55
   2   2  -2   31.58    1.06
   2   2  -2   33.06    1.60
  -2   2   2   28.94    1.49
   2   2  -2   31.83    1.03
  -2   2   2   28.93    1.68
   2   2  -2   33.69    1.58
  -2   2   2   29.22    1.29
  -2  -2   4  755.20   20.29
  -2  -2   4  751.08   19.51
   2  -2  -4  701.41   19.82
   2  -2  -4  707.44   21.61
   2   2  -4  743.55   19.02
  -2   2   4  742.83   18.22
  -2   2   4  759.25   19.92
  -2   2   4  750.09   18.25
  -2  -2   6   46.94    2.40
   2  -2  -6   50.65    2.43
  -2  -2   6   49.84    2.03
  -2   2   6   46.19    2.37
   2   2  -6   54.17    2.21
  -2  -2   8  130.44    4.27
  -2  -2   8  123.49    4.96
   2  -2  -8  134.55    4.93
  -2   2   8  131.20    4.90
   2   2  -8  133.02    4.67
   2  -2 -10   44.21    2.63
   2  -2 -10   46.10    2.43
  -2  -2  10   48.67    2.23
  -2  -2  10   47.29    2.80
   2   2 -10   44.40    2.06
   2   2 -10   45.73    2.58
  -2   2  10   47.33    2.71
  -2   2  10   49.74    2.10
   2   2 -10   46.30    2.17
  -2  -2  12   41.56    2.22
   2  -2 -12   39.45    2.67
  -2  -2  12   42.24    2.84
   2   2 -12   42.50    2.15
   2   2 -12   40.69    2.16
   2   2 -12   41.02    2.67
  -2   2  12   43.26    2.72
  -2  -2  14   26.00    2.79
   2  -2 -14   22.33    2.54
   2   2 -14   22.03    2.55
  -2   2  14   25.71    2.69
  -2  -2  16   47.95    3.42
   2  -2 -16   46.17    3.27
   2  -2 -16   42.94    3.24
   2   2 -16   34.58    3.40
  -2  -2  18    3.75    1.42
   2  -2 -18    7.95    1.87
   2   2 -18    5.33    1.54
   2  -2 -20   14.35    2.62
   2   2 -20   10.45    2.11
   2  -2 -22    9.15    2.26
   2   2 -22    6.32    1.93
  -2  -3 -21    2.48    1.48
  -2   3 -21    1.64    1.45
   2  -3  19    7.20    2.08
  -2  -3 -19    7.19    2.01
  -2   3 -19    2.63    1.35
   2  -3  17    0.47    1.16
  -2  -3 -17    2.47    1.29
  -2   3 -17    0.90    1.11
   2  -3  15    6.84    1.88
  -2  -3 -15    7.66    1.73
  -2  -3 -15    5.46    1.56
  -2   3 -15    7.02    1.75
   2  -3  13    6.01    1.73
  -2  -3 -13    3.96    1.37
   2   3  13    4.82    0.65
  -2   3 -13    2.96    1.16
   2  -3  11    8.44    0.72
   2  -3  11    6.28    1.60
  -2  -3 -11    6.44    1.47
   2  -3  11    7.84    0.69
   2   3  11    7.22    0.99
  -2   3 -11    5.00    1.20
   2  -3   9   33.72    1.69
   2  -3   9   32.38    1.62
  -2  -3  -9   33.34    2.45
   2  -3   9   35.57    2.59
  -2  -3  -9   37.95    2.24
   2   3   9   33.91    1.92
   2   3   9   36.78    1.93
  -2   3  -9   39.42    2.48
   2  -3   7    1.31    0.52
   2  -3   7    3.62    0.88
  -2  -3  -7    2.93    1.00
  -2  -3  -7    3.68    0.83
   2  -3   7    2.53    0.63
   2  -3   7    1.36    0.78
  -2  -3  -7    4.03    0.97
   2  -3   7    3.28    0.66
  -2  -3  -7    4.00    0.88
  -2  -3  -7    1.86    0.65
  -2   3  -7    2.03    0.71
   2   3   7    3.02    0.31
   2   3   7    2.50    0.73
   2   3   7    1.48    0.57
  -2   3  -7    2.60    0.83
  -2   3  -7    2.31    0.60
  -2   3  -7    2.36    0.89
   2   3   7    2.45    0.28
  -2  -3  -5  113.24    4.22
  -2  -3  -5  107.57    3.98
   2  -3   5  111.21    4.66
  -2  -3  -5  114.26    4.85
   2  -3   5  110.03    3.78
   2  -3   5  113.74    4.55
   2  -3   5  110.01    3.46
   2  -3   5  110.93    3.42
   2  -3   5  109.71    4.50
  -2  -3  -5  110.87    4.27
   2  -3   5  113.45    3.58
  -2  -3  -5  115.89    4.48
   2   3   5  111.63    4.76
   2   3   5  111.91    3.88
  -2   3  -5  111.88    3.96
   2   3   5  109.92    3.75
  -2   3  -5  117.43    4.30
  -2   3  -5  113.57    4.10
   2   3   5  107.02    3.93
  -2   3  -5  119.14    4.72
   2  -3   3   10.41    0.84
  -2  -3  -3    9.07    1.06
  -2  -3  -3   10.23    1.25
   2  -3   3    8.73    0.98
  -2  -3  -3   13.71    1.57
  -2  -3  -3   11.74    1.03
   2  -3   3    9.13    1.19
   2  -3   3   11.40    1.39
  -2  -3  -3   10.27    1.10
   2  -3   3    9.58    0.97
   2  -3   3   12.21    1.38
  -2   3  -3    8.25    1.18
   2   3   3   10.50    1.07
  -2   3  -3   10.10    1.12
   2   3   3    9.41    1.10
  -2   3  -3    8.68    1.09
   2   3   3   13.20    1.53
   2   3   3   11.26    0.84
   2  -3   1   96.92    3.51
  -2  -3  -1   97.39    3.56
   2  -3   1   96.21    3.51
   2  -3   1   96.66    3.30
   2  -3   1   99.79    3.91
  -2  -3  -1   91.77    3.42
  -2  -3  -1   98.12    3.31
  -2  -3  -1   91.87    3.29
  -2  -3  -1   96.38    3.60
  -2   3  -1   95.98    3.52
   2   3   1   98.04    3.59
  -2   3  -1   93.65    3.48
   2   3   1  104.19    3.33
  -2   3  -1   97.32    3.88
  -2   3  -1   97.90    3.36
   2   3   1   94.16    3.47
   2   3   1   96.84    3.31
   2  -3  -1    1.31    0.46
  -2  -3   1    0.66    0.36
   2  -3  -1    1.14    0.46
  -2  -3   1    0.98    0.30
  -2  -3   1    0.89    0.46
   2  -3  -1    1.77    0.48
  -2  -3   1    1.14    0.25
   2  -3  -1    1.20    0.46
   2  -3  -1    1.66    0.56
  -2  -3   1    1.52    0.33
  -2  -3   1    1.30    0.44
  -2   3   1    0.51    0.42
   2   3  -1    1.32    0.47
   2   3  -1    0.78    0.35
   2   3  -1    2.00    0.47
   2   3  -1    0.87    0.39
  -2   3   1    0.91    0.38
  -2   3   1    1.38    0.47
  -2   3   1    0.94    0.42
  -2  -3   3   29.21    1.47
   2  -3  -3   32.40    1.48
  -2  -3   3   30.20    1.24
  -2  -3   3   28.44    1.22
  -2  -3   3   28.27    1.71
   2  -3  -3   27.03    1.83
   2  -3  -3   29.30    1.70
   2   3  -3   31.65    1.22
   2   3  -3   29.87    1.17
   2   3  -3   31.62    1.45
  -2   3   3   30.64    1.72
  -2   3   3   28.30    1.41
   2   3  -3   30.96    1.26
   2  -3  -5   61.58    2.22
  -2  -3   5   62.80    2.41
   2  -3  -5   61.15    3.12
   2  -3  -5   69.27    2.97
  -2  -3   5   64.58    2.99
   2   3  -5   61.98    2.55
  -2   3   5   67.40    2.17
  -2   3   5   69.84    2.97
  -2   3   5   64.10    2.19
   2   3  -5   63.59    2.56
  -2  -3   7  101.53    4.30
  -2  -3   7  103.79    3.48
   2  -3  -7  102.79    2.89
   2  -3  -7  105.96    4.24
   2   3  -7  100.26    3.85
  -2   3   7  102.38    4.23
  -2  -3   9    2.40    0.87
   2  -3  -9    2.27    0.83
  -2  -3   9    1.39    0.46
   2   3  -9    0.42    0.56
  -2   3   9    1.49    0.70
  -2  -3  11   17.84    2.16
   2  -3 -11   18.26    2.09
  -2   3  11   16.34    2.02
   2   3 -11   16.71    1.84
  -2  -3  13   11.79    2.04
   2  -3 -13   11.41    1.89
   2   3 -13   14.71    2.09
  -2  -3  15    1.15    0.92
   2  -3 -15    0.26    0.94
   2   3 -15    2.58    1.16
  -2  -3  17   10.54    2.05
   2  -3 -17    7.72    1.97
   2   3 -17    7.61    1.74
  -2  -3  19    5.19    1.77
   2  -3 -19    5.74    1.67
   2   3 -19    5.97    1.73
  -2  -3  21    2.72    1.66
   2  -3 -21    1.41    1.30
   2   3 -21    1.55    1.20
   2  -4  20    6.22    2.04
  -2  -4 -20    5.45    1.92
  -2   4 -20    4.36    1.83
  -2  -4 -18   10.15    2.19
   2  -4  18   17.97    3.13
  -2   4 -18   14.94    2.57
   2  -4  16   18.01    2.88
  -2  -4 -16   19.75    2.80
  -2  -4 -16   19.16    2.65
  -2   4 -16   18.01    2.67
   2  -4  14    9.76    2.13
  -2  -4 -14    9.76    1.95
  -2   4 -14   10.57    2.11
   2   4  14    9.00    0.81
   2  -4  12   12.25    2.21
  -2  -4 -12    9.27    1.84
  -2   4 -12    8.33    1.64
   2   4  12    9.24    1.19
  -2  -4 -10   10.72    1.77
   2  -4  10   15.08    2.22
   2  -4  10   11.86    1.11
  -2  -4 -10   12.96    1.66
   2   4  10   11.65    1.41
  -2   4 -10   14.50    1.99
  -2  -4  -8   65.84    3.22
   2  -4   8   64.08    2.62
  -2  -4  -8   62.55    3.52
   2  -4   8   61.24    3.50
  -2  -4  -8   63.33    3.17
   2   4   8   64.47    2.61
   2   4   8   63.98    2.93
  -2   4  -8   64.03    3.36
  -2  -4  -6   12.16    1.43
   2  -4   6   10.52    1.48
  -2  -4  -6    8.95    1.56
   2  -4   6   11.92    1.29
  -2  -4  -6   10.87    1.57
  -2  -4  -6   11.76    1.41
   2  -4   6   11.94    1.67
   2  -4   6   10.17    1.61
  -2  -4  -6   14.15    1.52
  -2   4  -6   12.75    1.57
   2   4   6   11.66    1.44
  -2   4  -6   13.13    1.70
   2   4   6    9.89    1.04
  -2   4  -6   11.79    1.44
   2   4   6    8.59    1.00
  -2  -4  -4  214.01    6.60
  -2  -4  -4  206.25    6.98
  -2  -4  -4  208.35    7.12
   2  -4   4  212.91    6.52
   2  -4   4  209.00    7.53
   2  -4   4  207.65    7.52
   2  -4   4  207.35    6.38
  -2  -4  -4  209.05    7.20
   2  -4   4  212.99    7.14
   2  -4   4  217.32    6.72
  -2   4  -4  210.07    6.54
   2   4   4  200.09    6.23
  -2   4  -4  210.37    6.83
  -2   4  -4  205.55    7.41
   2   4   4  202.10    6.54
   2   4   4  200.96    6.72
  -2  -4  -2   65.33    2.49
   2  -4   2   59.27    2.63
  -2  -4  -2   64.86    2.70
  -2  -4  -2   59.72    2.73
  -2  -4  -2   63.20    2.98
   2  -4   2   57.16    2.58
   2  -4   2   62.23    3.09
  -2  -4  -2   60.18    2.75
   2  -4   2   57.91    2.78
   2   4   2   60.16    2.69
  -2   4  -2   62.85    2.88
  -2   4  -2   63.91    3.09
  -2   4  -2   62.24    2.69
   2   4   2   62.29    2.46
  -2   4  -2   59.59    2.41
   2  -4   0   52.43    2.46
  -2  -4   0   57.20    2.67
  -2  -4   0   62.14    2.55
   2  -4   0   54.30    2.47
  -2  -4   0   65.04    2.35
  -2  -4   0   64.31    2.51
  -2  -4   0   58.92    2.51
   2  -4   0   53.81    2.40
  -2  -4   0   61.58    2.55
   2  -4   0   56.22    2.94
   2  -4   0   56.27    2.59
  -2   4   0   61.06    2.57
  -2   4   0   58.11    2.75
   2   4   0   52.94    2.44
   2   4   0   58.47    2.55
  -2   4   0   60.58    2.95
   2   4   0   59.65    2.64
  -2   4   0   59.91    2.43
   2  -4  -2   29.91    2.04
   2  -4  -2   33.81    1.84
   2  -4  -2   29.92    1.52
  -2  -4   2   34.62    1.45
   2  -4  -2   28.38    1.75
   2  -4  -2   30.61    1.81
  -2  -4   2   33.56    1.92
  -2  -4   2   33.37    1.82
  -2  -4   2   33.80    1.30
  -2  -4   2   29.72    1.59
  -2  -4   2   34.68    1.29
   2   4  -2   28.62    1.38
   2   4  -2   30.92    1.65
  -2   4   2   36.93    1.70
   2   4  -2   31.20    1.68
  -2   4   2   34.51    1.87
  -2   4   2   34.71    2.12
  -2   4   2   32.68    1.75
   2   4  -2   29.76    1.69
   2  -4  -4   57.19    2.58
   2  -4  -4   60.70    2.61
  -2  -4   4   66.48    3.08
  -2  -4   4   64.92    2.56
   2  -4  -4   63.54    3.22
  -2  -4   4   65.44    2.25
   2  -4  -4   57.45    2.87
  -2  -4   4   63.08    2.21
  -2   4   4   63.77    2.94
   2   4  -4   62.10    2.39
   2   4  -4   61.40    2.43
   2   4  -4   65.84    2.66
  -2   4   4   61.42    2.50
  -2  -4   6  252.91    8.35
  -2  -4   6  253.64    7.27
   2  -4  -6  241.94    8.77
   2  -4  -6  247.31    8.18
   2  -4  -6  243.15    7.54
   2   4  -6  243.29    7.93
  -2   4   6  251.46    6.98
  -2   4   6  243.75    6.89
   2   4  -6  251.47    7.13
   2   4  -6  243.74    7.12
  -2   4   6  241.67    8.08
   2   4  -6  251.55    7.58
   2   4  -6  247.86    6.79
   2  -4  -8   60.88    3.23
  -2  -4   8   56.32    2.29
  -2  -4   8   56.17    3.20
   2  -4  -8   56.04    2.30
  -2   4   8   57.30    1.90
   2   4  -8   55.25    2.80
   2   4  -8   58.26    2.86
  -2   4   8   56.15    1.92
  -2   4   8   50.49    2.98
  -2  -4  10   64.26    3.73
   2  -4 -10   72.44    3.77
  -2   4  10   69.29    3.70
   2   4 -10   67.96    3.50
   2   4 -10   67.66    3.39
   2  -4 -12   22.81    2.71
  -2  -4  12   17.38    2.40
   2   4 -12   23.76    2.44
   2  -4 -14   15.10    2.38
  -2  -4  14   17.67    2.56
   2   4 -14   20.26    2.41
   2  -4 -16   13.81    2.33
  -2  -4  16   15.90    2.65
   2   4 -16    9.01    1.86
   2  -4 -18   11.72    2.38
  -2  -4  18    9.17    2.08
   2   4 -18   11.10    2.17
  -2  -4  20   12.12    2.55
   2  -4 -20   10.12    2.27
   2   4 -20   12.34    2.49
   2  -5  19    2.10    1.52
  -2  -5 -19    0.19    1.15
  -2   5 -19    1.55    1.37
   2  -5  17    3.96    1.64
  -2  -5 -17    7.01    1.85
  -2  -5 -17    4.93    1.74
  -2   5 -17    7.03    1.99
  -2  -5 -15    8.58    2.04
   2  -5  15   10.35    2.35
  -2   5 -15    9.93    2.17
   2  -5  13    3.77    1.37
  -2  -5 -13    2.64    1.37
  -2   5 -13    1.55    1.08
   2   5  13    2.50    0.71
   2  -5  11   14.01    1.02
  -2  -5 -11   12.25    2.16
   2  -5  11   10.85    2.06
  -2   5 -11   11.58    1.94
   2   5  11   11.75    1.52
  -2  -5  -9    3.12    1.07
   2  -5   9    2.96    1.16
  -2  -5  -9    1.97    1.23
   2  -5   9    2.95    0.72
   2   5   9    2.93    0.88
  -2   5  -9    4.28    1.19
   2  -5   7   16.98    1.58
   2  -5   7   19.08    2.24
  -2  -5  -7   20.93    2.08
  -2  -5  -7   17.32    1.91
   2  -5   7   20.06    2.38
  -2  -5  -7   20.27    2.39
   2   5   7   23.51    2.12
  -2   5  -7   19.98    2.17
  -2  -5  -5   16.33    1.96
  -2  -5  -5   16.59    1.83
  -2  -5  -5   13.91    1.67
   2  -5   5   15.95    1.06
   2  -5   5   16.56    1.06
   2  -5   5   15.96    1.03
   2  -5   5   15.47    1.00
   2  -5   5   13.58    1.50
  -2  -5  -5   15.55    1.71
   2  -5   5   15.23    1.87
   2  -5   5   15.05    1.82
   2  -5   5   12.36    1.78
  -2   5  -5   17.57    1.79
   2   5   5   14.66    1.11
  -2   5  -5   15.74    1.91
   2   5   5   14.76    1.47
   2   5   5   14.89    1.68
  -2   5  -5   16.17    1.93
  -2  -5  -3   56.63    3.10
  -2  -5  -3   60.55    2.47
  -2  -5  -3   60.13    2.87
   2  -5   3   59.99    3.04
  -2  -5  -3   59.05    2.93
   2  -5   3   57.47    2.67
   2  -5   3   56.31    3.17
   2  -5   3   58.64    2.71
   2  -5   3   58.83    2.36
  -2  -5  -3   62.82    2.98
   2   5   3   53.30    2.41
  -2   5  -3   56.44    2.99
  -2   5  -3   60.97    2.88
  -2   5  -3   61.80    3.23
   2   5   3   61.49    2.89
   2  -5   1  109.83    4.79
   2  -5   1  114.21    4.29
  -2  -5  -1  114.32    4.15
   2  -5   1  106.29    4.12
   2  -5   1  114.07    4.02
   2  -5   1  112.53    4.31
  -2  -5  -1  104.64    4.22
  -2  -5  -1  112.50    4.51
  -2  -5  -1  113.03    4.10
  -2  -5  -1  115.13    4.39
  -2  -5  -1  107.82    4.15
  -2   5  -1  112.51    4.49
  -2   5  -1  111.32    4.72
   2   5   1  112.37    4.24
   2   5   1  117.41    4.11
  -2   5  -1  111.10    4.27
   2  -5  -1    6.67    1.09
  -2  -5   1    4.26    0.72
  -2  -5   1    5.62    0.79
  -2  -5   1    4.66    0.77
   2  -5  -1    6.55    1.24
  -2  -5   1    5.41    0.98
  -2  -5   1    4.94    1.01
   2  -5  -1    5.47    0.96
   2  -5  -1    6.40    0.95
  -2  -5   1    5.76    0.99
   2  -5  -1    5.85    1.01
  -2   5   1    5.01    1.07
  -2   5   1    5.71    1.06
   2   5  -1    6.88    1.17
  -2   5   1    4.72    0.88
  -2  -5   3   21.01    1.30
   2  -5  -3   22.36    1.25
  -2  -5   3   19.38    1.50
  -2  -5   3   21.04    1.73
   2  -5  -3   23.75    1.71
   2  -5  -3   24.99    1.99
   2  -5  -3   21.27    1.66
  -2  -5   3   19.82    1.39
   2  -5  -3   22.79    1.73
   2   5  -3   21.91    1.50
  -2   5   3   21.00    1.37
  -2   5   3   19.20    1.55
   2   5  -3   23.71    1.34
   2   5  -3   22.65    1.59
  -2   5   3   14.92    1.62
   2   5  -3   22.40    1.60
  -2   5   3   23.39    1.89
  -2  -5   5   23.09    1.94
  -2  -5   5   24.19    1.30
   2  -5  -5   27.49    2.04
  -2  -5   5   23.17    1.29
   2  -5  -5   22.93    2.01
   2  -5  -5   26.99    1.82
   2  -5  -5   23.97    1.70
  -2  -5   5   24.36    1.54
  -2   5   5   26.83    2.01
  -2   5   5   28.17    1.69
   2   5  -5   26.22    1.50
   2   5  -5   27.80    1.81
   2   5  -5   24.45    1.53
   2  -5  -7   10.40    1.72
  -2  -5   7    8.93    1.53
  -2  -5   7   10.02    1.09
   2  -5  -7   11.42    1.31
   2  -5  -7    8.49    1.46
  -2   5   7    6.49    1.25
   2   5  -7   10.76    1.31
   2   5  -7   10.39    0.84
  -2   5   7    9.78    1.08
  -2   5   7   11.63    1.20
   2   5  -7   12.47    1.48
  -2  -5   9   31.18    2.57
   2  -5  -9   32.87    2.62
   2   5  -9   33.55    2.27
  -2   5   9   34.84    1.60
   2   5  -9   33.00    1.42
  -2   5   9   37.46    1.59
   2   5  -9   37.76    2.45
  -2  -5  11    2.74    1.12
   2  -5 -11    3.02    1.26
   2   5 -11    1.24    0.86
   2  -5 -13    6.97    1.72
  -2  -5  13   10.71    2.08
   2   5 -13    7.29    1.55
   2  -5 -15    5.59    1.71
  -2  -5  15    8.91    2.06
   2   5 -15    5.70    1.51
  -2  -5  17    0.45    0.99
   2  -5 -17    2.11    1.37
   2   5 -17    1.03    1.11
  -2  -5  19    6.84    2.15
   2  -5 -19    4.34    1.98
   2   5 -19    4.76    1.59
   2  -5 -21    5.20    2.20
  -2  -5  21    3.49    1.78
   2   5 -21    3.50    1.53
   2  -6  18    5.31    2.06
  -2  -6 -18    3.20    1.74
  -2   6 -18    6.32    2.04
  -2  -6 -16    5.11    1.76
   2  -6  16    3.63    1.61
  -2   6 -16    2.54    1.48
   2  -6  14    6.03    1.83
  -2  -6 -14    8.52    2.05
   2   6  14    6.76    1.07
  -2   6 -14    2.97    1.37
   2  -6  12    3.70    1.45
   2  -6  12    3.56    0.54
  -2  -6 -12    4.36    1.51
   2   6  12    1.65    0.80
   2   6  12    2.69    0.89
  -2   6 -12    3.06    1.28
   2  -6  10    8.59    1.88
  -2  -6 -10   10.79    2.01
  -2  -6 -10   10.12    1.71
   2  -6  10    8.04    1.08
   2   6  10   11.03    1.57
  -2   6 -10    9.87    1.80
   2  -6   8   11.26    2.04
   2  -6   8   11.72    1.40
  -2  -6  -8   11.18    1.74
  -2  -6  -8   10.16    1.95
   2   6   8   10.71    1.60
  -2   6  -8   10.78    1.81
   2  -6   6    8.31    0.48
   2  -6   6   10.69    1.75
  -2  -6  -6   16.12    1.93
   2  -6   6    9.50    0.53
   2  -6   6   12.33    1.52
   2  -6   6   11.45    1.87
  -2  -6  -6   10.19    1.57
  -2  -6  -6   10.68    1.83
   2   6   6    8.94    1.53
  -2   6  -6    8.34    1.47
   2  -6   4   31.48    1.84
  -2  -6  -4   31.47    1.73
   2  -6   4   30.10    1.78
   2  -6   4   32.07    2.34
  -2  -6  -4   34.66    2.23
  -2  -6  -4   35.29    2.25
   2  -6   4   32.06    1.65
  -2  -6  -4   33.40    2.30
   2  -6   4   34.36    2.53
  -2  -6  -4   32.91    2.50
   2  -6   4   31.32    2.06
  -2  -6  -4   26.73    2.09
  -2   6  -4   30.48    2.20
  -2   6  -4   30.22    2.30
   2   6   4   31.59    2.19
   2   6   4   31.38    1.73
  -2  -6  -2   38.20    2.01
   2  -6   2   36.91    2.23
  -2  -6  -2   39.32    2.63
  -2  -6  -2   38.16    2.35
  -2  -6  -2   39.66    2.23
   2  -6   2   35.46    2.34
  -2  -6  -2   37.92    2.33
   2  -6   2   35.97    2.59
   2  -6   2   40.22    2.29
   2  -6   2   39.64    2.12
  -2  -6  -2   39.24    2.33
  -2   6  -2   40.14    2.46
  -2   6  -2   38.88    2.55
   2   6   2   37.72    2.04
   2   6   2   37.61    2.36
  -2   6  -2   31.85    2.36
  -2  -6   0    3.92    1.02
  -2  -6   0    4.05    0.83
   2  -6   0    1.69    0.74
  -2  -6   0    2.44    0.87
   2  -6   0    1.87    0.69
   2  -6   0    2.28    0.90
   2  -6   0    2.51    0.77
  -2  -6   0    3.78    0.78
   2  -6   0    2.64    0.87
  -2  -6   0    4.03    0.88
  -2  -6   0    2.29    0.76
  -2   6   0    3.33    0.92
  -2   6   0    2.82    0.93
   2   6   0    3.30    0.81
   2   6   0    2.78    0.89
  -2  -6   2   19.46    1.98
  -2  -6   2   21.23    1.30
  -2  -6   2   19.97    1.25
   2  -6  -2   20.95    2.03
   2  -6  -2   20.61    1.42
   2  -6  -2   20.85    2.29
  -2  -6   2   21.39    1.43
   2  -6  -2   20.47    1.74
   2  -6  -2   25.43    2.27
  -2  -6   2   20.85    1.87
  -2  -6   2   20.48    1.68
  -2   6   2   20.44    2.15
   2   6  -2   20.21    1.33
   2   6  -2   18.50    1.80
   2   6  -2   22.01    2.04
  -2   6   2   20.66    1.98
   2  -6  -4   29.69    2.05
  -2  -6   4   27.34    1.69
   2  -6  -4   19.71    2.01
   2  -6  -4   27.10    1.39
   2  -6  -4   20.66    2.14
  -2  -6   4   28.04    1.65
  -2  -6   4   26.19    1.82
  -2  -6   4   26.32    2.11
   2  -6  -4   24.56    2.60
   2   6  -4   24.60    1.85
   2   6  -4   25.11    1.59
   2   6  -4   25.84    1.91
  -2   6   4   25.64    1.89
  -2   6   4   27.95    1.59
  -2  -6   6   25.56    1.63
  -2  -6   6   27.93    1.49
  -2  -6   6   24.64    2.52
   2  -6  -6   25.95    2.55
   2  -6  -6   26.81    2.00
   2  -6  -6   27.77    2.36
   2   6  -6   28.96    2.02
   2   6  -6   23.27    1.68
  -2   6   6   27.38    1.85
   2   6  -6   25.76    1.76
   2  -6  -8   41.54    3.11
   2  -6  -8   45.15    2.64
   2  -6  -8   45.77    3.13
  -2  -6   8   45.84    3.13
  -2   6   8   45.72    2.30
   2   6  -8   43.36    2.59
   2   6  -8   44.41    2.71
   2  -6 -10    9.53    1.90
  -2  -6  10    8.83    1.81
  -2   6  10    7.48    0.95
   2   6 -10    9.68    1.66
  -2  -6  12    4.27    1.48
   2  -6 -12    0.87    1.23
   2   6 -12    3.15    1.15
   2  -6 -14    7.36    1.95
  -2  -6  14    5.96    1.82
   2   6 -14    6.47    1.62
   2  -6 -16    8.63    2.23
  -2  -6  16    7.73    2.01
   2   6 -16    7.59    1.77
  -2  -6  18    3.65    1.53
   2  -6 -18    4.54    1.89
   2   6 -18    8.58    2.06
   2  -6 -20    3.29    1.90
  -2  -6  20    4.44    1.98
   2   6 -20    3.02    1.65
  -2  -7 -17    3.59    1.80
   2  -7  17    0.64    1.19
  -2   7 -17    5.14    1.75
  -2  -7 -15    6.70    1.97
   2  -7  15    6.09    2.02
  -2   7 -15    5.92    1.85
   2   7  15    4.14    0.85
  -2  -7 -13    4.88    1.77
   2  -7  13    3.41    1.54
  -2   7 -13    5.43    1.67
   2   7  13    5.49    1.16
  -2  -7 -11   -1.57    0.85
   2  -7  11    1.39    0.57
  -2  -7 -11    0.41    0.93
   2  -7  11   -0.76    0.93
   2   7  11    0.36    0.62
  -2   7 -11   -0.26    0.88
   2   7  11    0.00    0.59
  -2  -7  -9   49.90    3.82
   2  -7   9   50.21    3.74
  -2  -7  -9   47.38    3.26
   2  -7   9   48.42    2.54
  -2   7  -9   41.17    3.22
   2   7   9   46.51    2.94
  -2  -7  -7   11.37    2.06
   2  -7   7    9.45    1.81
   2  -7   7    9.60    1.82
  -2  -7  -7    7.76    1.56
   2  -7   7    8.55    1.31
   2   7   7    8.09    1.48
  -2   7  -7    9.17    1.72
   2  -7   5    8.07    1.67
  -2  -7  -5   11.41    1.75
   2  -7   5    6.02    0.82
   2  -7   5   10.02    1.11
   2  -7   5   12.11    1.90
  -2  -7  -5    9.14    1.74
  -2  -7  -5    8.68    1.57
  -2  -7  -5    8.11    1.40
   2  -7   5   13.51    1.71
   2   7   5   10.86    1.71
  -2   7  -5   12.95    1.99
   2  -7   3    3.63    0.89
   2  -7   3    6.19    1.28
  -2  -7  -3    6.56    1.29
  -2  -7  -3    5.55    1.25
  -2  -7  -3    3.12    1.27
   2  -7   3    6.40    1.35
   2  -7   3    3.38    1.20
  -2  -7  -3    5.53    0.96
  -2  -7  -3    3.83    0.95
  -2  -7  -3    4.24    1.05
   2  -7   3    5.53    1.06
   2   7   3    7.59    1.08
   2   7   3    6.79    1.41
  -2   7  -3    3.73    1.18
  -2   7  -3    3.52    1.15
   2  -7   1   13.99    1.71
  -2  -7  -1   16.63    1.78
   2  -7   1   16.07    1.81
   2  -7   1   15.47    2.06
  -2  -7  -1   21.80    2.35
  -2  -7  -1   21.64    1.79
  -2  -7  -1   16.23    1.68
  -2  -7  -1   18.25    2.00
   2  -7   1   19.07    1.87
  -2  -7  -1   18.47    1.56
   2  -7   1   16.22    1.94
   2   7   1   15.96    1.69
  -2   7  -1   21.53    2.21
  -2   7  -1   17.68    2.13
   2   7   1   15.95    2.03
   2  -7  -1   39.18    2.82
   2  -7  -1   39.02    2.26
  -2  -7   1   35.69    2.13
  -2  -7   1   39.01    2.16
  -2  -7   1   39.08    2.57
   2  -7  -1   31.66    2.32
  -2  -7   1   37.65    2.41
   2  -7  -1   36.30    2.45
  -2  -7   1   37.78    2.40
   2  -7  -1   37.36    2.51
  -2  -7   1   38.82    2.15
  -2   7   1   40.47    2.59
   2   7  -1   36.59    2.50
  -2  -7   3   15.80    1.76
   2  -7  -3   14.28    1.37
   2  -7  -3   14.84    1.83
   2  -7  -3   15.59    1.97
  -2  -7   3   17.44    2.02
  -2  -7   3   15.57    1.80
   2  -7  -3   14.45    2.04
   2  -7  -3   19.46    2.17
  -2  -7   3   13.42    0.91
  -2  -7   3   13.06    1.45
   2   7  -3   14.92    1.51
   2   7  -3   12.60    1.65
  -2   7   3   12.90    1.73
   2  -7  -5   28.77    2.31
   2  -7  -5   30.17    2.50
  -2  -7   5   32.00    1.96
   2  -7  -5   36.21    2.83
  -2  -7   5   34.19    2.60
   2  -7  -5   35.59    2.46
  -2  -7   5   34.08    2.16
  -2  -7   5   34.66    2.06
   2   7  -5   30.25    2.26
  -2   7   5   32.05    2.31
  -2  -7   7   61.44    2.58
   2  -7  -7   63.33    4.01
  -2  -7   7   71.56    4.10
   2  -7  -7   64.59    3.88
   2  -7  -7   69.47    3.57
  -2   7   7   60.84    3.10
   2   7  -7   69.15    3.56
   2  -7  -9   17.25    2.42
  -2  -7   9   18.42    2.63
   2   7  -9   19.80    2.30
  -2   7   9   17.23    1.70
   2  -7 -11   12.80    2.40
  -2  -7  11   10.27    2.00
  -2   7  11   12.93    1.28
   2   7 -11   11.95    2.02
   2  -7 -13   14.92    2.58
  -2  -7  13   10.23    2.13
   2   7 -13   10.80    1.98
   2  -7 -15    8.95    2.33
  -2  -7  15    7.01    1.98
   2   7 -15    8.87    1.95
  -2  -7  17    4.99    1.95
   2  -7 -17    6.25    2.17
   2   7 -17    5.03    1.63
   2  -7 -19    0.41    1.56
  -2  -7  19    0.28    1.36
   2   7 -19    5.23    1.86
  -2  -8 -16    0.77    1.49
   2  -8  16    0.98    1.17
  -2   8 -16    1.67    1.50
   2   8  16    0.58    0.50
  -2  -8 -14    2.88    1.63
   2  -8  14    0.90    1.07
   2   8  14    0.24    0.68
  -2   8 -14    0.07    1.12
   2  -8  12    9.98    2.32
   2  -8  12   11.78    1.18
  -2  -8 -12    9.48    2.19
   2   8  12   10.40    1.64
  -2   8 -12    7.29    2.00
   2  -8  10    9.71    1.34
  -2  -8 -10   10.91    2.32
   2  -8  10    4.63    1.81
  -2  -8 -10    8.34    1.82
   2   8  10    6.47    1.44
   2   8  10    7.25    1.46
  -2   8 -10    7.43    1.84
  -2  -8  -8   10.46    1.86
  -2  -8  -8    6.62    1.70
  -2  -8  -8    6.37    1.44
   2  -8   8    8.68    2.03
   2  -8   8    9.51    1.48
  -2   8  -8    7.51    1.82
   2   8   8    6.24    1.47
   2   8   8    9.28    1.69
  -2  -8  -6    3.71    1.20
   2  -8   6    4.89    1.45
  -2  -8  -6    4.96    1.56
   2  -8   6    2.12    0.88
  -2  -8  -6    2.27    0.91
  -2  -8  -6    4.94    1.34
   2  -8   6    2.32    1.18
  -2   8  -6    0.76    0.97
   2   8   6    2.55    1.15
   2  -8   4   12.95    1.49
  -2  -8  -4   11.08    1.82
  -2  -8  -4    8.40    1.49
   2  -8   4   11.23    1.88
   2  -8   4   11.50    1.71
  -2  -8  -4    9.59    1.87
  -2  -8  -4   11.29    1.72
   2  -8   4   11.15    1.94
  -2   8  -4   11.67    2.04
   2   8   4   12.50    1.94
  -2  -8  -2    2.82    1.08
   2  -8   2    3.37    1.06
   2  -8   2    3.10    1.18
   2  -8   2    1.50    0.78
  -2  -8  -2    2.38    0.96
   2  -8   2    3.18    1.15
  -2  -8  -2    2.46    0.93
  -2  -8  -2    3.19    1.31
   2  -8   2    5.55    1.21
  -2  -8  -2    1.98    0.85
  -2   8  -2    0.58    0.89
   2   8   2    2.59    1.12
   2   8   2    2.04    0.79
  -2   8  -2    2.96    1.17
  -2  -8   0   20.84    2.33
   2  -8   0   23.57    2.67
   2  -8   0   23.86    1.94
   2  -8   0   19.26    2.08
  -2  -8   0   22.29    1.87
  -2  -8   0   20.38    2.34
  -2  -8   0   19.92    1.99
   2  -8   0   26.49    2.68
   2  -8   0   22.40    2.28
   2   8   0   17.65    2.01
   2   8   0   22.98    2.41
  -2   8   0   21.64    2.43
  -2  -8   2   16.20    2.06
   2  -8  -2   20.62    2.57
   2  -8  -2   22.76    2.45
  -2  -8   2   20.10    1.49
  -2  -8   2   17.32    1.99
   2  -8  -2   20.36    2.33
  -2  -8   2   20.60    2.26
   2  -8  -2   17.26    2.08
  -2   8   2   16.76    2.21
   2  -8  -4   10.63    1.78
  -2  -8   4   11.79    1.54
   2  -8  -4   13.75    2.00
  -2  -8   4   13.53    1.84
   2  -8  -4   13.25    2.04
  -2  -8   4   11.87    1.82
   2  -8  -4   10.23    1.84
  -2   8   4   14.45    1.96
   2   8  -4   10.59    1.68
   2  -8  -6    8.25    1.81
  -2  -8   6    6.98    1.66
  -2  -8   6    5.75    1.04
   2  -8  -6    6.85    1.49
   2  -8  -6    5.31    1.43
   2   8  -6    5.72    1.43
  -2   8   6    6.53    1.36
  -2  -8   8    2.33    0.59
   2  -8  -8    1.53    1.28
   2  -8  -8    1.68    1.04
  -2  -8   8    1.31    1.10
  -2   8   8    0.80    0.78
   2   8  -8    2.77    1.16
  -2  -8  10    1.48    1.21
   2  -8 -10    3.25    1.55
  -2   8  10    2.14    0.80
   2   8 -10    1.66    1.00
  -2  -8  12    5.77    1.77
   2  -8 -12    4.38    1.74
  -2   8  12    5.24    0.91
   2   8 -12    7.99    1.93
  -2  -8  14    2.33    1.45
   2  -8 -14    2.58    1.66
   2   8 -14    2.65    1.47
  -2  -8  16    3.78    1.72
   2  -8 -16    3.09    1.83
   2   8 -16    3.77    1.40
   2  -8 -18    1.61    1.69
  -2  -8  18    1.65    1.46
   2   8 -18    1.07    1.31
   2  -9  15    1.84    1.54
  -2  -9 -15    4.38    1.92
   2   9  15    1.80    0.85
  -2   9 -15    2.64    1.50
   2  -9  13    4.86    1.81
  -2  -9 -13    2.92    1.76
   2   9  13    7.32    1.49
  -2   9 -13    2.24    1.41
   2  -9  11    8.61    1.28
   2  -9  11   10.07    2.44
  -2  -9 -11    9.94    2.44
  -2   9 -11   11.25    2.31
   2   9  11    9.02    1.68
   2  -9   9   14.19    2.55
  -2  -9  -9   18.30    2.90
   2  -9   9   12.69    1.67
   2   9   9   15.54    2.18
   2   9   9   13.79    2.19
  -2   9  -9   11.65    2.26
  -2  -9  -7    7.89    1.76
   2  -9   7    5.75    1.30
   2  -9   7    7.13    1.71
  -2  -9  -7    6.81    1.89
   2   9   7    7.57    1.66
  -2   9  -7    6.03    1.86
   2   9   7    8.07    1.73
   2  -9   5    1.89    0.64
  -2  -9  -5    0.00    1.06
   2  -9   5    1.38    1.07
   2  -9   5    0.67    0.81
  -2  -9  -5    2.20    1.14
  -2  -9  -5    0.39    0.88
   2  -9   5    0.22    0.57
  -2   9  -5   -0.45    0.87
   2   9   5    1.45    1.08
   2  -9   3    7.43    1.34
  -2  -9  -3    8.10    1.66
   2  -9   3    7.05    1.51
   2  -9   3   10.76    1.85
  -2  -9  -3    6.71    1.67
  -2  -9  -3    7.05    1.51
  -2   9  -3    6.30    1.63
   2   9   3    6.51    1.56
   2  -9   1   11.31    1.87
   2  -9   1   13.41    1.96
  -2  -9  -1   10.65    1.65
   2  -9   1   10.08    1.77
  -2  -9  -1   12.49    1.92
  -2  -9  -1   11.59    2.01
   2  -9   1   11.23    1.67
   2   9   1   15.27    2.27
  -2   9  -1   17.98    2.39
   2  -9  -1   32.99    2.72
  -2  -9   1   31.50    2.11
  -2  -9   1   33.28    2.67
   2  -9  -1   26.79    2.68
  -2  -9   1   28.47    2.72
  -2  -9   1   32.02    2.45
   2  -9  -1   38.17    3.40
   2  -9  -1   27.47    3.03
  -2   9   1   28.64    2.90
   2  -9  -3    8.36    1.66
  -2  -9   3    7.70    1.62
   2  -9  -3    4.97    1.48
   2  -9  -3    8.42    1.67
   2  -9  -3    7.25    1.67
  -2  -9   3    9.73    1.63
  -2  -9   3    7.00    1.56
  -2   9   3    9.54    1.81
   2  -9  -5   22.73    2.87
  -2  -9   5   21.59    2.20
  -2  -9   5   20.88    2.58
   2  -9  -5   22.84    2.58
   2   9  -5   23.21    2.69
  -2   9   5   26.16    2.73
   2  -9  -7   10.49    1.96
   2  -9  -7   12.48    2.36
  -2  -9   7   14.75    2.33
  -2  -9   7    8.49    1.28
  -2   9   7   10.02    1.62
   2   9  -7    9.40    1.78
   2  -9  -9    2.50    1.54
  -2  -9   9    2.75    1.46
   2  -9  -9    2.67    1.28
  -2  -9   9    3.86    0.69
  -2   9   9    1.11    0.85
   2   9  -9    1.53    1.14
  -2  -9  11    4.75    1.67
   2  -9 -11    5.97    1.97
   2   9 -11    4.82    1.56
  -2   9  11    2.14    0.85
   2  -9 -13    6.75    2.24
  -2  -9  13    8.16    2.24
  -2   9  13    9.79    1.15
   2   9 -13   10.62    2.15
   2  -9 -15    7.63    2.43
  -2  -9  15    5.54    1.97
   2   9 -15    7.96    2.15
  -2  -9  17   -0.17    1.16
   2  -9 -17   -1.20    1.23
   2   9 -17    0.41    1.36
  -2 -10 -14   -1.48    1.16
   2 -10  14   -1.18    1.15
   2  10  14   -0.31    0.75
  -2  10 -14   -0.10    1.11
   2 -10  12    0.62    0.58
   2 -10  12    0.70    1.22
  -2 -10 -12    2.75    1.72
   2  10  12    0.73    0.83
  -2  10 -12    0.75    1.23
  -2 -10 -10   -0.97    0.96
   2 -10  10    2.28    0.86
   2 -10  10    0.94    1.32
   2  10  10    1.42    1.04
  -2  10 -10    1.15    1.24
   2 -10   8    0.61    0.68
   2 -10   8    1.53    1.34
  -2 -10  -8    0.98    1.26
   2  10   8    0.62    0.95
  -2  10  -8    0.90    1.30
   2  10   8    0.51    0.89
   2 -10   6   -0.66    0.64
  -2 -10  -6   -0.89    0.95
   2 -10   6    2.65    1.31
   2  10   6    1.47    1.11
  -2  10  -6    1.37    1.19
   2  10   6   -0.14    1.01
   2 -10   4    0.04    0.61
   2 -10   4    0.13    0.77
   2 -10   4    1.67    1.06
  -2 -10  -4    0.26    1.09
  -2 -10  -4   -0.54    0.77
  -2  10  -4    1.20    1.14
   2  10   4    0.00    0.95
   2  10   4    1.48    1.16
   2 -10   2    0.15    0.82
  -2 -10  -2   -0.19    0.87
  -2 -10  -2   -1.38    1.01
   2 -10   2   -0.97    0.56
   2 -10   2    0.04    0.91
  -2 -10  -2   -0.27    0.68
   2  10   2   -1.06    0.86
   2  10   2    0.14    0.92
  -2 -10   0    0.56    0.71
   2 -10   0    0.48    0.83
   2 -10   0   -0.09    0.87
  -2 -10   0   -0.20    1.01
   2 -10   0   -0.22    0.89
  -2 -10   0    0.36    0.87
  -2  10   0   -1.35    0.80
  -2 -10   2    2.58    1.14
  -2 -10   2    0.63    1.02
  -2 -10   2    0.77    0.58
  -2 -10   2    1.11    0.87
   2 -10  -2    2.59    1.34
   2 -10  -2    0.53    0.91
   2 -10  -2    1.75    1.09
  -2  10   2   -0.43    0.94
  -2 -10   4    5.06    1.54
   2 -10  -4    4.74    1.59
  -2 -10   4    4.75    1.21
   2 -10  -4    4.65    1.40
  -2  10   4    7.59    1.74
  -2 -10   6    0.81    0.69
   2 -10  -6    0.12    1.27
   2 -10  -6    0.86    1.05
  -2 -10   6    0.77    1.07
   2  10  -6   -0.35    0.80
  -2  10   6   -0.28    0.74
  -2 -10   8    1.42    0.65
   2 -10  -8    0.11    1.09
   2 -10  -8   -0.10    1.34
  -2 -10   8    0.00    0.90
   2  10  -8    0.02    0.98
  -2  10   8   -0.11    0.76
  -2 -10  10    1.06    1.20
   2 -10 -10    0.39    1.21
  -2  10  10    0.38    0.74
   2  10 -10   -0.33    0.93
   2 -10 -12   -0.56    1.08
  -2 -10  12   -0.91    0.94
   2  10 -12    0.25    1.13
  -2  10  12   -0.22    0.57
  -2 -10  14   -0.12    1.17
   2 -10 -14    4.02    1.86
  -2  10  14    0.82    0.50
   2  10 -14    1.85    1.41
   2 -10 -16    1.82    1.69
  -2 -10  16    0.79    1.41
   2  10 -16   -0.13    1.23
  -2 -11 -13    0.72    1.63
   2 -11  13    1.04    1.48
   2  11  13    0.64    0.96
  -2  11 -13   -1.13    1.20
   2 -11  11    2.11    0.85
   2 -11  11    4.68    2.02
  -2 -11 -11    3.61    1.83
  -2  11 -11   -0.54    1.41
   2  11  11    3.48    1.32
   2 -11   9    0.79    1.39
  -2 -11  -9   -0.13    1.08
   2 -11   9    1.42    0.90
  -2  11  -9    0.52    1.39
   2  11   9    2.99    1.35
   2 -11   7    0.52    1.24
  -2 -11  -7    1.18    1.48
   2 -11   7    0.93    0.93
   2  11   7    1.56    1.34
  -2  11  -7    1.19    1.20
  -2 -11  -5    0.86    1.20
   2 -11   5   -0.86    0.67
  -2 -11  -5    2.44    1.60
   2 -11   5   -0.22    0.98
   2  11   5   -0.28    0.94
   2  11   5    0.82    1.20
  -2  11  -5    0.44    0.98
  -2 -11  -3    3.48    1.52
  -2 -11  -3   -1.37    1.08
   2 -11   3    2.92    1.34
   2 -11   3    2.06    1.21
   2  11   3    2.22    1.27
   2  11   3    2.74    1.45
  -2 -11  -1    7.44    1.74
  -2 -11  -1   13.18    2.45
   2 -11   1   12.37    2.17
  -2  11  -1    7.84    1.89
  -2 -11   1    5.35    1.68
  -2 -11   1    4.32    1.11
   2 -11  -1    7.80    1.84
  -2 -11   1    5.05    1.51
   2 -11  -1    5.54    1.70
  -2  11   1    5.55    1.68
   2 -11  -3    1.87    1.34
  -2 -11   3    0.76    0.91
  -2 -11   3    1.49    1.20
  -2  11   3    3.16    1.42
   2 -11  -5    2.38    1.64
  -2 -11   5    2.57    1.09
  -2 -11   5    3.17    1.45
  -2  11   5    2.73    1.27
  -2 -11   7    2.67    1.40
  -2 -11   7    3.23    1.01
   2 -11  -7    4.33    1.87
   2  11  -7    2.26    1.23
  -2  11   7    2.74    1.23
  -2 -11   9    3.40    1.58
  -2 -11   9    1.73    0.69
   2 -11  -9    2.96    1.67
   2  11  -9    2.04    1.37
  -2  11   9    2.07    1.09
   2 -11 -11    1.72    1.51
  -2 -11  11    1.73    1.40
  -2  11  11    1.77    0.90
   2  11 -11    1.13    1.42
   2 -11 -13    5.88    2.18
  -2 -11  13    7.80    2.19
  -2  11  13    3.97    1.01
   2  11 -13    9.08    2.24
   2 -12  10    0.16    0.72
  -2 -12 -10    0.54    1.55
   2 -12  10    1.26    1.64
   2  12  10    0.46    1.13
  -2  12 -10    1.30    1.38
  -2 -12  -8   -0.29    1.35
   2 -12   8    0.70    0.85
   2 -12   8    1.01    1.28
   2  12   8   -0.78    1.03
  -2  12  -8   -0.57    1.15
   2 -12   6    0.17    1.11
  -2 -12  -6    1.22    1.46
   2 -12   6    1.18    1.07
   2  12   6    0.02    1.11
  -2  12  -6    0.48    1.06
  -2 -12  -4    3.17    1.53
   2 -12   4   -0.57    0.80
  -2 -12  -4    0.17    1.25
   2  12   4    0.62    1.37
  -2 -12  -2    1.33    1.34
  -2 -12  -2   -0.42    1.04
   2 -12   2    1.96    1.12
   2 -12   0    1.06    1.23
  -2 -12   0    3.23    1.55
  -2 -12   0    1.64    1.19
  -2  12   0    1.92    1.34
   2 -12  -2    2.04    1.42
   2 -12  -2    4.09    1.65
  -2 -12   2    0.02    0.87
  -2  12   2    1.88    1.27
  -2 -12   4    0.34    0.82
   2 -12  -4    2.58    1.44
  -2  12   4    0.82    1.22
   2 -12  -6    0.57    1.32
  -2 -12   6    1.08    0.78
  -2 -12   6    2.70    1.45
  -2  12   6    2.09    1.25
  -2 -12   8    0.82    0.70
  -2 -12   8    0.17    0.99
   2 -12  -8   -1.32    1.28
  -2  12   8    0.36    0.99
   2  12  -8    1.54    1.27
  -2 -12  10   -0.51    1.02
   2 -12 -10   -0.37    1.39
  -2  12  10    0.23    0.77
   2  12 -10    1.64    1.49
  -2 -12  12    0.97    1.43
   2 -12 -12    0.07    1.28
   2  12 -12    2.19    1.58
  -2  12  12    1.06    0.92
   2 -13   7    1.09    1.01
  -2 -13  -7    4.10    1.97
   2 -13   7    0.37    1.39
   2  13   7   -1.27    1.00
   2 -13   5   -0.21    0.93
  -2 -13  -5   -2.46    0.94
   2  13   5   -0.77    1.19
  -2 -13  -3    2.06    1.38
  -2 -13  -3    1.64    1.68
   2 -13   3    3.41    1.41
   2  13   3    1.37    1.53
  -2 -13  -1    0.98    1.41
   2 -13   1    2.28    1.33
  -2 -13  -1   -1.01    1.04
  -2 -13   1    1.60    1.06
   2 -13  -1    2.61    1.43
  -2  13   1    3.14    1.62
  -2 -13   3    0.66    0.93
  -2  13   3   -0.67    1.16
  -2 -13   5    0.13    0.77
   2 -13  -5    0.53    1.18
  -2  13   5    3.27    1.48
   2 -13  -7   -0.08    1.44
  -2 -13   7    1.52    0.84
  -2 -13   7    0.09    1.14
  -2  13   7    0.60    1.20
  -2 -13   9    2.48    1.38
   2 -13  -9   -0.69    1.32
   2 -14   0    0.33    1.18
  -2 -14   0    0.41    1.16
  -3   0 -21   -0.52    1.17
  -3   0 -19    1.29    1.12
  -3   0 -17    0.29    1.03
  -3   0 -15    0.05    0.89
   3   0  15    0.59    0.86
   3   0  13    0.09    0.81
  -3   0 -13    0.45    0.81
   3   0  13   -0.04    0.31
   3   0  11   -0.22    0.37
   3   0  11   -1.01    0.57
  -3   0 -11    0.16    0.58
  -3   0 -11    0.41    0.60
  -3   0  -9    0.11    0.48
   3   0   9    0.05    0.56
  -3   0  -9    0.17    0.47
  -3   0  -9   -0.55    0.40
   3   0   9   -0.11    0.38
  -3   0  -7    0.12    0.36
  -3   0  -7   -0.73    0.38
   3   0   7   -0.19    0.40
  -3   0  -7   -0.49    0.34
  -3   0  -7    0.06    0.62
   3   0   7   -0.38    0.44
  -3   0  -7   -0.37    0.45
   3   0   7   -0.35    0.47
  -3   0  -7    0.13    0.44
  -3   0  -5    0.16    0.48
  -3   0  -5   -0.38    0.39
   3   0   5    0.05    0.28
   3   0   5   -0.12    0.36
   3   0   5    0.14    0.45
  -3   0  -5   -0.12    0.31
  -3   0  -5    0.28    0.41
  -3   0  -5    0.21    0.50
   3   0   5   -0.19    0.29
   3   0   5   -0.10    0.25
  -3   0  -5    0.09    0.37
  -3   0  -5    0.31    0.43
   3   0   5   -0.13    0.42
   3   0   3   -0.34    0.31
   3   0   3    0.04    0.43
   3   0   3   -0.35    0.24
   3   0   3   -0.36    0.24
  -3   0  -3   -0.29    0.25
   3   0   3   -0.15    0.40
   3   0   3    0.00    0.33
  -3   0  -3   -0.03    0.31
  -3   0  -3   -0.20    0.28
  -3   0  -3   -0.19    0.38
  -3   0  -3    0.25    0.44
  -3   0  -3   -0.70    0.32
  -3   0  -1   -0.05    0.32
   3   0   1    0.14    0.42
   3   0   1   -0.41    0.30
   3   0   1   -0.04    0.28
   3   0   1    0.19    0.32
  -3   0  -1    0.23    0.38
   3   0   1    0.03    0.27
  -3   0  -1   -0.02    0.31
  -3   0  -1    0.00    0.27
  -3   0  -1    0.23    0.27
  -3   0   1   -0.48    0.25
   3   0  -1   -0.59    0.31
   3   0  -1   -0.37    0.29
  -3   0   1   -0.05    0.22
  -3   0   1   -0.32    0.23
   3   0  -1   -0.20    0.27
  -3   0   1    0.32    0.29
  -3   0   3   -0.68    0.20
   3   0  -3    0.14    0.24
   3   0  -3   -0.28    0.30
  -3   0   3   -0.07    0.30
   3   0  -3   -0.15    0.33
  -3   0   5    0.16    0.36
  -3   0   5    0.21    0.32
   3   0  -5    0.44    0.37
  -3   0   7    0.16    0.34
   3   0  -7    0.49    0.48
  -3   0   7    0.26    0.40
  -3   0   9    0.28    0.41
  -3   0   9   -0.18    0.43
   3   0  -9   -0.64    0.39
  -3   0  11    0.51    0.52
   3   0 -11    0.60    0.59
   3   0 -11   -0.17    0.47
   3   0 -11    0.04    0.25
  -3   0  11    0.01    0.50
   3   0 -13   -0.15    0.63
  -3   0  13   -0.29    0.57
  -3   0  13   -0.04    0.50
   3   0 -13   -0.03    0.32
   3   0 -13    0.38    0.66
   3   0 -15    0.50    0.73
  -3   0  15    0.17    0.63
   3   0 -15   -0.71    0.68
  -3   0  15   -0.15    0.67
   3   0 -17    0.10    0.95
   3   0 -19   -1.20    0.78
   3   0 -21   -0.03    1.18
  -3  -1 -20    3.51    1.47
  -3   1 -20    3.16    1.43
  -3  -1 -18   11.24    2.30
  -3   1 -18    8.58    2.01
   3  -1  16   14.87    2.37
  -3  -1 -16   19.01    2.66
  -3   1 -16   13.62    2.29
  -3  -1 -14   23.71    2.79
   3  -1  14   27.45    3.06
   3   1  14   21.78    2.59
  -3   1 -14   24.14    2.75
   3  -1  12   51.05    2.11
  -3  -1 -12   44.20    3.07
  -3  -1 -12   51.46    2.94
   3  -1  12   60.98    3.59
  -3   1 -12   56.54    3.33
   3   1  12   57.51    3.29
   3   1  12   54.26    2.33
  -3  -1 -10   31.04    2.00
  -3  -1 -10   30.44    2.21
   3  -1  10   32.06    2.42
  -3  -1 -10   27.19    1.99
   3  -1  10   27.21    1.60
   3   1  10   27.43    2.09
  -3   1 -10   29.51    2.19
   3   1  10   28.65    1.70
  -3   1 -10   29.30    1.89
  -3  -1  -8   25.67    1.78
  -3  -1  -8   27.49    1.75
   3  -1   8   25.16    1.98
  -3  -1  -8   26.52    2.11
   3  -1   8   25.77    1.54
  -3  -1  -8   25.55    1.73
   3  -1   8   23.62    1.96
  -3  -1  -8   26.45    1.91
  -3  -1  -8   26.63    1.82
  -3   1  -8   25.96    1.87
   3   1   8   28.41    2.14
  -3   1  -8   24.74    1.65
  -3   1  -8   28.44    1.70
  -3   1  -8   25.07    2.00
  -3   1  -8   27.48    1.48
   3   1   8   23.39    1.56
   3   1   8   25.48    1.88
  -3  -1  -6    7.70    1.04
   3  -1   6    8.54    0.69
   3  -1   6    8.09    0.65
  -3  -1  -6   10.36    1.24
   3  -1   6    7.61    1.21
   3  -1   6    7.64    0.64
  -3  -1  -6    7.20    1.01
  -3  -1  -6    7.38    1.33
   3  -1   6    7.00    0.93
   3  -1   6    7.60    1.29
  -3  -1  -6    9.30    1.16
  -3  -1  -6    9.37    1.10
  -3   1  -6    8.74    0.89
  -3   1  -6    9.26    1.20
  -3   1  -6    8.40    1.03
  -3   1  -6   10.33    1.42
   3   1   6    9.08    0.79
   3   1   6    8.06    1.17
  -3   1  -6    9.43    1.43
   3   1   6    7.15    0.99
   3   1   6    8.88    0.85
  -3   1  -6    8.91    1.03
  -3   1  -6    8.55    1.20
   3   1   6    5.69    1.13
   3  -1   4  191.47    5.90
   3  -1   4  187.03    6.09
   3  -1   4  189.23    5.86
  -3  -1  -4  179.87    6.25
   3  -1   4  188.84    6.28
  -3  -1  -4  183.17    5.73
  -3  -1  -4  191.38    6.80
  -3  -1  -4  187.06    5.93
  -3  -1  -4  193.44    5.70
   3  -1   4  189.50    6.74
   3  -1   4  191.60    5.67
  -3  -1  -4  177.86    6.01
  -3   1  -4  192.80    5.77
   3   1   4  193.91    5.72
  -3   1  -4  187.62    5.83
   3   1   4  200.42    5.98
  -3   1  -4  188.85    6.26
   3   1   4  186.80    6.16
  -3   1  -4  193.46    6.69
   3   1   4  192.32    5.92
  -3   1  -4  185.94    6.68
   3   1   4  182.90    6.77
   3   1   4  192.36    6.09
  -3  -1  -2  504.91   15.31
  -3  -1  -2  523.28   14.14
  -3  -1  -2  539.74   15.17
   3  -1   2  506.73   14.63
  -3  -1  -2  524.52   15.80
   3  -1   2  516.56   15.72
   3  -1   2  523.43   15.32
   3  -1   2  506.66   14.51
   3  -1   2  506.35   15.39
  -3  -1  -2  525.09   13.51
   3  -1   2  525.34   13.51
  -3  -1  -2  519.90   14.65
  -3   1  -2  519.23   15.43
  -3   1  -2  527.24   15.69
  -3   1  -2  525.50   13.68
   3   1   2  503.54   13.49
   3   1   2  502.91   15.78
   3   1   2  522.22   15.33
  -3   1  -2  504.97   13.51
   3   1   2  505.41   14.61
  -3  -1   0   36.16    1.56
  -3  -1   0   36.30    1.57
  -3  -1   0   39.17    1.54
   3  -1   0   41.50    1.87
   3  -1   0   41.40    1.64
  -3  -1   0   35.81    1.73
  -3  -1   0   36.14    1.71
   3  -1   0   43.48    2.00
   3   1   0   40.93    1.65
  -3   1   0   38.52    1.96
   3   1   0   36.73    1.73
   3   1   0   42.20    1.60
   3   1   0   42.22    1.63
   3   1   0   36.34    1.89
  -3   1   0   33.01    1.81
  -3   1   0   36.41    1.63
  -3   1   0   37.49    1.58
  -3  -1   2   14.79    0.63
   3  -1  -2   14.01    1.11
  -3  -1   2   13.66    0.64
   3  -1  -2   11.37    0.89
  -3  -1   2   14.24    0.98
  -3  -1   2   15.25    0.79
  -3  -1   2   13.94    1.02
   3   1  -2   12.98    0.93
  -3   1   2   15.18    1.02
   3   1  -2   11.62    0.98
  -3   1   2   13.62    1.11
  -3   1   2   13.66    0.72
   3   1  -2   13.72    0.78
  -3  -1   4  249.99    7.48
  -3  -1   4  254.03    7.30
   3  -1  -4  238.06    7.97
   3   1  -4  249.39    7.51
   3   1  -4  245.38    7.40
  -3   1   4  249.61    7.40
  -3  -1   6   47.68    2.32
   3  -1  -6   46.81    2.34
  -3  -1   6   53.51    2.24
   3  -1  -6   48.40    2.06
   3   1  -6   50.09    2.08
  -3   1   6   48.80    2.03
  -3   1   6   51.01    2.39
   3  -1  -8  112.73    4.35
  -3  -1   8  111.14    4.10
  -3  -1   8  108.02    4.33
   3  -1  -8  113.38    3.98
  -3   1   8  120.16    4.03
   3   1  -8  118.76    4.16
  -3   1   8  115.79    4.40
   3  -1 -10   29.92    2.06
  -3  -1  10   30.81    1.88
  -3  -1  10   29.34    2.02
  -3   1  10   32.64    2.14
   3   1 -10   29.79    1.25
  -3   1  10   27.86    1.72
   3   1 -10   29.72    1.88
   3   1 -10   28.77    1.93
  -3  -1  12   77.82    3.56
   3  -1 -12   79.93    3.88
  -3  -1  12   82.81    3.94
   3  -1 -12   79.03    3.26
  -3   1  12   81.44    3.50
   3   1 -12   81.39    3.84
   3   1 -12   83.04    3.04
  -3   1  12   82.43    3.90
   3   1 -12   85.12    3.64
   3  -1 -14   48.97    3.07
  -3  -1  14   50.53    3.16
  -3  -1  14   48.81    2.88
   3   1 -14   56.62    2.62
   3   1 -14   55.64    3.36
  -3   1  14   46.02    3.01
   3   1 -14   49.73    2.88
  -3   1  14   49.04    2.86
   3  -1 -16    7.46    1.68
  -3  -1  16    7.63    1.63
   3  -1 -16    6.44    1.51
  -3   1  16    8.53    1.63
   3   1 -16    9.44    1.83
   3  -1 -18   30.28    3.46
   3   1 -18   25.96    3.14
   3  -1 -20   21.03    3.10
   3   1 -20   18.06    2.81
   3  -1 -22    5.50    2.01
   3   1 -22    5.65    1.87
   3  -2  19    7.22    2.11
  -3  -2 -19    4.49    1.63
  -3   2 -19    0.98    1.10
   3  -2  17   10.18    2.18
  -3  -2 -17    6.55    1.78
  -3   2 -17    5.43    1.73
   3  -2  15    1.42    1.10
  -3  -2 -15   -0.51    0.79
  -3   2 -15    0.92    0.95
  -3  -2 -13    3.13    1.23
  -3  -2 -13    5.01    1.33
   3  -2  13    4.31    0.49
   3  -2  13    4.64    1.51
   3   2  13    3.90    0.77
  -3   2 -13    3.20    1.18
  -3  -2 -11   20.53    2.28
   3  -2  11   24.73    2.70
  -3  -2 -11   19.43    2.14
   3  -2  11   22.35    1.37
  -3  -2 -11   20.46    2.02
   3   2  11   18.11    1.45
   3   2  11   22.20    2.26
  -3   2 -11   19.99    2.29
   3  -2   9    5.65    0.89
  -3  -2  -9    2.62    0.80
   3  -2   9    3.72    1.18
  -3  -2  -9    3.61    0.94
  -3  -2  -9    4.56    1.10
   3   2   9    4.27    0.86
   3   2   9    3.72    0.94
  -3   2  -9    3.55    0.82
  -3   2  -9    3.07    0.93
  -3  -2  -7   30.40    1.88
   3  -2   7   25.87    2.04
  -3  -2  -7   27.90    1.86
  -3  -2  -7   33.85    1.97
  -3  -2  -7   30.10    2.27
   3  -2   7   31.36    2.20
   3  -2   7   26.41    1.63
  -3  -2  -7   27.09    1.98
  -3   2  -7   29.07    1.88
  -3   2  -7   30.42    2.15
  -3   2  -7   30.43    2.02
   3   2   7   28.62    1.33
  -3   2  -7   27.74    1.74
   3   2   7   30.18    2.24
   3   2   7   27.05    1.31
   3   2   7   30.69    1.89
   3   2   7   28.42    1.76
  -3  -2  -5   27.44    1.73
   3  -2   5   27.79    1.41
   3  -2   5   29.65    1.49
  -3  -2  -5   30.12    1.77
   3  -2   5   27.19    1.91
   3  -2   5   27.64    1.62
   3  -2   5   30.12    2.09
  -3  -2  -5   31.40    2.15
  -3  -2  -5   27.98    1.71
  -3  -2  -5   28.25    1.84
   3  -2   5   28.09    1.43
   3  -2   5   30.67    2.09
   3   2   5   25.98    1.52
   3   2   5   29.51    2.09
  -3   2  -5   31.04    2.02
  -3   2  -5   29.22    1.76
   3   2   5   28.31    1.70
  -3   2  -5   25.22    1.71
  -3   2  -5   27.29    1.64
   3   2   5   26.96    1.68
  -3   2  -5   27.42    2.01
   3  -2   3   81.44    3.53
   3  -2   3   80.49    3.06
   3  -2   3   73.10    2.97
  -3  -2  -3   77.20    3.08
   3  -2   3   79.74    3.33
  -3  -2  -3   90.41    3.07
  -3  -2  -3   82.36    3.19
  -3  -2  -3   74.07    3.51
   3  -2   3   74.37    2.89
  -3  -2  -3   77.78    3.19
   3  -2   3   78.42    3.50
  -3   2  -3   81.49    3.01
   3   2   3   78.94    3.13
  -3   2  -3   79.00    3.04
   3   2   3   77.35    2.96
  -3   2  -3   80.44    3.48
   3   2   3   81.95    3.06
   3   2   3   80.71    3.63
  -3   2  -3   80.21    3.52
   3   2   3   77.30    3.01
   3  -2   1  176.86    5.35
   3  -2   1  180.41    5.72
  -3  -2  -1  182.77    5.75
  -3  -2  -1  180.51    5.81
   3  -2   1  175.35    6.22
   3  -2   1  175.32    5.76
  -3  -2  -1  190.74    5.68
  -3  -2  -1  181.90    5.61
   3  -2   1  180.32    6.27
  -3  -2  -1  178.55    5.34
   3   2   1  183.43    6.38
   3   2   1  177.33    5.63
   3   2   1  178.94    5.89
  -3   2  -1  173.60    5.35
  -3   2  -1  183.34    5.50
   3   2   1  174.87    5.63
   3   2   1  176.14    5.34
  -3   2  -1  189.08    6.35
  -3  -2   1  105.49    3.67
   3  -2  -1  106.37    4.13
  -3  -2   1  104.70    3.29
  -3  -2   1  108.34    3.16
   3  -2  -1  105.20    3.62
  -3  -2   1  103.67    3.70
   3  -2  -1  111.25    3.58
   3  -2  -1  108.01    3.43
   3   2  -1  105.30    3.41
  -3   2   1  103.57    4.10
  -3   2   1  106.55    3.39
   3   2  -1  106.41    3.54
  -3   2   1  102.84    3.59
  -3   2   1  104.72    3.56
   3   2  -1  112.44    3.74
   3   2  -1  102.92    3.99
  -3  -2   3   92.06    2.47
  -3  -2   3   91.46    2.46
   3  -2  -3  100.74    3.92
   3  -2  -3   92.59    3.42
  -3  -2   3   90.35    3.29
  -3  -2   3   93.60    3.50
  -3   2   3   93.22    3.41
  -3   2   3   91.15    2.81
  -3   2   3   90.75    2.82
   3   2  -3   94.88    3.46
   3   2  -3   96.08    3.55
  -3   2   3   98.71    3.85
   3  -2  -5   40.07    2.29
  -3  -2   5   41.60    1.90
   3  -2  -5   41.14    2.12
  -3  -2   5   41.46    2.15
   3   2  -5   37.27    1.65
  -3   2   5   39.02    2.10
   3   2  -5   38.27    1.72
   3  -2  -7  139.44    5.23
  -3  -2   7  149.11    5.40
  -3  -2   7  146.05    4.89
   3   2  -7  147.96    4.84
  -3   2   7  155.35    5.39
   3  -2  -9    3.90    0.90
  -3  -2   9    3.01    0.85
   3  -2  -9    3.68    0.63
  -3  -2   9    2.14    0.61
   3   2  -9    3.66    0.84
  -3   2   9    5.84    1.13
  -3   2   9    3.74    0.66
   3  -2 -11    4.96    1.13
  -3  -2  11    6.19    1.03
   3  -2 -11    6.08    0.89
  -3  -2  11    3.32    1.01
  -3   2  11    4.25    1.03
   3   2 -11    5.64    1.01
   3   2 -11    5.03    1.14
  -3   2  11    4.78    0.78
   3  -2 -13   29.29    2.81
  -3  -2  13   24.00    2.61
  -3  -2  13   27.99    1.94
   3   2 -13   26.99    1.55
  -3   2  13   28.85    2.81
   3   2 -13   27.03    1.93
   3   2 -13   23.50    2.47
  -3  -2  15    5.07    1.44
   3  -2 -15    4.17    1.33
  -3   2  15    5.05    1.37
   3   2 -15    4.40    1.21
   3  -2 -17    9.95    2.01
  -3  -2  17    8.74    1.86
   3  -2 -17    6.57    1.62
   3   2 -17    7.02    1.67
   3  -2 -19    8.71    2.09
  -3  -2  19    8.12    1.86
   3   2 -19    4.36    1.62
   3  -2 -21    2.05    1.37
   3   2 -21    0.61    1.25
   3  -3  20    7.90    2.31
  -3  -3 -20    8.66    2.16
  -3   3 -20    7.79    2.16
   3  -3  18   20.85    3.31
  -3  -3 -18   18.68    2.85
  -3   3 -18   15.33    2.73
  -3  -3 -16   18.49    2.68
   3  -3  16   34.63    3.95
  -3   3 -16   29.20    3.43
  -3  -3 -14   13.57    2.20
  -3  -3 -14   20.03    2.56
   3  -3  14   18.10    2.69
  -3   3 -14   18.30    2.55
   3   3  14   18.22    1.28
  -3  -3 -12   11.37    1.92
   3  -3  12   10.56    1.04
   3  -3  12   12.73    2.15
  -3  -3 -12   11.60    1.80
  -3   3 -12    9.83    1.71
   3   3  12   11.60    1.40
   3  -3  10   84.67    3.24
  -3  -3 -10   85.97    4.24
  -3  -3 -10   83.84    3.97
   3  -3  10   81.34    4.37
   3   3  10   86.30    3.55
  -3   3 -10   90.09    4.29
   3   3  10   84.55    3.69
  -3  -3  -8   39.02    2.61
   3  -3   8   40.03    2.04
  -3  -3  -8   40.30    2.40
  -3  -3  -8   38.01    2.33
   3  -3   8   41.94    2.80
   3   3   8   36.33    1.39
   3   3   8   40.57    2.20
  -3   3  -8   39.38    2.53
   3   3   8   36.97    2.17
   3   3   8   38.22    1.40
  -3  -3  -6   91.53    3.84
   3  -3   6   91.35    4.16
   3  -3   6   89.92    3.44
  -3  -3  -6   91.02    4.02
   3  -3   6   92.91    3.14
  -3  -3  -6   91.42    3.88
   3  -3   6   90.71    3.02
  -3  -3  -6   84.05    3.57
  -3  -3  -6   91.87    4.46
   3  -3   6   87.47    3.04
   3  -3   6   95.35    4.22
   3  -3   6   97.03    4.42
   3   3   6   94.58    3.45
  -3   3  -6   89.68    3.65
   3   3   6   87.89    3.53
  -3   3  -6   91.16    3.71
   3   3   6   83.90    4.27
   3   3   6   92.15    3.55
  -3   3  -6   95.57    3.95
   3  -3   4  248.88    8.84
  -3  -3  -4  257.75    8.51
   3  -3   4  255.54    8.15
  -3  -3  -4  252.57    8.19
   3  -3   4  250.79    8.32
   3  -3   4  259.69    7.55
   3  -3   4  261.48    7.93
  -3  -3  -4  271.10    7.74
   3  -3   4  262.79    8.96
  -3  -3  -4  260.90    8.21
   3   3   4  250.46    8.00
   3   3   4  255.97    7.77
  -3   3  -4  259.32    7.72
  -3   3  -4  258.54    7.92
  -3   3  -4  247.49    8.81
   3   3   4  259.30    9.12
   3   3   4  257.53    8.41
   3   3   4  257.19    7.68
   3  -3   2  403.78   12.84
   3  -3   2  404.99   11.94
   3  -3   2  414.47   13.00
  -3  -3  -2  364.95   11.45
  -3  -3  -2  403.95   11.95
  -3  -3  -2  411.98   12.47
   3  -3   2  402.22   11.11
   3  -3   2  401.61   11.91
  -3  -3  -2  415.78   11.15
  -3  -3  -2  402.80   11.82
   3   3   2  412.92   12.51
  -3   3  -2  403.76   11.16
   3   3   2  428.84   13.20
  -3   3  -2  410.72   12.80
  -3   3  -2  408.76   11.47
   3   3   2  414.05   11.17
   3   3   2  387.17   11.53
  -3  -3   0   83.31    2.97
   3  -3   0   91.11    3.13
   3  -3   0   87.78    3.75
   3  -3   0   81.40    3.21
   3  -3   0   83.29    3.19
  -3  -3   0   83.05    3.01
  -3  -3   0   78.89    3.13
  -3  -3   0   80.83    3.03
  -3  -3   0   80.87    3.30
   3  -3   0   88.23    3.04
  -3   3   0   82.84    3.29
   3   3   0   76.48    3.11
  -3   3   0   79.71    3.03
   3   3   0   86.16    3.07
  -3   3   0   82.78    3.64
  -3   3   0   80.94    3.00
   3   3   0   85.00    3.23
  -3   3   0   86.88    3.12
   3  -3  -2  105.13    4.33
  -3  -3   2  100.07    3.74
   3  -3  -2  109.48    3.81
   3  -3  -2  102.36    3.56
   3  -3  -2  105.34    3.55
  -3  -3   2  101.65    3.34
  -3  -3   2  103.64    3.88
   3  -3  -2  108.98    3.69
   3   3  -2  103.39    3.55
   3   3  -2  107.09    4.16
   3   3  -2  106.22    3.93
  -3   3   2  101.36    3.75
  -3   3   2  106.56    4.35
  -3   3   2  101.22    3.46
   3   3  -2  104.12    3.43
  -3  -3   4   81.87    3.21
  -3  -3   4   84.98    2.32
   3  -3  -4   93.24    3.56
   3  -3  -4   87.35    2.93
   3  -3  -4   95.34    4.01
  -3  -3   4   85.77    3.57
  -3  -3   4   84.82    2.32
   3   3  -4   89.40    2.83
  -3   3   4   83.11    2.82
  -3   3   4   84.86    2.82
   3   3  -4   88.20    2.90
  -3   3   4   80.08    3.44
   3  -3  -6  287.95    9.80
  -3  -3   6  279.03    8.37
  -3  -3   6  285.85    9.15
   3  -3  -6  286.05    8.95
  -3   3   6  282.44    7.16
  -3   3   6  298.75    9.09
   3   3  -6  283.38    8.18
  -3   3   6  282.57    7.17
   3  -3  -8   35.44    2.39
  -3  -3   8   34.48    2.32
  -3  -3   8   33.45    1.82
  -3   3   8   36.18    2.37
   3   3  -8   37.03    2.04
   3  -3 -10   65.59    3.52
  -3  -3  10   67.55    2.81
  -3  -3  10   65.75    3.59
  -3   3  10   57.10    3.32
   3   3 -10   63.88    3.10
   3  -3 -12   73.41    3.94
  -3  -3  12   70.01    3.97
  -3   3  12   71.55    3.89
   3   3 -12   69.91    3.57
  -3  -3  14   34.23    3.43
   3  -3 -14   36.61    3.00
   3   3 -14   33.07    2.65
  -3   3  14   34.07    3.35
   3  -3 -16   10.74    2.07
  -3  -3  16    5.92    1.63
   3   3 -16    7.09    1.58
  -3  -3  18   12.20    2.34
   3  -3 -18    6.95    1.84
   3   3 -18   11.08    2.12
   3  -3 -20   20.73    3.14
  -3  -3  20   17.12    2.78
   3   3 -20   15.66    2.70
   3  -3 -22    4.63    1.69
   3   3 -22    5.42    1.84
   3  -4  19    1.99    1.48
  -3  -4 -19    4.90    1.77
  -3   4 -19    3.49    1.55
  -3  -4 -17    2.46    1.24
   3  -4  17    3.28    1.56
  -3   4 -17    5.55    1.71
  -3  -4 -15    7.63    1.84
   3  -4  15    4.17    1.56
  -3  -4 -15    3.97    1.37
   3   4  15    4.74    0.70
  -3   4 -15    2.69    1.41
  -3  -4 -13    3.64    1.42
   3  -4  13    5.62    1.65
   3  -4  13    3.13    0.48
   3   4  13    3.65    0.89
  -3   4 -13    2.95    1.18
  -3  -4 -11   11.53    1.87
   3  -4  11   11.91    1.23
  -3  -4 -11   12.05    1.81
   3  -4  11   12.63    2.23
   3   4  11   11.62    1.47
  -3   4 -11   14.66    2.18
  -3  -4  -9   25.81    2.66
   3  -4   9   32.44    2.67
  -3  -4  -9   29.98    2.27
   3  -4   9   28.80    1.81
   3   4   9   29.53    2.03
  -3   4  -9   31.49    2.41
  -3  -4  -7    5.05    1.11
  -3  -4  -7    4.48    1.02
   3  -4   7    6.10    1.46
  -3  -4  -7    3.28    1.14
   3  -4   7    6.41    1.03
  -3   4  -7    5.03    1.03
  -3   4  -7    5.70    1.18
   3   4   7    5.21    0.94
   3   4   7    3.65    0.93
   3  -4   5    7.66    1.08
   3  -4   5   10.32    1.52
  -3  -4  -5    7.09    1.30
  -3  -4  -5    7.10    1.18
   3  -4   5    8.39    0.99
   3  -4   5    8.09    1.44
  -3  -4  -5    8.47    1.25
  -3  -4  -5    8.62    1.22
   3  -4   5   11.91    1.69
   3  -4   5    9.55    0.98
   3  -4   5    7.97    0.91
   3   4   5    7.04    1.15
   3   4   5   10.99    1.20
   3   4   5    7.79    1.50
   3   4   5    3.96    0.83
  -3   4  -5    8.06    1.29
  -3   4  -5    7.31    1.18
   3  -4   3  102.02    3.94
   3  -4   3   97.29    3.94
   3  -4   3  101.86    4.25
  -3  -4  -3  103.96    4.08
  -3  -4  -3  105.32    4.33
  -3  -4  -3  107.87    4.21
   3  -4   3  102.49    4.60
   3  -4   3   97.93    3.82
  -3  -4  -3  103.55    3.75
  -3  -4  -3   98.99    3.91
   3  -4   3  108.43    4.64
  -3   4  -3   96.26    4.44
   3   4   3  107.93    4.81
  -3   4  -3  107.60    4.02
   3   4   3  102.29    3.93
   3   4   3  106.80    3.78
  -3   4  -3  100.95    4.11
   3  -4   1   24.07    1.62
   3  -4   1   22.36    1.87
  -3  -4  -1   22.67    1.51
   3  -4   1   29.41    1.82
  -3  -4  -1   20.53    1.69
   3  -4   1   23.29    1.66
  -3  -4  -1   22.84    1.52
   3  -4   1   23.99    1.41
  -3  -4  -1   23.03    1.57
  -3  -4  -1   24.22    1.54
   3   4   1   29.05    1.66
  -3   4  -1   25.57    1.95
  -3   4  -1   22.73    1.41
  -3   4  -1   20.64    1.59
  -3   4  -1   22.13    1.70
   3   4   1   27.86    1.72
   3   4   1   24.48    1.60
  -3  -4   1   71.06    3.16
   3  -4  -1   72.63    2.92
   3  -4  -1   75.18    3.08
   3  -4  -1   73.32    3.02
  -3  -4   1   74.18    2.87
  -3  -4   1   67.23    2.37
  -3  -4   1   73.68    3.16
   3  -4  -1   76.58    3.64
  -3  -4   1   75.33    2.71
   3  -4  -1   73.22    3.00
  -3  -4   1   74.44    2.65
   3   4  -1   73.43    2.93
  -3   4   1   69.90    2.88
  -3   4   1   70.18    2.96
   3   4  -1   73.61    3.13
   3   4  -1   78.82    3.09
  -3   4   1   75.85    3.06
  -3   4   1   69.96    3.51
  -3  -4   3   16.12    1.04
   3  -4  -3   15.42    1.82
   3  -4  -3   16.24    1.63
   3  -4  -3   12.81    1.04
  -3  -4   3   19.73    1.44
   3  -4  -3   16.20    1.55
  -3  -4   3   20.68    1.89
   3  -4  -3   13.99    1.23
  -3  -4   3   15.32    1.04
   3   4  -3   15.03    0.72
   3   4  -3   15.50    1.14
  -3   4   3   14.12    1.30
   3   4  -3   14.61    1.05
  -3   4   3   14.72    1.50
  -3   4   3   17.46    1.89
   3  -4  -5  148.37    4.91
  -3  -4   5  144.36    3.87
  -3  -4   5  141.85    3.85
   3  -4  -5  145.78    5.96
  -3  -4   5  140.54    4.91
   3  -4  -5  152.88    5.45
  -3  -4   5  147.57    5.54
   3   4  -5  146.16    4.70
   3   4  -5  144.70    4.28
   3   4  -5  144.94    4.75
  -3   4   5  153.54    5.46
   3   4  -5  147.14    4.48
  -3   4   5  135.31    4.45
  -3   4   5  152.38    4.57
  -3  -4   7    1.07    0.73
  -3  -4   7    1.26    0.50
   3  -4  -7    1.40    0.48
   3  -4  -7    1.02    0.74
   3  -4  -7    1.53    0.85
  -3   4   7    1.57    0.38
  -3   4   7    2.10    0.41
   3   4  -7    1.48    0.52
   3   4  -7    1.38    0.63
  -3   4   7    2.02    0.87
  -3  -4   9   17.82    1.32
  -3  -4   9   18.72    2.24
   3  -4  -9   22.50    2.31
   3   4  -9   20.37    1.59
   3   4  -9   13.83    1.57
  -3   4   9   16.73    2.02
   3  -4 -11   14.25    2.12
  -3  -4  11   11.40    1.90
   3   4 -11   13.31    1.75
  -3   4  11   14.12    2.06
  -3  -4  13    5.24    1.44
   3  -4 -13    8.22    1.75
   3   4 -13    5.84    1.44
  -3   4  13    7.77    1.65
  -3  -4  15    2.73    1.29
   3  -4 -15    3.20    1.38
   3   4 -15    0.44    0.85
  -3  -4  17    3.63    1.56
   3  -4 -17    0.53    1.17
   3   4 -17    2.53    1.19
   3  -4 -19    7.98    2.15
  -3  -4  19    6.17    1.93
   3   4 -19    5.43    1.67
   3  -4 -21    5.17    1.82
  -3  -4  21    5.16    1.87
   3   4 -21    5.92    1.81
  -3  -5 -18    9.85    2.25
   3  -5  18   13.76    2.80
  -3   5 -18   12.18    2.57
  -3  -5 -16    5.02    1.77
   3  -5  16   10.34    2.47
  -3  -5 -16   12.95    2.29
  -3   5 -16    7.46    1.90
  -3  -5 -14   12.19    2.25
   3  -5  14    9.98    2.16
   3   5  14   12.17    1.48
  -3   5 -14   14.90    2.54
   3   5  14    9.87    1.32
   3  -5  12    6.18    1.61
   3  -5  12    5.27    0.84
  -3  -5 -12    5.20    1.58
  -3   5 -12    4.84    1.51
   3   5  12    5.15    1.09
   3  -5  10   14.84    2.28
   3  -5  10   11.83    1.37
  -3  -5 -10   12.21    1.84
  -3  -5 -10   11.56    2.12
   3   5  10   17.83    1.97
  -3   5 -10   14.87    2.10
  -3  -5  -8   11.58    1.89
  -3  -5  -8   13.03    1.81
   3  -5   8   11.43    1.95
   3  -5   8   12.44    1.48
   3   5   8   11.60    1.02
  -3   5  -8   12.43    1.81
   3   5   8    8.79    1.45
   3  -5   6   19.35    2.33
   3  -5   6   19.19    1.81
   3  -5   6   19.90    1.22
  -3  -5  -6   22.95    2.46
   3  -5   6   19.77    1.17
  -3  -5  -6   22.57    2.20
   3  -5   6   14.93    1.98
  -3  -5  -6   19.59    2.08
   3   5   6   17.17    1.36
  -3   5  -6   21.96    2.29
   3   5   6   20.87    1.66
  -3   5  -6   20.88    2.08
   3   5   6   23.09    2.15
   3  -5   4   69.97    3.03
  -3  -5  -4   65.43    3.27
  -3  -5  -4   65.87    3.19
  -3  -5  -4   68.25    3.58
   3  -5   4   69.51    3.53
   3  -5   4   71.16    3.04
   3  -5   4   68.77    3.71
   3  -5   4   66.56    3.08
   3  -5   4   69.85    3.77
  -3  -5  -4   62.42    3.25
  -3   5  -4   70.21    3.27
   3   5   4   71.33    2.89
  -3   5  -4   62.42    3.30
   3   5   4   69.89    3.28
  -3  -5  -2  161.08    5.58
   3  -5   2  160.99    5.96
  -3  -5  -2  160.73    5.77
   3  -5   2  175.78    6.66
  -3  -5  -2  152.11    5.89
  -3  -5  -2  161.34    5.48
   3  -5   2  165.00    5.22
   3  -5   2  162.35    5.76
   3  -5   2  157.50    5.52
  -3  -5  -2  168.93    6.12
  -3   5  -2  165.75    5.17
   3   5   2  163.62    5.69
   3   5   2  155.03    5.48
  -3   5  -2  159.88    5.92
  -3   5  -2  166.45    5.69
  -3   5  -2  158.72    6.41
   3  -5   0   24.84    1.76
   3  -5   0   26.84    1.85
  -3  -5   0   21.61    1.49
   3  -5   0   24.23    2.07
  -3  -5   0   26.65    1.92
   3  -5   0   22.20    1.68
  -3  -5   0   26.96    1.38
  -3  -5   0   22.38    1.50
  -3  -5   0   28.30    1.80
   3  -5   0   24.91    1.63
  -3  -5   0   23.30    1.68
  -3   5   0   23.33    1.89
   3   5   0   22.81    1.65
  -3   5   0   23.57    2.00
  -3   5   0   23.59    1.60
  -3   5   0   24.43    1.74
   3   5   0   22.41    1.72
   3   5   0   20.93    1.65
   3  -5  -2   20.01    1.85
  -3  -5   2   14.81    0.86
  -3  -5   2   18.05    1.39
   3  -5  -2   19.16    1.61
  -3  -5   2   16.79    1.80
   3  -5  -2   17.55    1.71
  -3  -5   2   13.41    1.55
   3  -5  -2   18.65    1.34
   3  -5  -2   21.72    2.32
  -3  -5   2   15.87    0.91
  -3   5   2   16.31    1.58
   3   5  -2   17.82    1.41
  -3   5   2   18.03    2.04
  -3   5   2   16.45    1.66
   3   5  -2   14.70    1.62
   3   5  -2   19.91    1.51
  -3   5   2   14.71    1.23
   3  -5  -4   41.45    1.85
  -3  -5   4   40.42    2.52
   3  -5  -4   42.18    2.32
  -3  -5   4   42.18    1.89
   3  -5  -4   42.76    2.35
   3  -5  -4   41.26    2.84
   3  -5  -4   44.79    2.58
  -3  -5   4   41.28    1.91
  -3  -5   4   41.71    2.27
   3   5  -4   48.39    2.25
   3   5  -4   45.94    1.81
  -3   5   4   43.96    2.57
  -3   5   4   39.71    2.15
   3   5  -4   41.49    2.08
   3  -5  -6   10.05    1.64
  -3  -5   6    9.72    0.56
  -3  -5   6    8.66    0.55
  -3  -5   6    7.52    1.37
   3  -5  -6   11.08    1.26
  -3  -5   6    8.48    1.14
   3  -5  -6   13.40    1.55
   3  -5  -6    9.94    1.56
   3   5  -6    9.67    0.83
  -3   5   6   11.12    1.60
  -3   5   6   11.26    1.20
   3   5  -6    8.59    1.01
  -3   5   6    9.11    1.08
   3   5  -6    8.44    1.19
  -3  -5   8   55.13    2.49
   3  -5  -8   53.23    3.24
   3  -5  -8   51.59    2.47
  -3  -5   8   52.60    3.23
   3  -5  -8   41.29    3.11
  -3   5   8   51.75    2.06
   3   5  -8   53.01    2.74
   3   5  -8   53.64    2.61
   3   5  -8   53.36    1.81
  -3   5   8   49.97    2.01
  -3   5   8   54.48    3.20
   3  -5 -10   36.12    2.87
   3  -5 -10   34.01    2.87
  -3  -5  10   33.37    2.79
  -3   5  10   32.22    2.70
   3   5 -10   35.66    2.37
   3   5 -10   32.43    2.24
  -3  -5  12   31.24    3.32
   3  -5 -12   30.30    3.18
   3   5 -12   36.05    2.64
  -3   5  12   29.65    3.09
  -3  -5  14    8.40    1.94
   3  -5 -14    5.60    1.75
   3   5 -14    7.40    1.60
   3  -5 -16    8.19    2.08
  -3  -5  16    5.87    1.73
   3   5 -16    8.78    1.79
   3  -5 -18    7.07    1.96
  -3  -5  18    4.90    1.79
   3   5 -18    5.41    1.74
  -3  -5  20    7.36    2.15
   3  -5 -20    7.58    2.23
   3   5 -20    6.45    1.88
   3  -6  17    1.65    1.53
  -3  -6 -17   -0.46    0.87
  -3  -6 -17    3.38    1.62
  -3   6 -17    5.29    1.93
   3  -6  15    4.26    1.79
  -3  -6 -15    3.62    1.64
   3   6  15    3.68    0.88
  -3   6 -15    2.93    1.43
   3  -6  13    6.13    1.76
  -3  -6 -13    2.92    1.58
   3  -6  13    4.93    0.71
   3   6  13    4.09    1.06
   3   6  13    3.57    1.05
  -3   6 -13    6.62    1.75
   3  -6  11    6.38    1.75
  -3  -6 -11    9.22    2.13
  -3  -6 -11    7.70    1.68
   3   6  11   10.92    1.62
  -3   6 -11    8.48    1.78
  -3  -6  -9    4.99    1.32
  -3  -6  -9    4.57    1.50
   3  -6   9    3.56    1.30
   3  -6   9    4.19    0.95
  -3   6  -9    2.00    1.05
   3   6   9    2.51    1.03
  -3  -6  -7    8.64    1.55
   3  -6   7   10.62    1.93
   3  -6   7   13.06    1.60
  -3  -6  -7   12.93    2.12
   3  -6   7   12.39    2.06
  -3  -6  -7   10.24    1.72
   3   6   7   12.36    1.74
  -3   6  -7    9.14    1.68
   3  -6   5    6.61    1.37
   3  -6   5    5.79    1.12
  -3  -6  -5    5.39    1.45
   3  -6   5    4.08    0.78
  -3  -6  -5    4.49    1.16
   3  -6   5    5.04    0.90
  -3  -6  -5    5.12    1.25
   3  -6   5    6.93    1.48
   3   6   5    8.68    1.16
  -3   6  -5    6.59    1.39
  -3   6  -5    4.90    1.15
   3   6   5    4.96    1.25
  -3  -6  -3    2.64    0.99
   3  -6   3    2.10    0.64
  -3  -6  -3    2.01    0.67
   3  -6   3    1.26    0.73
   3  -6   3    1.84    0.83
  -3  -6  -3    1.46    0.77
  -3  -6  -3    2.29    1.04
  -3  -6  -3    2.46    0.82
  -3  -6  -3    1.03    0.61
   3  -6   3    1.20    0.83
   3  -6   3    1.47    0.66
  -3   6  -3    3.06    1.01
   3   6   3    2.48    0.72
   3   6   3    0.57    0.67
  -3   6  -3    2.57    0.98
   3  -6   1    9.33    1.41
  -3  -6  -1   11.40    1.33
  -3  -6  -1    9.49    1.31
  -3  -6  -1    8.97    1.24
   3  -6   1    6.86    1.40
  -3  -6  -1    8.16    1.29
   3  -6   1    5.67    1.17
  -3  -6  -1    9.10    1.09
   3  -6   1    8.54    1.31
   3  -6   1    8.14    1.16
  -3  -6  -1    8.48    1.47
  -3   6  -1    9.67    1.57
   3   6   1    8.18    1.22
   3   6   1    6.86    1.26
  -3   6  -1   11.27    1.51
   3  -6  -1   33.73    2.26
   3  -6  -1   36.17    2.30
  -3  -6   1   38.56    2.44
   3  -6  -1   27.18    1.99
  -3  -6   1   31.11    1.78
  -3  -6   1   37.17    1.76
   3  -6  -1   37.49    2.71
  -3  -6   1   38.41    2.23
  -3  -6   1   36.46    1.88
   3  -6  -1   34.70    2.04
  -3  -6   1   30.59    2.10
   3   6  -1   35.71    2.23
  -3   6   1   34.01    2.15
  -3   6   1   35.98    2.27
   3   6  -1   31.66    2.15
   3   6  -1   35.71    2.26
   3  -6  -3   21.74    1.42
   3  -6  -3   20.63    2.37
  -3  -6   3   21.77    1.23
  -3  -6   3   21.03    2.01
   3  -6  -3   20.93    2.11
  -3  -6   3   21.11    1.55
   3  -6  -3   22.54    1.85
  -3  -6   3   24.57    1.95
   3  -6  -3   18.53    1.99
   3   6  -3   23.45    2.12
   3   6  -3   21.71    1.65
  -3   6   3   24.43    1.94
  -3   6   3   24.06    1.79
   3   6  -3   21.04    1.67
   3   6  -3   21.17    1.22
  -3   6   3   23.89    1.53
  -3  -6   5   11.28    1.70
   3  -6  -5   10.86    1.63
   3  -6  -5   17.30    1.90
  -3  -6   5   12.39    1.49
  -3  -6   5   10.77    1.13
   3  -6  -5   10.50    1.75
   3  -6  -5    8.89    1.33
   3   6  -5   11.57    1.46
  -3   6   5    9.15    1.26
   3   6  -5   10.78    0.96
  -3   6   5   11.29    1.65
   3   6  -5   13.12    1.36
   3  -6  -7   33.95    2.79
  -3  -6   7   33.07    2.65
  -3  -6   7   34.02    1.21
  -3  -6   7   32.59    1.19
   3  -6  -7   31.57    2.59
  -3  -6   7   34.22    2.03
   3  -6  -7   34.05    2.24
   3   6  -7   31.41    2.19
  -3   6   7   35.26    2.02
  -3   6   7   37.67    2.75
   3  -6  -9    1.50    1.12
  -3  -6   9    1.75    1.01
   3  -6  -9    0.48    0.79
  -3   6   9    2.20    1.10
  -3   6   9    2.26    0.61
   3   6  -9    2.08    0.87
  -3  -6  11    3.81    1.42
   3  -6 -11    3.09    1.46
   3   6 -11    6.17    1.32
  -3  -6  13    9.42    2.05
   3   6 -13   13.33    2.00
  -3  -6  15   11.45    2.41
   3  -6 -15    8.06    2.08
   3   6 -15   12.44    2.21
  -3  -6  17    3.42    1.53
   3  -6 -17    4.97    1.91
   3   6 -17    2.31    1.38
   3  -6 -19    5.06    2.13
  -3  -6  19    2.30    1.51
   3   6 -19    6.17    1.91
  -3  -7 -18    0.90    1.36
  -3  -7 -18    1.92    1.29
   3  -7  18    3.41    1.76
  -3   7 -18    2.16    1.48
  -3  -7 -16    0.75    1.31
   3  -7  16    1.20    1.30
  -3   7 -16   -0.02    1.06
   3   7  16    0.23    0.56
   3  -7  14    3.38    1.74
  -3  -7 -14    2.55    1.55
  -3   7 -14    4.40    1.40
   3   7  14    1.18    0.86
   3  -7  12    7.25    1.10
  -3  -7 -12    7.11    1.75
  -3  -7 -12    4.58    1.73
   3  -7  12    4.15    1.61
   3   7  12    5.45    1.34
   3   7  12    5.02    1.22
  -3   7 -12    4.00    1.61
   3  -7  10    6.13    1.77
  -3  -7 -10    4.44    1.62
  -3  -7 -10    6.82    1.64
   3  -7  10    8.44    1.27
  -3   7 -10    5.72    1.64
   3   7  10    9.34    1.63
   3  -7   8    7.58    1.77
  -3  -7  -8   13.20    2.01
  -3  -7  -8    8.48    1.89
   3  -7   8   11.83    1.59
  -3   7  -8   11.34    2.11
   3   7   8   10.32    1.77
   3  -7   6    5.55    0.79
   3  -7   6    6.17    1.26
   3  -7   6    5.91    0.86
   3  -7   6    4.44    1.43
   3  -7   6    4.74    1.33
  -3  -7  -6    8.72    1.60
  -3  -7  -6    4.06    1.31
  -3  -7  -6    6.40    1.77
   3   7   6    6.19    1.41
  -3   7  -6    3.44    1.22
  -3  -7  -4   -0.27    0.79
   3  -7   4    0.61    0.67
   3  -7   4    1.24    0.67
   3  -7   4    1.29    1.02
  -3  -7  -4    0.82    0.83
  -3  -7  -4    0.62    0.76
   3  -7   4    0.75    0.54
   3  -7   4   -0.06    0.70
  -3  -7  -4    0.49    0.58
   3   7   4    1.20    0.94
  -3   7  -4    1.03    1.01
  -3   7  -4    0.51    0.84
  -3  -7  -2   12.88    1.53
  -3  -7  -2   14.30    2.05
   3  -7   2   14.13    1.73
  -3  -7  -2   11.49    1.56
   3  -7   2   12.45    2.02
  -3  -7  -2   12.24    1.78
   3  -7   2   13.67    1.55
  -3  -7  -2   11.94    1.59
   3  -7   2   11.46    1.74
  -3  -7  -2   11.88    1.41
   3  -7   2   13.73    1.84
   3   7   2   14.15    1.88
  -3   7  -2   12.71    1.77
  -3   7  -2   13.62    2.04
   3   7   2   13.50    1.55
  -3  -7   0    5.93    0.93
  -3  -7   0    2.45    1.05
   3  -7   0    5.29    1.37
  -3  -7   0    4.73    0.92
   3  -7   0    5.47    1.26
  -3  -7   0    6.39    1.21
   3  -7   0    7.89    1.31
  -3  -7   0    4.90    1.15
   3  -7   0    5.81    1.33
  -3  -7   0    6.69    1.11
   3  -7   0    4.13    1.01
  -3   7   0    5.78    1.28
   3   7   0    5.65    1.29
   3   7   0    4.36    1.00
   3  -7  -2   20.21    2.47
  -3  -7   2   19.43    2.10
  -3  -7   2   22.91    1.61
  -3  -7   2   23.97    1.39
  -3  -7   2   23.24    2.36
  -3  -7   2   26.29    1.92
   3  -7  -2   24.16    2.09
   3  -7  -2   24.89    2.42
   3  -7  -2   20.19    2.17
   3  -7  -2   24.11    1.74
   3   7  -2   24.72    2.34
  -3   7   2   19.80    2.09
   3   7  -2   22.99    1.93
   3  -7  -4   14.82    2.15
  -3  -7   4   19.03    2.01
  -3  -7   4   18.33    1.76
   3  -7  -4   15.40    1.88
   3  -7  -4   19.16    2.21
   3  -7  -4   16.65    2.07
  -3  -7   4   19.34    2.24
  -3   7   4   15.12    1.86
   3   7  -4   16.08    1.85
  -3  -7   6    6.62    0.96
   3  -7  -6    7.43    1.40
  -3  -7   6    7.20    1.60
   3  -7  -6    6.87    1.60
   3  -7  -6    7.20    1.55
  -3  -7   6   10.09    1.41
  -3   7   6    6.58    1.22
   3   7  -6    6.80    1.28
   3  -7  -8   16.02    2.39
   3  -7  -8   13.98    1.83
  -3  -7   8   14.97    2.26
   3   7  -8   15.16    1.95
  -3   7   8   12.13    1.48
  -3  -7  10    2.76    1.36
   3  -7 -10    1.28    1.18
  -3   7  10    1.40    0.59
   3   7 -10    2.17    1.10
  -3  -7  12    7.34    1.88
   3  -7 -12    9.44    2.07
   3   7 -12    9.48    1.78
   3  -7 -14    3.77    1.58
  -3  -7  14    6.02    1.84
   3   7 -14    5.62    1.50
  -3  -7  16    4.57    1.76
   3  -7 -16    4.01    1.79
   3   7 -16    3.26    1.27
   3  -7 -18    1.89    1.58
  -3  -7  18    2.22    1.46
   3   7 -18    1.42    1.22
  -3  -7  20   -0.99    1.02
  -3  -8 -17    3.81    2.02
   3  -8  17    1.38    1.38
  -3   8 -17    1.00    1.37
   3  -8  15    0.47    1.19
  -3  -8 -15    2.42    1.65
   3   8  15    2.43    0.94
  -3   8 -15    2.64    1.62
   3  -8  13    1.53    0.56
   3  -8  13    1.10    1.32
  -3  -8 -13    0.61    1.37
   3   8  13    3.87    1.18
  -3   8 -13    2.69    1.60
   3   8  13    1.70    0.94
  -3  -8 -11   17.83    2.91
   3  -8  11   15.93    1.72
   3  -8  11   10.74    2.36
   3   8  11   15.83    2.14
  -3   8 -11   16.61    2.67
   3   8  11   15.75    2.16
  -3  -8  -9   21.18    2.94
   3  -8   9   23.72    3.15
  -3  -8  -9   23.08    2.76
   3  -8   9   22.11    2.20
   3   8   9   29.97    2.98
  -3   8  -9   20.91    2.86
  -3  -8  -7   13.58    2.35
  -3  -8  -7   16.12    2.27
   3  -8   7   15.56    2.47
   3  -8   7   18.40    2.09
   3   8   7   14.20    2.05
  -3   8  -7   19.61    2.63
  -3  -8  -5    5.44    1.60
   3  -8   5    7.79    1.46
   3  -8   5    8.26    1.82
  -3  -8  -5    8.87    1.68
  -3  -8  -5    6.91    1.51
   3  -8   5    7.76    1.17
   3  -8   5    5.57    1.57
   3   8   5    8.19    1.67
  -3   8  -5    5.08    1.48
   3  -8   3    1.76    0.86
  -3  -8  -3    1.86    1.31
   3  -8   3    2.06    1.01
   3  -8   3    1.69    1.01
   3  -8   3    1.89    1.14
  -3  -8  -3    1.62    0.95
  -3  -8  -3    1.47    0.89
   3   8   3    1.93    1.02
  -3   8  -3    2.50    1.17
  -3   8  -3    1.67    1.11
   3  -8   1   11.92    2.06
  -3  -8  -1   14.72    2.02
   3  -8   1   11.69    1.78
   3  -8   1    9.89    1.57
   3  -8   1   11.94    1.67
  -3  -8  -1   12.78    2.04
   3  -8   1   14.57    2.02
  -3  -8  -1   14.83    1.73
  -3  -8  -1   13.10    1.70
  -3   8  -1   12.50    1.91
   3   8   1   13.94    2.03
   3   8   1   15.86    1.83
  -3  -8   1   28.74    1.86
  -3  -8   1   27.84    2.27
   3  -8  -1   26.21    2.06
  -3  -8   1   35.65    2.45
   3  -8  -1   28.72    2.78
   3  -8  -1   23.32    2.40
   3  -8  -1   30.99    3.25
   3  -8  -1   29.99    2.41
  -3  -8   1   31.32    2.97
   3   8  -1   29.30    2.30
  -3   8   1   31.80    2.51
   3  -8  -3   21.76    2.45
  -3  -8   3   22.24    2.17
  -3  -8   3   22.37    2.38
   3  -8  -3   19.91    2.64
   3  -8  -3   20.86    2.39
   3  -8  -3   19.93    2.35
  -3  -8   3   21.30    2.36
  -3   8   3   25.16    2.57
  -3  -8   5   54.68    3.18
   3  -8  -5   58.16    3.48
   3  -8  -5   58.87    3.94
  -3  -8   5   61.65    3.77
  -3  -8   5   59.50    2.90
   3  -8  -5   62.38    3.75
  -3   8   5   60.06    3.29
   3   8  -5   58.07    3.34
   3  -8  -7   19.66    2.32
  -3  -8   7   17.22    1.31
   3  -8  -7   16.91    2.53
  -3  -8   7   17.94    2.51
   3   8  -7   16.61    2.13
  -3   8   7   16.94    1.99
  -3  -8   9    0.80    1.10
   3  -8  -9   -0.79    0.91
  -3   8   9    2.38    0.87
   3   8  -9    2.13    0.97
   3  -8 -11    2.84    1.41
  -3  -8  11    0.93    1.09
   3   8 -11    3.41    1.25
  -3   8  11    4.11    0.83
   3  -8 -13   11.86    2.42
  -3  -8  13   11.62    2.44
   3   8 -13    8.85    1.91
  -3  -8  15   10.11    2.35
   3  -8 -15   18.08    3.20
   3   8 -15   10.69    2.25
   3  -8 -17   11.58    2.62
  -3  -8  17    7.32    2.23
   3   8 -17    9.14    2.15
  -3  -8  19   -0.51    1.17
  -3  -9 -14    0.43    1.36
   3  -9  14    0.25    1.34
  -3   9 -14    1.42    1.39
   3   9  14    0.14    0.84
  -3  -9 -12    3.31    1.71
   3  -9  12    7.29    1.16
   3  -9  12    3.89    1.60
   3   9  12    4.88    1.42
   3   9  12    9.31    1.77
  -3   9 -12    4.45    1.67
   3  -9  10   17.16    1.98
   3  -9  10   16.86    2.83
  -3  -9 -10   15.59    2.72
   3   9  10   13.83    2.18
   3   9  10   13.28    2.06
  -3   9 -10   14.29    2.49
  -3  -9  -8    2.46    1.55
   3  -9   8   -0.05    1.05
   3  -9   8    2.14    0.94
   3   9   8    1.71    1.01
  -3   9  -8    2.75    1.35
  -3  -9  -6    3.87    1.36
   3  -9   6    2.80    1.25
  -3  -9  -6    4.93    1.67
  -3  -9  -6    3.71    1.41
   3  -9   6    3.27    1.21
   3   9   6    2.41    1.11
  -3   9  -6    5.45    1.62
   3  -9   4    2.00    1.17
   3  -9   4    1.14    0.78
  -3  -9  -4    0.08    0.78
  -3  -9  -4    0.99    1.17
  -3  -9  -4    0.54    0.97
   3  -9   4    0.65    0.86
   3   9   4    0.42    0.90
  -3   9  -4   -0.14    0.84
  -3  -9  -2    0.60    0.91
   3  -9   2    0.10    0.83
   3  -9   2    1.48    0.91
  -3  -9  -2   -0.80    0.76
   3  -9   2   -0.04    0.91
  -3  -9  -2    0.11    0.71
   3   9   2    0.07    0.83
  -3   9  -2    1.70    1.20
  -3   9  -2   -0.92    0.80
  -3  -9   0    5.63    1.43
  -3  -9   0    6.58    1.24
   3  -9   0    7.26    1.53
   3  -9   0    5.55    1.29
   3  -9   0    5.96    1.49
  -3  -9   0    8.21    1.60
  -3  -9   0    4.39    1.41
   3  -9   0    5.35    1.44
   3   9   0    4.77    1.20
  -3   9   0    3.26    1.37
   3  -9  -2    5.23    1.43
   3  -9  -2    3.87    1.35
  -3  -9   2    3.44    1.21
  -3  -9   2    1.99    0.95
  -3  -9   2    6.81    1.52
   3  -9  -2    4.92    1.32
  -3  -9   2    4.65    0.81
  -3   9   2    2.73    1.20
   3   9  -2    3.39    1.11
  -3  -9   4   10.98    1.84
   3  -9  -4    8.61    1.71
  -3  -9   4    6.05    1.26
  -3  -9   4    7.82    1.71
   3  -9  -4    9.05    1.94
  -3   9   4    9.02    1.76
  -3  -9   6   18.19    1.84
  -3  -9   6   17.54    2.59
   3  -9  -6   15.36    2.17
   3  -9  -6   23.54    2.95
   3   9  -6   18.08    2.34
  -3   9   6   17.54    2.16
  -3  -9   8   -0.13    0.39
   3  -9  -8    0.75    0.96
  -3  -9   8   -0.60    0.98
   3  -9  -8   -1.13    1.03
   3   9  -8   -1.32    0.75
  -3   9   8   -0.60    0.54
   3  -9 -10    4.72    1.87
  -3  -9  10    3.30    1.43
  -3   9  10    4.32    1.11
   3   9 -10    3.32    1.42
  -3  -9  12    0.89    1.20
   3  -9 -12    1.68    1.41
  -3   9  12    1.10    0.57
   3   9 -12    1.95    1.17
   3  -9 -14    2.70    1.78
  -3  -9  14    1.49    1.32
   3   9 -14    0.54    1.15
   3  -9 -16    0.35    1.45
  -3  -9  16   -0.41    1.07
   3   9 -16    0.89    1.28
  -3 -10 -13    5.02    2.03
   3 -10  13    3.80    1.68
   3 -10  13    4.20    0.84
  -3  10 -13    3.37    1.63
   3  10  13    2.69    1.11
   3 -10  11    3.77    1.04
   3 -10  11    2.67    1.73
  -3 -10 -11    6.99    2.20
   3  10  11    3.03    1.23
  -3  10 -11    3.85    1.86
   3  10  11    7.73    1.75
   3 -10   9    3.20    1.65
   3 -10   9    3.62    1.10
  -3 -10  -9    2.86    1.65
   3  10   9    4.54    1.49
   3  10   9    4.21    1.42
  -3  10  -9    5.46    1.81
   3 -10   7    3.56    1.60
  -3 -10  -7    7.37    1.93
   3 -10   7    4.53    1.24
   3  10   7    7.22    1.77
   3  10   7    7.62    1.85
  -3  10  -7    7.46    2.03
  -3 -10  -5    4.63    1.85
  -3 -10  -5   11.30    2.07
   3 -10   5    6.87    1.62
   3 -10   5    8.29    2.05
  -3  10  -5    8.17    1.99
   3  10   5   10.99    2.16
  -3 -10  -3    3.21    1.40
   3 -10   3    2.29    1.18
  -3 -10  -3    1.01    1.07
   3 -10   3    3.90    1.14
   3 -10   3    2.67    1.16
  -3  10  -3    2.19    1.27
   3  10   3    3.89    1.46
   3 -10   1    9.73    1.83
  -3 -10  -1   12.23    2.29
  -3 -10  -1   10.25    1.89
  -3 -10  -1    9.67    1.54
  -3  10  -1   10.87    1.99
  -3 -10   1   12.65    1.47
   3 -10  -1   11.71    2.01
  -3 -10   1   10.65    2.13
   3 -10  -1   12.59    2.12
  -3 -10   1   10.73    1.82
  -3  10   1   10.81    2.01
   3  10  -1   10.29    1.80
  -3 -10   3    6.30    1.65
  -3 -10   3    4.38    1.39
  -3 -10   3    5.97    1.37
   3 -10  -3    5.46    1.65
  -3  10   3    7.35    1.67
   3  10  -3    7.43    1.62
   3 -10  -5    9.50    2.07
  -3 -10   5    8.55    1.95
   3 -10  -5    9.15    1.82
  -3 -10   5   10.18    1.58
  -3  10   5    9.54    1.83
  -3 -10   7    4.64    1.55
  -3 -10   7    5.86    1.09
   3 -10  -7    5.63    1.65
   3 -10  -7    7.96    2.05
   3  10  -7    6.41    1.71
  -3  10   7    7.58    1.53
   3 -10  -9    3.23    1.74
   3 -10  -9    3.84    1.53
  -3 -10   9    5.63    0.71
  -3 -10   9    5.25    1.75
   3  10  -9    3.89    1.48
  -3  10   9    7.73    1.46
   3 -10 -11   -0.42    1.27
  -3 -10  11   -0.26    1.07
   3  10 -11    1.27    1.26
  -3  10  11    0.71    0.71
   3 -10 -13    0.17    1.31
  -3 -10  13    1.27    1.22
  -3  10  13    2.91    0.71
   3  10 -13    2.88    1.51
   3 -10 -15    6.11    2.41
  -3 -10  15    5.14    1.93
   3  10 -15    9.48    2.29
  -3 -11 -12    2.28    1.64
   3 -11  12    2.18    1.73
   3 -11  12    1.19    0.76
   3  11  12   -0.63    0.92
  -3  11 -12    0.36    1.29
  -3 -11 -10   -0.67    1.12
   3 -11  10   -0.05    0.71
   3 -11  10   -0.80    1.03
   3  11  10    0.69    1.19
  -3  11 -10   -0.21    1.05
   3 -11   8    0.92    1.11
  -3 -11  -8   -0.45    1.45
   3 -11   8    2.06    1.07
   3  11   8    2.83    1.42
   3  11   8    1.22    1.05
  -3  11  -8    1.93    1.53
   3 -11   6    1.29    1.24
  -3 -11  -6    2.81    1.49
   3 -11   6    0.89    1.00
   3  11   6    2.09    1.32
  -3  11  -6    1.71    1.39
   3  11   6    1.42    1.28
  -3 -11  -4    2.21    1.34
   3 -11   4    0.10    0.87
  -3 -11  -4    0.61    1.37
   3 -11   4    1.58    1.24
   3  11   4    0.28    1.03
   3  11   4    0.37    1.11
  -3  11  -4    2.03    1.32
  -3 -11  -2   -0.82    0.97
  -3 -11  -2   -0.09    0.93
   3 -11   2   -0.87    0.93
   3  11   2    0.27    1.16
   3  11   2    0.31    1.09
   3 -11   0   -0.71    0.94
  -3 -11   0    3.23    1.41
  -3 -11   0    0.22    0.83
  -3  11   0    0.81    1.16
  -3 -11   2    0.13    0.86
   3 -11  -2   -0.09    1.03
   3 -11  -2   -1.16    0.94
  -3 -11   2    0.54    1.03
  -3  11   2   -0.10    1.07
  -3 -11   4    1.96    1.30
   3 -11  -4    4.65    1.66
  -3 -11   4    1.21    0.90
  -3  11   4    2.29    1.22
   3  11  -4    1.06    0.88
  -3 -11   6    4.27    1.73
  -3 -11   6    1.99    0.87
   3 -11  -6    3.21    1.74
  -3  11   6    0.15    0.94
  -3 -11   8    0.09    1.04
  -3 -11   8   -0.21    0.49
   3 -11  -8    0.90    1.40
   3  11  -8    0.54    1.11
  -3  11   8   -0.36    0.81
  -3 -11  10   -0.01    1.10
   3 -11 -10   -0.12    1.28
   3  11 -10    0.47    1.24
  -3  11  10    0.84    0.83
   3 -11 -12    2.28    1.53
  -3 -11  12    2.43    1.54
  -3  11  12    1.26    0.72
   3 -11 -14   -0.67    1.60
  -3 -11  14   -0.20    1.24
   3 -12   9    2.84    1.68
   3 -12   9    1.26    0.94
  -3 -12  -9    0.71    1.46
  -3  12  -9    0.19    1.29
   3  12   9    1.50    1.40
  -3 -12  -7    0.41    1.32
   3 -12   7    0.34    0.94
   3 -12   7   -0.03    1.21
  -3  12  -7   -0.80    0.97
   3  12   7    0.71    1.19
   3  12   7    1.71    1.21
  -3 -12  -5    1.60    1.36
   3 -12   5   -0.15    1.09
  -3 -12  -5   -0.68    1.08
   3 -12   5    0.89    1.05
   3  12   5    2.15    1.39
   3  12   5    1.37    1.43
   3 -12   3    1.70    1.16
  -3 -12  -3    0.09    1.35
  -3 -12  -3   -0.12    1.01
   3  12   3   -1.00    0.89
   3  12   3    0.74    1.28
   3 -12   1    2.89    1.50
  -3 -12  -1    3.34    1.58
  -3 -12  -1   -0.16    0.96
   3 -12  -1    3.78    1.58
  -3 -12   1    4.30    1.67
  -3 -12   1    1.18    1.12
  -3  12   1    3.04    1.47
  -3 -12   3    1.12    1.00
   3 -12  -3    1.68    1.43
  -3  12   3    2.63    1.28
   3 -12  -5   -0.12    1.26
  -3 -12   5    1.71    1.37
  -3 -12   5    1.69    0.95
   3  12  -5    1.90    1.27
  -3  12   5    0.22    1.04
  -3 -12   7    2.45    1.36
   3 -12  -7    2.28    1.64
  -3 -12   7    0.99    0.77
  -3  12   7    0.98    1.08
  -3 -12   9    1.06    0.56
   3 -12  -9   -2.41    0.98
  -3 -12   9    1.78    1.54
  -3  12   9   -0.31    0.81
  -3 -12  11    2.70    1.48
   3 -12 -11    2.01    1.87
  -3  12  11    0.43    0.84
   3 -13   6    0.36    1.10
  -3 -13  -6    2.65    1.84
   3  13   6   -0.42    1.23
  -3 -13  -4    1.35    1.71
   3 -13   4    0.72    1.22
  -3 -13  -4    2.89    1.51
   3  13   4    2.74    1.54
   3 -13   2   -0.43    1.07
  -3 -13  -2   -0.63    0.96
  -3 -13  -2    0.24    1.09
  -3 -13   0    0.16    1.09
  -3 -13   0    0.50    1.18
   3 -13   0    1.09    1.15
  -3  13   0    1.13    1.35
  -3 -13   2   -0.30    0.88
  -3  13   2    1.64    1.35
  -3 -13   4   -0.56    0.76
  -3  13   4    0.98    1.45
   3 -13  -6   -1.20    1.16
  -3 -13   6   -0.83    0.57
  -3  13   6    0.47    1.17
  -3 -13   8    0.85    0.75
  -3 -13   8    1.75    1.31
   3 -13  -8   -1.39    1.17
  -3  13   8    2.59    1.34
  -4   0 -20   -0.04    0.99
  -4   0 -18   17.89    2.89
  -4   0 -16   14.71    2.33
   4   0  16   11.11    2.10
  -4   0 -14   36.03    3.43
   4   0  14   29.60    1.66
   4   0  14   34.72    3.48
   4   0  12   64.22    3.80
  -4   0 -12   60.55    3.60
   4   0  12   61.06    2.74
   4   0  10   25.23    1.76
  -4   0 -10   26.22    2.50
  -4   0 -10   28.39    2.03
   4   0  10   29.56    2.36
  -4   0 -10   28.39    1.90
  -4   0  -8   62.68    2.99
   4   0   8   64.28    2.80
  -4   0  -8   60.69    2.77
   4   0   8   62.40    1.98
  -4   0  -8   60.18    2.96
  -4   0  -8   61.27    3.09
   4   0   8   56.21    3.37
   4   0   8   58.43    1.96
   4   0   8   61.39    3.30
   4   0   6    4.35    0.75
  -4   0  -6    3.62    0.81
   4   0   6    4.61    0.73
  -4   0  -6    2.32    0.86
   4   0   6    5.53    0.93
   4   0   6    4.12    1.01
   4   0   6    5.05    0.75
  -4   0  -6    4.46    0.87
  -4   0  -6    5.38    0.92
   4   0   6    5.01    1.14
  -4   0  -6    2.98    0.87
  -4   0  -6    3.12    0.99
  -4   0  -6    4.09    0.84
  -4   0  -4   52.61    2.95
  -4   0  -4   59.62    2.47
   4   0   4   62.12    2.53
   4   0   4   58.07    2.50
  -4   0  -4   55.06    2.58
   4   0   4   56.48    2.53
  -4   0  -4   59.80    2.45
   4   0   4   53.14    2.98
   4   0   4   54.46    2.50
  -4   0  -4   58.13    2.91
  -4   0  -4   55.98    2.51
   4   0   4   58.93    2.82
   4   0   2  809.43   22.93
   4   0   2  830.61   22.60
   4   0   2  847.65   24.68
   4   0   2  817.80   23.88
  -4   0  -2  815.20   24.02
  -4   0  -2  812.19   21.86
   4   0   2  801.33   24.04
  -4   0  -2  814.58   23.87
  -4   0  -2  819.10   21.10
   4   0   2  860.33   21.15
  -4   0  -2  816.50   21.10
  -4   0   0  231.22    7.32
   4   0   0  235.84    7.07
   4   0   0  226.21    6.47
   4   0   0  206.73    7.55
   4   0   0  227.24    7.26
  -4   0   0  227.76    6.43
  -4   0   0  230.15    6.84
   4   0   0  233.37    7.16
   4   0  -2   95.86    3.51
  -4   0   2   95.46    3.44
  -4   0   2   90.43    2.76
   4   0  -2   99.25    3.52
  -4   0   2   87.18    3.47
  -4   0   2   92.87    2.80
  -4   0   2   85.41    3.34
   4   0  -2   97.53    3.45
   4   0  -4   32.05    1.75
  -4   0   4   33.65    1.75
  -4   0   4   34.63    1.85
   4   0  -4   33.27    1.53
   4   0  -4   32.53    1.81
   4   0  -6   69.97    2.99
  -4   0   6   75.42    3.00
  -4   0   6   71.06    3.07
  -4   0   8   41.05    2.30
  -4   0   8   48.63    2.35
   4   0  -8   41.24    2.26
   4   0 -10    5.46    1.01
  -4   0  10    8.24    1.19
   4   0 -10    5.40    1.04
  -4   0  10    6.01    1.06
  -4   0  12  116.14    4.72
   4   0 -12  105.43    4.51
   4   0 -12   99.13    4.48
  -4   0  12  101.70    4.40
   4   0 -12  109.84    3.55
  -4   0  14    2.84    1.00
   4   0 -14    2.63    0.59
  -4   0  14    4.83    1.22
   4   0 -14    3.41    1.11
   4   0 -14    1.19    0.94
  -4   0  16    8.64    1.61
  -4   0  16    9.79    1.69
   4   0 -16    4.98    1.46
   4   0 -16    9.00    1.63
   4   0 -18   53.50    3.79
   4   0 -20   29.53    3.55
   4   0 -22    5.45    1.82
  -4  -1 -19    5.93    1.97
  -4   1 -19    3.39    1.48
   4  -1  17    0.68    1.16
  -4  -1 -17    3.20    1.30
  -4   1 -17    0.67    1.05
   4  -1  15    5.10    1.65
  -4  -1 -15    6.03    1.61
   4   1  15    3.42    0.62
  -4   1 -15    4.14    1.39
   4  -1  13   22.68    1.46
   4  -1  13   19.70    2.61
  -4  -1 -13   17.31    2.42
   4   1  13   20.43    2.46
  -4   1 -13   19.49    2.43
   4   1  13   24.39    1.65
  -4  -1 -11   15.14    1.85
  -4  -1 -11   10.27    1.53
   4  -1  11   14.51    2.12
   4  -1  11   14.60    1.52
  -4  -1 -11    8.88    1.53
   4   1  11    9.81    1.28
   4   1  11    9.39    1.71
  -4   1 -11   12.63    1.60
  -4   1 -11   10.60    1.67
  -4  -1  -9    4.54    1.04
   4  -1   9    3.33    1.14
   4  -1   9    2.83    0.74
  -4  -1  -9    2.01    0.76
  -4  -1  -9    1.73    0.82
   4   1   9    4.21    1.13
  -4   1  -9    2.68    0.79
  -4   1  -9    3.57    1.03
   4   1   9    3.43    0.90
  -4   1  -9    2.00    0.60
   4  -1   7    1.86    0.84
  -4  -1  -7    4.26    0.92
  -4  -1  -7    4.11    0.88
   4  -1   7    2.48    0.53
  -4  -1  -7    2.60    0.93
   4  -1   7    5.46    0.93
   4  -1   7    3.27    0.54
  -4  -1  -7    7.71    1.17
  -4  -1  -7    3.21    0.80
  -4  -1  -7    5.37    1.05
   4  -1   7    3.97    1.04
   4  -1   7    3.28    0.57
   4   1   7    3.01    0.80
   4   1   7    2.06    0.57
  -4   1  -7    3.43    0.78
  -4   1  -7    2.60    0.78
  -4   1  -7    3.47    0.87
   4   1   7    2.96    0.92
   4   1   7    3.54    1.06
   4   1   7    2.33    0.55
  -4   1  -7    2.31    0.57
  -4   1  -7    2.56    0.93
  -4  -1  -5   61.28    2.85
  -4  -1  -5   62.58    3.16
  -4  -1  -5   67.40    2.95
   4  -1   5   64.25    2.71
  -4  -1  -5   63.61    2.85
   4  -1   5   58.23    3.10
  -4  -1  -5   66.04    3.39
  -4  -1  -5   63.35    2.86
   4  -1   5   61.70    3.30
   4  -1   5   55.97    2.63
   4  -1   5   60.12    2.64
  -4  -1  -5   65.27    2.71
   4  -1   5   65.09    2.63
   4   1   5   61.71    3.35
   4   1   5   62.94    2.75
  -4   1  -5   60.11    2.79
   4   1   5   66.78    2.74
  -4   1  -5   66.58    2.90
  -4   1  -5   61.54    2.46
  -4   1  -5   64.22    2.84
   4   1   5   61.41    2.66
   4   1   5   60.18    2.73
  -4   1  -5   64.07    3.33
  -4   1  -5   60.98    3.28
   4   1   5   60.06    2.95
   4  -1   3   18.63    1.59
  -4  -1  -3   14.17    0.99
  -4  -1  -3   13.85    1.21
   4  -1   3   13.98    1.13
   4  -1   3   15.31    1.60
  -4  -1  -3   10.77    1.21
   4  -1   3   16.28    1.46
   4  -1   3   15.33    1.22
  -4  -1  -3   14.46    1.37
   4  -1   3   13.63    1.10
  -4  -1  -3   15.87    1.18
   4  -1   3   16.16    1.43
  -4   1  -3   13.33    1.00
   4   1   3   14.86    1.48
   4   1   3   16.13    1.25
  -4   1  -3   15.58    1.66
   4   1   3   13.12    1.14
   4   1   3   14.46    1.64
  -4   1  -3   16.08    1.46
  -4   1  -3   14.20    1.13
  -4   1  -3   13.69    1.08
   4  -1   1   87.75    3.45
  -4  -1  -1   87.83    3.28
  -4  -1  -1   85.97    3.18
   4  -1   1   86.96    3.59
  -4  -1  -1   85.51    3.27
   4  -1   1   80.52    3.24
  -4  -1  -1   81.44    3.03
   4  -1   1   89.84    3.12
   4  -1   1   89.54    3.68
   4   1   1   87.88    3.11
  -4   1  -1   91.91    3.01
  -4   1  -1   88.52    3.11
  -4   1  -1   87.55    3.60
   4   1   1   84.07    3.24
   4   1   1   87.40    3.39
  -4   1  -1   86.22    3.10
   4   1   1   82.27    3.22
   4   1   1   86.33    3.73
   4  -1  -1   38.31    2.05
  -4  -1   1   35.87    1.90
   4  -1  -1   41.19    1.89
  -4  -1   1   38.53    1.90
  -4  -1   1   36.46    1.69
  -4  -1   1   35.90    1.57
   4  -1  -1   39.06    2.01
   4  -1  -1   38.76    1.93
  -4   1   1   35.87    1.80
   4   1  -1   39.85    2.06
  -4   1   1   39.76    2.09
   4   1  -1   38.78    1.95
  -4   1   1   37.36    1.62
   4   1  -1   36.65    1.60
   4   1  -1   38.33    1.66
  -4  -1   3   32.63    1.77
   4  -1  -3   35.22    1.72
   4  -1  -3   35.70    1.99
  -4  -1   3   38.19    1.91
  -4   1   3   32.82    1.92
   4   1  -3   35.07    1.73
  -4   1   3   34.96    1.23
   4   1  -3   35.39    1.87
  -4   1   3   35.00    1.84
  -4   1   3   35.56    1.22
   4   1  -3   34.50    1.60
  -4  -1   5    7.87    1.06
   4  -1  -5    8.68    1.16
   4  -1  -5   11.64    1.15
  -4  -1   5    9.67    1.10
   4   1  -5    7.80    1.06
   4   1  -5    9.13    0.72
  -4   1   5   10.17    1.10
  -4   1   5    8.28    1.07
  -4  -1   7   60.60    2.75
   4  -1  -7   61.40    2.57
  -4  -1   7   61.01    2.88
  -4   1   7   65.05    2.96
   4   1  -7   55.42    2.42
   4   1  -7   63.87    2.92
   4   1  -7   59.92    2.02
  -4   1   7   63.01    2.59
  -4  -1   9    4.31    0.86
   4  -1  -9    5.77    1.13
  -4  -1   9    4.81    0.95
   4  -1  -9    4.17    0.84
  -4   1   9    5.19    0.91
  -4   1   9    5.32    1.12
   4   1  -9    3.62    0.79
   4  -1 -11    0.66    0.63
  -4  -1  11    0.61    0.54
  -4  -1  11    0.33    0.55
   4  -1 -11    0.78    0.57
  -4   1  11    0.70    0.65
   4   1 -11    1.57    0.72
   4   1 -11    1.13    0.66
   4   1 -11    0.91    0.21
  -4   1  11    1.10    0.54
   4  -1 -13   43.40    2.81
  -4  -1  13   35.60    2.56
  -4  -1  13   37.05    2.47
   4  -1 -13   39.51    1.98
   4  -1 -13   38.75    2.34
   4   1 -13   38.39    1.63
   4   1 -13   38.62    2.52
  -4   1  13   38.01    2.74
   4   1 -13   42.08    2.72
  -4   1  13   41.06    2.39
  -4  -1  15    0.43    0.78
  -4  -1  15    2.22    0.91
   4  -1 -15    1.50    0.89
   4   1 -15    0.84    0.85
  -4   1  15    0.62    0.76
   4   1 -15    0.80    0.78
  -4  -1  17    5.77    1.49
   4  -1 -17    2.27    1.10
   4  -1 -17    1.84    1.13
   4   1 -17    1.97    1.11
  -4   1  17    3.79    1.44
   4  -1 -19    3.05    1.35
   4   1 -19    1.52    1.14
   4  -1 -21    1.12    1.29
   4   1 -21    2.53    1.54
  -4  -2 -20    9.76    2.28
  -4   2 -20    7.69    2.21
   4  -2  18    7.25    1.91
  -4  -2 -18    4.87    1.73
  -4   2 -18    6.70    1.85
  -4  -2 -16   16.82    2.64
   4  -2  16   17.17    2.80
  -4   2 -16   15.59    2.59
   4  -2  14   17.22    1.13
   4  -2  14   21.11    2.90
  -4  -2 -14   18.84    2.58
  -4   2 -14   15.07    2.33
   4   2  14   18.68    1.48
  -4  -2 -12   26.30    2.64
   4  -2  12   27.97    3.22
  -4  -2 -12   24.62    2.67
   4  -2  12   24.38    1.63
   4   2  12   27.30    1.87
   4   2  12   23.65    2.51
  -4   2 -12   26.27    2.87
  -4  -2 -10   59.74    3.28
   4  -2  10   68.42    2.94
   4  -2  10   64.00    3.83
  -4  -2 -10   62.72    3.41
  -4  -2 -10   64.03    3.43
   4   2  10   64.23    3.00
   4   2  10   59.28    3.33
  -4   2 -10   69.59    3.65
  -4  -2  -8   54.62    2.89
  -4  -2  -8   54.09    2.86
  -4  -2  -8   53.98    2.91
   4  -2   8   58.60    3.37
  -4  -2  -8   55.43    2.98
   4  -2   8   53.72    2.64
   4   2   8   54.30    2.92
   4   2   8   57.00    2.21
  -4   2  -8   54.62    3.01
   4   2   8   53.65    2.71
  -4  -2  -6   13.78    1.49
  -4  -2  -6   14.30    1.60
   4  -2   6    8.50    0.95
  -4  -2  -6   12.39    1.53
  -4  -2  -6   10.43    1.33
   4  -2   6   10.68    1.30
   4  -2   6   10.55    1.08
   4  -2   6   12.49    1.77
  -4  -2  -6   10.39    1.28
   4  -2   6   11.30    1.64
   4  -2   6   10.16    1.08
   4   2   6   14.54    1.57
  -4   2  -6   10.53    1.56
   4   2   6   14.59    1.69
   4   2   6   10.15    1.16
   4   2   6   11.81    1.23
  -4   2  -6    8.97    1.28
   4   2   6    9.14    1.58
  -4   2  -6    9.35    0.88
  -4   2  -6    8.87    1.29
   4   2   6   13.06    1.30
  -4   2  -6   10.33    1.31
  -4  -2  -4   90.42    3.69
  -4  -2  -4   87.89    3.71
  -4  -2  -4   84.75    3.47
  -4  -2  -4   88.15    3.20
   4  -2   4   95.60    3.47
   4  -2   4   87.75    4.09
   4  -2   4   88.12    3.50
   4  -2   4   92.02    4.15
   4  -2   4   90.36    3.51
   4  -2   4   88.28    3.43
   4  -2   4   83.97    3.85
  -4  -2  -4   85.46    3.57
  -4   2  -4   94.40    4.47
   4   2   4   90.01    3.64
  -4   2  -4   88.90    4.10
   4   2   4   95.86    4.33
  -4   2  -4   90.30    3.56
   4   2   4   90.06    3.52
  -4   2  -4   87.28    3.51
   4   2   4   83.15    3.42
  -4   2  -4   93.91    3.09
   4   2   4   89.86    3.62
  -4  -2  -2   93.06    3.44
   4  -2   2   88.71    3.49
  -4  -2  -2   83.88    3.37
  -4  -2  -2   88.56    3.34
  -4  -2  -2   85.80    3.43
   4  -2   2   85.16    3.42
   4  -2   2   92.02    3.98
   4  -2   2   83.57    3.24
  -4  -2  -2   91.00    3.63
   4  -2   2   87.87    3.90
   4  -2   2   92.09    3.73
  -4   2  -2   92.04    3.13
   4   2   2   95.10    4.11
  -4   2  -2   85.68    3.30
  -4   2  -2   90.67    3.91
   4   2   2   88.82    3.51
   4   2   2   87.23    3.32
  -4   2  -2   93.64    3.41
   4   2   2   89.98    3.54
   4  -2   0  203.57    6.64
  -4  -2   0  205.96    6.04
   4  -2   0  207.66    6.16
  -4  -2   0  209.52    6.49
  -4  -2   0  209.45    6.35
   4  -2   0  203.95    6.52
  -4  -2   0  211.09    6.64
   4  -2   0  200.73    7.16
  -4  -2   0  203.06    6.54
   4   2   0  207.95    6.72
  -4   2   0  216.85    7.30
  -4   2   0  204.56    6.13
   4   2   0  211.10    6.65
   4   2   0  202.01    6.09
   4   2   0  204.84    7.28
  -4   2   0  209.29    6.31
  -4   2   0  210.45    6.31
  -4  -2   2   77.29    2.51
  -4  -2   2   75.67    2.45
  -4  -2   2   73.03    3.08
  -4  -2   2   71.68    2.99
   4  -2  -2   75.71    2.96
   4  -2  -2   72.53    3.38
   4   2  -2   75.90    2.43
   4   2  -2   79.42    3.15
  -4   2   2   72.47    2.96
   4   2  -2   74.85    3.22
   4   2  -2   74.13    2.61
  -4   2   2   74.37    3.41
  -4   2   2   78.77    2.65
   4  -2  -4   62.89    2.80
   4  -2  -4   58.73    3.02
   4  -2  -4   59.95    2.45
  -4  -2   4   60.66    2.82
  -4  -2   4   58.93    2.64
  -4   2   4   58.19    2.71
  -4   2   4   62.44    1.91
   4   2  -4   61.15    2.62
  -4   2   4   63.92    3.06
   4   2  -4   62.36    2.25
  -4   2   4   61.98    1.90
   4   2  -4   64.89    2.86
   4  -2  -6  234.17    6.82
  -4  -2   6  206.65    7.36
  -4  -2   6  220.49    7.08
   4  -2  -6  230.33    7.45
   4  -2  -6  213.67    7.89
  -4   2   6  242.22    6.85
   4   2  -6  230.10    6.54
  -4   2   6  228.73    7.40
   4   2  -6  231.73    7.52
   4   2  -6  220.37    7.10
  -4  -2   8   29.07    2.05
   4  -2  -8   25.28    1.53
   4  -2  -8   28.98    2.09
  -4  -2   8   29.27    1.81
  -4   2   8   25.74    1.49
   4   2  -8   29.43    1.71
   4   2  -8   27.26    1.32
  -4   2   8   30.98    2.12
  -4  -2  10   51.52    2.93
   4  -2 -10   45.69    2.82
   4  -2 -10   50.70    2.29
  -4  -2  10   45.49    2.46
   4   2 -10   48.12    2.56
  -4   2  10   49.87    2.92
  -4   2  10   46.23    2.21
  -4  -2  12   48.92    2.67
   4  -2 -12   49.67    3.15
  -4  -2  12   52.75    3.19
   4   2 -12   50.02    2.91
  -4   2  12   48.58    3.15
   4   2 -12   54.70    2.78
   4  -2 -14   80.65    4.32
  -4  -2  14   74.54    3.71
  -4  -2  14   83.54    4.38
   4   2 -14   82.65    4.07
   4   2 -14   83.40    4.19
  -4   2  14   75.76    4.20
   4  -2 -16    7.73    1.76
  -4  -2  16   10.20    1.97
  -4   2  16   14.00    2.27
   4   2 -16    7.27    1.68
   4  -2 -18   21.09    2.76
   4  -2 -18   20.51    2.82
  -4  -2  18   16.40    2.49
  -4   2  18   18.00    2.67
   4   2 -18   21.94    2.82
   4  -2 -20   16.46    2.80
   4   2 -20   19.22    2.85
   4  -2 -22   10.82    2.40
   4   2 -22   10.02    2.25
   4  -3  19    5.28    1.97
  -4  -3 -19    5.83    1.99
  -4   3 -19    3.05    1.54
  -4  -3 -17    7.94    1.95
   4  -3  17    7.14    1.93
  -4   3 -17    5.01    1.64
   4  -3  15    0.29    1.12
  -4  -3 -15   -0.54    0.84
   4   3  15    0.96    0.54
  -4   3 -15    0.39    0.95
  -4  -3 -13    1.32    0.93
   4  -3  13    1.13    1.04
   4  -3  13    1.68    0.59
  -4  -3 -13    1.33    1.12
   4   3  13    2.45    0.83
  -4   3 -13    3.89    1.32
  -4  -3 -11   10.93    1.79
  -4  -3 -11    8.70    1.65
  -4  -3 -11    8.98    1.62
   4  -3  11   11.08    2.10
   4  -3  11   10.59    1.32
  -4   3 -11    7.27    1.53
   4   3  11   10.61    1.43
  -4  -3  -9   26.40    2.61
   4  -3   9   22.39    1.68
  -4  -3  -9   25.31    1.99
  -4  -3  -9   24.18    2.02
   4  -3   9   25.52    2.87
   4   3   9   22.42    0.99
   4   3   9   24.20    2.21
   4   3   9   23.47    1.90
  -4   3  -9   23.73    2.39
   4  -3   7   22.18    1.25
  -4  -3  -7   18.83    1.96
   4  -3   7   21.56    1.19
   4  -3   7   15.68    2.06
  -4  -3  -7   22.16    1.82
  -4  -3  -7   23.09    2.30
   4  -3   7   21.39    1.95
   4  -3   7   24.69    2.69
  -4   3  -7   23.18    2.16
   4   3   7   22.47    1.50
  -4   3  -7   20.81    2.11
   4   3   7   24.10    2.17
   4   3   7   24.18    2.63
   4   3   7   21.46    1.71
   4   3   7   22.94    1.55
   4  -3   5    6.30    0.88
   4  -3   5    6.59    0.91
  -4  -3  -5    7.91    1.21
   4  -3   5    6.81    0.99
  -4  -3  -5    6.43    1.10
   4  -3   5    9.91    1.56
  -4  -3  -5    4.83    1.10
   4  -3   5    7.91    1.16
   4  -3   5    8.50    1.49
   4  -3   5    6.38    1.27
  -4  -3  -5    6.45    1.14
   4   3   5    7.38    1.18
   4   3   5    5.49    1.31
   4   3   5    6.84    1.11
   4   3   5    6.50    1.01
   4   3   5    8.06    1.12
  -4   3  -5    7.03    1.20
  -4   3  -5    4.85    1.01
  -4  -3  -3   42.43    2.25
   4  -3   3   40.40    2.16
   4  -3   3   39.42    2.16
  -4  -3  -3   41.25    2.44
   4  -3   3   46.89    2.72
  -4  -3  -3   39.46    2.19
   4  -3   3   42.03    2.65
   4  -3   3   46.02    2.25
   4  -3   3   39.95    2.47
  -4  -3  -3   39.44    2.19
   4   3   3   42.57    2.27
   4   3   3   39.00    2.18
  -4   3  -3   42.09    2.31
  -4   3  -3   40.27    2.59
  -4   3  -3   42.87    1.82
   4   3   3   43.40    2.76
   4   3   3   41.51    2.24
  -4   3  -3   47.19    2.32
   4  -3   1   21.99    1.69
  -4  -3  -1   25.86    1.54
  -4  -3  -1   24.10    1.64
   4  -3   1   25.99    2.00
   4  -3   1   26.31    1.66
   4  -3   1   25.67    1.96
  -4  -3  -1   23.59    1.83
   4  -3   1   24.91    1.68
  -4  -3  -1   26.11    1.61
  -4  -3  -1   27.69    1.55
  -4   3  -1   24.04    1.65
   4   3   1   24.77    1.99
  -4   3  -1   25.95    1.98
  -4   3  -1   26.27    1.46
  -4   3  -1   27.57    1.69
   4   3   1   23.12    1.63
  -4   3  -1   24.45    1.54
   4   3   1   23.76    1.60
   4   3   1   26.15    1.64
  -4  -3   1    7.20    0.55
  -4  -3   1   10.34    1.26
   4  -3  -1    8.90    1.17
   4  -3  -1    8.93    1.08
  -4  -3   1    4.47    0.93
   4  -3  -1    5.43    0.87
   4  -3  -1    7.86    1.28
  -4  -3   1    6.55    0.88
   4  -3  -1    8.26    1.08
  -4  -3   1    5.93    0.42
   4   3  -1    7.32    0.85
  -4   3   1    7.76    1.29
  -4   3   1    6.62    0.93
   4   3  -1    7.17    1.09
   4   3  -1    6.29    0.91
   4   3  -1    6.42    1.10
  -4   3   1    6.56    0.96
  -4   3   1    7.45    1.07
   4  -3  -3  133.60    5.41
   4  -3  -3  132.37    4.53
   4  -3  -3  129.98    4.79
  -4  -3   3  132.27    3.98
   4  -3  -3  141.64    4.52
  -4  -3   3  132.06    3.90
  -4  -3   3  128.48    4.91
  -4  -3   3  137.38    4.78
   4   3  -3  138.17    4.97
  -4   3   3  137.33    5.44
  -4   3   3  136.22    4.25
  -4   3   3  134.50    4.80
   4   3  -3  136.27    4.33
   4   3  -3  137.66    5.13
   4  -3  -5  106.26    4.74
   4  -3  -5  106.44    3.62
  -4  -3   5  108.73    4.36
  -4  -3   5  103.71    3.97
   4  -3  -5  104.02    4.23
   4   3  -5  104.82    4.32
   4   3  -5  104.93    3.43
  -4   3   5  109.70    3.16
  -4   3   5  106.85    3.14
  -4   3   5  107.73    4.28
   4   3  -5   97.67    4.06
  -4  -3   7   26.44    1.73
   4  -3  -7   25.82    2.00
  -4  -3   7   29.92    2.10
   4  -3  -7   27.30    2.18
   4  -3  -7   28.73    1.46
  -4   3   7   25.79    1.97
   4   3  -7   30.40    1.65
   4  -3  -9   15.05    1.81
  -4  -3   9   17.08    1.42
   4  -3  -9   14.72    1.07
  -4  -3   9   19.10    2.15
   4   3  -9   19.27    1.73
  -4   3   9   16.12    1.09
  -4   3   9   16.57    1.98
  -4  -3  11   23.14    1.69
  -4  -3  11   23.43    2.53
   4  -3 -11   25.29    2.67
   4   3 -11   24.95    2.27
  -4   3  11   23.33    2.53
   4  -3 -13   10.02    1.89
  -4  -3  13    9.91    1.90
  -4   3  13   11.06    1.86
   4   3 -13   13.57    1.82
   4  -3 -15   12.55    2.13
  -4  -3  15    8.71    1.81
   4   3 -15   11.42    1.84
  -4   3  15   11.72    2.05
   4  -3 -17    3.83    1.45
  -4  -3  17    1.86    1.03
  -4   3  17    3.60    1.50
   4   3 -17    3.49    1.33
  -4  -3  19    4.35    1.52
   4  -3 -19    6.60    1.90
   4   3 -19    4.60    1.59
   4  -3 -21    6.00    1.90
  -4  -3  21    3.91    1.69
   4   3 -21    1.60    1.35
  -4  -4 -18    9.52    2.16
   4  -4  18    8.09    2.17
  -4   4 -18    6.52    1.88
  -4  -4 -16   14.28    2.37
   4  -4  16   16.20    2.96
  -4  -4 -16   17.90    3.08
  -4   4 -16   16.73    2.71
   4   4  16   14.44    1.29
  -4  -4 -14    9.91    1.90
   4  -4  14   14.18    1.03
  -4  -4 -14   17.00    2.47
   4  -4  14   19.32    2.87
   4   4  14   19.05    1.94
  -4   4 -14   16.53    2.52
  -4  -4 -12   17.09    2.37
   4  -4  12   11.93    2.28
  -4  -4 -12   13.57    2.03
  -4  -4 -12   14.00    1.98
   4  -4  12   14.44    1.52
  -4   4 -12   13.94    2.20
   4   4  12   13.71    1.66
  -4  -4 -10   21.40    2.36
   4  -4  10   22.69    1.74
   4  -4  10   22.53    2.79
  -4  -4 -10   19.74    2.44
   4   4  10   26.67    2.07
  -4   4 -10   19.42    2.38
  -4  -4  -8   19.63    2.35
   4  -4   8   17.39    1.75
  -4  -4  -8   17.90    2.12
   4  -4   8   17.91    2.34
  -4  -4  -8   21.87    2.25
  -4   4  -8   14.57    1.94
   4   4   8   17.24    1.33
   4   4   8   20.93    2.07
   4   4   8   20.05    2.08
   4  -4   6   21.90    1.71
  -4  -4  -6   24.82    1.95
  -4  -4  -6   26.53    2.56
  -4  -4  -6   25.24    1.94
   4  -4   6   25.50    2.66
   4  -4   6   21.37    1.41
   4  -4   6   21.68    2.39
   4  -4   6   24.05    1.52
   4  -4   6   21.57    2.46
   4   4   6   23.62    1.73
   4   4   6   23.46    2.61
  -4   4  -6   22.02    2.16
  -4   4  -6   23.60    2.28
   4   4   6   21.48    2.06
  -4  -4  -4   36.80    2.26
   4  -4   4   36.77    2.60
   4  -4   4   37.53    1.64
   4  -4   4   35.94    2.52
  -4  -4  -4   33.58    2.17
   4  -4   4   35.91    2.64
   4  -4   4   37.64    2.13
   4  -4   4   36.60    2.14
  -4  -4  -4   36.20    2.22
  -4  -4  -4   36.94    2.49
   4  -4   4   36.92    2.07
   4   4   4   37.95    2.28
   4   4   4   32.94    2.15
   4   4   4   37.66    2.16
  -4   4  -4   34.91    2.34
  -4   4  -4   38.48    2.32
  -4   4  -4   36.80    1.64
   4   4   4   37.97    2.76
   4  -4   2  159.76    5.01
   4  -4   2  153.37    6.28
   4  -4   2  159.22    6.41
  -4  -4  -2  160.20    5.87
   4  -4   2  151.87    5.75
   4  -4   2  162.43    5.65
   4  -4   2  151.09    5.34
  -4  -4  -2  158.28    5.39
  -4  -4  -2  166.05    5.58
  -4  -4  -2  155.87    5.46
  -4  -4  -2  159.65    5.70
   4   4   2  164.00    5.55
  -4   4  -2  157.22    5.00
  -4   4  -2  157.60    5.45
  -4   4  -2  147.71    6.22
  -4   4  -2  149.91    5.60
   4   4   2  156.28    6.48
   4   4   2  156.55    5.78
   4   4   2  154.22    5.38
  -4  -4   0   53.37    2.35
  -4  -4   0   54.23    2.68
  -4  -4   0   56.67    2.41
   4  -4   0   59.71    2.78
   4  -4   0   52.34    2.47
   4  -4   0   55.09    2.64
  -4  -4   0   56.82    2.92
   4  -4   0   57.56    2.81
  -4  -4   0   59.25    2.59
   4  -4   0   61.62    3.34
   4   4   0   54.73    2.70
  -4   4   0   56.07    3.15
   4   4   0   54.58    2.66
  -4   4   0   55.94    2.52
  -4   4   0   55.58    2.56
  -4   4   0   52.67    2.60
   4   4   0   51.80    2.57
  -4   4   0   57.16    2.87
   4  -4  -2   64.94    2.91
  -4  -4   2   57.05    2.91
   4  -4  -2   57.37    2.78
   4  -4  -2   64.82    2.82
  -4  -4   2   57.58    2.48
  -4  -4   2   64.57    3.01
   4  -4  -2   63.84    2.77
   4  -4  -2   65.01    3.48
  -4   4   2   62.13    2.69
   4   4  -2   57.90    3.21
  -4   4   2   62.86    3.42
   4   4  -2   63.26    2.71
   4   4  -2   61.08    2.97
  -4   4   2   63.83    2.90
   4   4  -2   62.16    2.69
  -4  -4   4   27.14    1.28
   4  -4  -4   27.41    1.66
   4  -4  -4   30.95    2.32
   4  -4  -4   28.83    1.61
  -4  -4   4   29.05    1.86
  -4  -4   4   25.01    1.93
   4  -4  -4   32.97    2.08
   4  -4  -4   27.74    1.76
  -4  -4   4   27.47    1.25
  -4   4   4   28.03    1.57
   4   4  -4   28.91    1.41
  -4   4   4   27.86    1.94
   4   4  -4   28.40    2.02
   4   4  -4   28.97    1.50
  -4   4   4   25.17    2.10
   4  -4  -6   30.63    1.60
   4  -4  -6   34.62    2.52
   4  -4  -6   32.45    1.56
  -4  -4   6   32.99    1.93
   4  -4  -6   31.66    2.23
  -4  -4   6   28.38    2.14
  -4   4   6   28.01    1.37
  -4   4   6   28.02    1.37
  -4   4   6   27.33    2.15
   4   4  -6   28.89    1.44
   4   4  -6   30.99    1.66
  -4  -4   8   37.66    2.14
   4  -4  -8   37.08    1.61
  -4  -4   8   36.82    2.57
   4  -4  -8   39.75    2.65
   4  -4  -8   40.78    2.84
   4   4  -8   37.48    2.12
  -4   4   8   36.54    2.55
  -4  -4  10   44.03    2.38
   4  -4 -10   40.50    2.87
  -4  -4  10   37.62    2.82
   4  -4 -10   48.99    3.37
  -4   4  10   45.99    3.00
   4   4 -10   44.14    2.51
  -4  -4  12   68.29    4.01
   4  -4 -12   57.01    3.71
  -4   4  12   65.36    3.88
   4   4 -12   68.50    3.51
  -4  -4  14   27.53    3.13
   4  -4 -14   25.85    3.11
   4   4 -14   20.42    2.44
  -4   4  14   22.93    2.85
  -4  -4  16    3.10    1.24
   4  -4 -16    3.90    1.46
   4   4 -16    5.64    1.50
  -4   4  16    6.41    1.68
  -4  -4  18    2.08    1.33
   4  -4 -18    7.01    1.96
   4   4 -18    3.33    1.41
   4  -4 -20   12.17    2.57
  -4  -4  20   12.99    2.54
   4   4 -20    9.37    2.10
   4  -4 -22    1.98    1.41
  -4  -4  22    3.02    1.66
   4   4 -22    2.87    1.55
   4  -5  19    3.22    1.67
  -4   5 -19    2.34    1.50
  -4  -5 -17    4.64    1.57
   4  -5  17    4.28    1.68
  -4  -5 -17    3.69    1.62
  -4   5 -17    4.81    1.71
  -4  -5 -15    1.53    1.21
  -4  -5 -15    2.01    1.02
   4  -5  15    0.64    1.08
  -4   5 -15    0.17    1.03
   4   5  15    0.87    0.74
   4  -5  13    9.93    1.22
   4  -5  13   10.77    2.30
  -4  -5 -13   12.52    2.22
   4   5  13   11.67    1.76
  -4   5 -13   12.93    2.33
  -4  -5 -11    6.46    1.80
  -4  -5 -11    7.48    1.65
   4  -5  11    8.60    1.93
   4  -5  11    6.62    1.16
  -4   5 -11    7.96    1.81
   4   5  11    9.29    1.56
   4  -5   9   14.92    2.27
   4  -5   9   11.57    1.48
  -4  -5  -9   18.14    2.17
  -4  -5  -9   16.21    2.33
   4   5   9   14.25    1.12
  -4   5  -9   12.75    1.97
   4   5   9   13.98    1.85
  -4  -5  -7    8.66    1.48
   4  -5   7   11.42    1.95
   4  -5   7    9.30    0.96
  -4  -5  -7    9.57    1.88
   4  -5   7   10.71    0.88
   4  -5   7    9.06    1.40
  -4  -5  -7   11.14    1.76
   4  -5   7   11.13    2.03
   4   5   7    8.86    1.46
  -4   5  -7    9.49    1.64
   4   5   7   11.70    1.56
   4  -5   5   18.32    2.24
   4  -5   5   16.71    1.46
   4  -5   5   19.27    1.46
   4  -5   5   22.19    2.57
   4  -5   5   22.39    2.46
   4  -5   5   17.08    1.81
  -4  -5  -5   21.76    2.18
  -4  -5  -5   16.88    1.88
  -4  -5  -5   15.54    2.10
   4   5   5   21.72    1.65
  -4   5  -5   16.05    1.98
   4   5   5   18.84    1.98
  -4   5  -5   15.21    1.82
  -4  -5  -3   31.92    2.10
   4  -5   3   29.83    2.46
   4  -5   3   29.62    2.03
  -4  -5  -3   29.96    2.05
  -4  -5  -3   28.79    2.01
   4  -5   3   28.76    2.04
   4  -5   3   30.62    1.62
   4  -5   3   28.27    1.90
  -4  -5  -3   28.12    2.27
   4  -5   3   32.50    2.48
   4  -5   3   28.29    2.26
  -4  -5  -3   28.63    1.89
  -4   5  -3   30.23    1.60
   4   5   3   30.83    2.12
  -4   5  -3   29.97    2.23
  -4   5  -3   29.46    2.12
   4   5   3   25.40    2.02
   4   5   3   33.32    1.98
   4  -5   1   10.52    1.22
  -4  -5  -1    7.71    1.35
   4  -5   1   13.76    1.66
   4  -5   1    9.22    1.62
  -4  -5  -1   12.43    1.32
  -4  -5  -1   13.44    1.55
   4  -5   1   11.66    1.56
  -4  -5  -1   10.53    1.44
   4  -5   1   12.13    1.49
  -4  -5  -1   12.98    1.36
  -4   5  -1   11.41    1.28
   4   5   1   17.82    1.81
   4   5   1   12.32    1.49
  -4   5  -1   14.59    1.65
   4   5   1   10.33    1.40
  -4   5  -1    9.60    1.56
   4  -5  -1    4.45    0.93
  -4  -5   1    3.65    1.03
  -4  -5   1    4.51    0.93
  -4  -5   1    4.58    0.45
  -4  -5   1    3.58    0.59
   4  -5  -1    3.44    0.92
   4  -5  -1    3.97    0.94
   4  -5  -1    5.82    1.34
  -4  -5   1    4.83    1.06
   4  -5  -1    4.07    0.90
  -4   5   1    2.74    0.72
   4   5  -1    5.24    1.08
   4   5  -1    4.06    0.96
  -4   5   1    6.39    1.08
  -4   5   1    5.36    1.00
   4   5  -1    5.12    0.93
   4  -5  -3   27.23    2.32
   4  -5  -3   28.41    2.05
  -4  -5   3   29.99    2.03
  -4  -5   3   31.07    2.13
   4  -5  -3   30.95    1.98
  -4  -5   3   28.93    1.66
   4  -5  -3   27.21    1.91
   4  -5  -3   30.92    1.76
   4   5  -3   26.77    1.81
  -4   5   3   28.99    2.06
  -4   5   3   29.72    1.86
   4   5  -3   28.00    1.76
   4   5  -3   29.29    1.64
   4   5  -3   30.12    2.12
   4  -5  -5    3.37    0.95
   4  -5  -5    3.43    0.84
   4  -5  -5    4.90    1.08
  -4  -5   5    5.62    0.65
  -4  -5   5    5.54    0.66
   4  -5  -5    4.10    1.15
   4  -5  -5    5.52    0.86
  -4  -5   5    4.72    1.10
  -4  -5   5    6.95    1.14
   4   5  -5    5.66    0.78
   4   5  -5    5.29    0.89
   4   5  -5    4.45    0.50
  -4   5   5    4.12    1.03
   4   5  -5    3.15    0.96
  -4   5   5    4.73    0.86
   4  -5  -7   45.22    2.34
  -4  -5   7   52.68    3.18
  -4  -5   7   46.34    2.50
   4  -5  -7   40.23    3.07
   4  -5  -7   42.69    2.85
  -4   5   7   46.43    2.02
  -4   5   7   49.40    2.05
   4   5  -7   54.68    2.56
  -4   5   7   43.63    2.85
   4   5  -7   48.06    2.13
  -4  -5   9    4.85    0.98
   4  -5  -9    3.12    1.09
   4  -5  -9    4.16    1.33
  -4  -5   9    4.07    1.24
   4   5  -9    1.73    0.72
  -4   5   9    4.39    1.25
   4  -5 -11   39.69    3.10
  -4  -5  11   43.34    3.19
   4   5 -11   43.56    2.73
  -4   5  11   36.94    2.95
  -4  -5  13    1.34    1.06
   4  -5 -13    2.77    1.37
   4   5 -13   -0.12    0.73
  -4   5  13    1.11    1.05
  -4  -5  15    3.66    1.47
   4  -5 -15    5.58    1.76
  -4   5  15    2.77    1.44
   4   5 -15    4.44    1.43
  -4  -5  17    7.82    2.08
   4  -5 -17    5.97    1.81
   4   5 -17    6.04    1.62
  -4  -5  19    1.14    1.23
   4  -5 -19    2.19    1.51
   4   5 -19    2.61    1.33
  -4  -5  21    3.03    1.57
   4  -5 -21    4.61    1.93
   4   5 -21    1.68    1.38
  -4  -6 -18    1.91    1.66
   4  -6  18    0.75    1.40
  -4  -6 -18    1.46    1.12
  -4   6 -18   -0.43    0.87
   4  -6  16    3.79    1.65
  -4  -6 -16    3.47    1.34
  -4  -6 -16    6.40    1.95
  -4   6 -16    4.37    1.68
   4   6  16    2.99    0.81
  -4  -6 -14    6.69    1.93
   4  -6  14    4.72    0.72
   4  -6  14    3.78    1.71
   4   6  14    4.78    1.18
  -4   6 -14    5.70    1.72
   4  -6  12    7.20    1.19
   4  -6  12    7.05    1.96
  -4  -6 -12    6.06    1.55
  -4  -6 -12    8.14    1.97
   4   6  12    4.46    1.21
  -4   6 -12    3.54    1.35
  -4  -6 -10    8.80    1.95
   4  -6  10    4.97    1.07
  -4  -6 -10    8.33    1.74
   4  -6  10    5.20    1.52
  -4   6 -10    8.57    1.82
   4   6  10    7.36    1.54
   4  -6   8   12.91    1.69
   4  -6   8   13.71    2.27
  -4  -6  -8   13.44    1.97
  -4  -6  -8   17.59    2.47
   4   6   8   14.34    1.98
  -4   6  -8   18.31    2.45
   4  -6   6    6.29    1.01
  -4  -6  -6    5.79    1.38
   4  -6   6    3.98    1.33
   4  -6   6    5.88    0.88
   4  -6   6    5.73    1.21
  -4  -6  -6    7.35    1.63
  -4  -6  -6    4.77    1.25
   4  -6   6    6.20    1.49
  -4   6  -6    8.62    1.66
   4   6   6    8.24    1.55
  -4  -6  -4   13.61    1.73
   4  -6   4   16.51    2.25
   4  -6   4   13.98    1.56
  -4  -6  -4   13.98    2.02
   4  -6   4   18.47    2.11
  -4  -6  -4   20.54    2.20
   4  -6   4   15.07    1.67
   4  -6   4   16.12    2.18
  -4  -6  -4   16.60    1.85
  -4   6  -4   12.35    1.87
   4   6   4   16.15    1.70
  -4   6  -4   21.69    2.30
   4   6   4   15.25    1.91
  -4  -6  -2    0.41    0.40
  -4  -6  -2   -0.47    0.49
  -4  -6  -2    1.20    0.76
   4  -6   2    1.15    0.85
   4  -6   2   -0.34    0.61
  -4  -6  -2    0.97    0.63
   4  -6   2    0.86    0.58
  -4  -6  -2   -0.56    0.67
   4  -6   2    0.27    0.66
  -4  -6  -2    0.87    0.64
   4  -6   2    0.94    0.78
   4   6   2    0.31    0.55
  -4   6  -2    0.19    0.41
   4   6   2   -0.30    0.71
  -4   6  -2   -0.80    0.49
  -4   6  -2    0.79    0.75
   4  -6   0   71.92    3.19
  -4  -6   0   64.09    2.99
   4  -6   0   72.63    3.48
  -4  -6   0   70.28    2.68
  -4  -6   0   64.90    3.29
  -4  -6   0   67.43    2.96
  -4  -6   0   63.83    3.53
   4  -6   0   67.79    3.34
   4  -6   0   67.10    3.34
  -4  -6   0   69.97    3.25
   4  -6   0   71.46    4.02
   4   6   0   60.19    3.28
  -4   6   0   70.38    3.17
  -4   6   0   76.91    3.50
  -4   6   0   74.72    3.74
   4   6   0   64.03    3.25
   4   6   0   65.76    3.31
   4  -6  -2   12.05    1.45
   4  -6  -2   10.79    1.56
  -4  -6   2    7.46    0.55
  -4  -6   2   11.84    1.68
  -4  -6   2    8.18    1.48
  -4  -6   2    8.44    1.27
   4  -6  -2   10.94    1.49
   4  -6  -2    9.59    1.74
  -4  -6   2    9.25    0.62
   4  -6  -2   10.65    1.57
  -4   6   2    7.38    1.27
   4   6  -2    9.16    1.31
  -4   6   2    7.77    1.08
   4   6  -2    9.31    1.49
  -4   6   2    9.01    1.39
   4   6  -2   11.12    1.49
  -4  -6   4    3.79    0.97
   4  -6  -4    3.56    0.79
  -4  -6   4    4.78    0.86
   4  -6  -4    5.61    1.36
   4  -6  -4    5.41    1.15
   4  -6  -4    4.59    1.09
   4  -6  -4    7.83    1.38
  -4  -6   4    4.49    1.13
   4   6  -4    4.33    1.12
  -4   6   4    4.46    0.95
   4   6  -4    4.86    0.93
  -4   6   4    5.67    1.19
   4   6  -4    4.84    0.95
  -4  -6   6   24.93    2.62
  -4  -6   6   24.71    1.18
   4  -6  -6   26.05    1.98
  -4  -6   6   25.20    1.88
  -4  -6   6   24.80    1.21
   4  -6  -6   24.55    2.58
   4  -6  -6   23.67    2.72
   4   6  -6   20.78    1.72
  -4   6   6   23.80    1.70
  -4   6   6   29.07    2.74
  -4  -6   8   -0.29    0.69
   4  -6  -8    0.13    0.71
   4  -6  -8    1.66    0.99
  -4  -6   8    0.28    0.53
  -4   6   8    0.39    0.44
  -4   6   8    0.84    0.98
   4   6  -8    0.50    0.70
  -4  -6  10   36.73    3.08
   4  -6 -10   33.64    3.39
  -4   6  10   30.96    3.20
   4   6 -10   32.60    2.37
   4  -6 -12   15.75    2.48
  -4  -6  12   15.40    2.46
   4   6 -12   18.24    2.22
  -4   6  12   17.73    2.65
  -4  -6  14   12.64    2.36
   4  -6 -14   12.62    2.53
   4   6 -14    7.85    1.67
   4  -6 -16    4.09    1.76
  -4  -6  16    1.82    1.29
   4   6 -16    4.17    1.53
  -4  -6  18    2.59    1.49
   4  -6 -18    4.81    1.97
   4   6 -18    1.86    1.35
   4  -6 -20    4.86    2.13
   4   6 -20    1.35    1.36
  -4  -7 -17    1.37    1.28
   4  -7  17   -0.15    1.06
  -4  -7 -17    0.05    1.37
   4   7  17    1.02    0.64
  -4   7 -17    2.66    1.51
  -4  -7 -15    0.51    1.35
   4  -7  15    2.20    1.56
  -4   7 -15    2.39    1.45
   4   7  15    1.83    0.92
   4   7  15    2.07    0.99
  -4  -7 -13   -0.26    1.11
   4  -7  13    1.25    1.14
   4  -7  13    0.98    0.58
   4   7  13    0.02    0.73
  -4   7 -13   -0.28    1.17
  -4  -7 -11   28.16    3.40
  -4  -7 -11   27.64    3.08
   4  -7  11   26.00    2.02
   4  -7  11   30.75    3.66
  -4   7 -11   21.21    2.94
   4   7  11   28.72    2.89
   4  -7   9   16.78    2.51
   4  -7   9   13.60    1.79
  -4  -7  -9   18.89    2.86
  -4  -7  -9   12.10    2.03
   4   7   9   17.18    2.25
  -4   7  -9   14.35    2.29
   4  -7   7    7.32    1.38
  -4  -7  -7    7.89    1.67
  -4  -7  -7    5.04    1.42
   4  -7   7    8.68    1.85
  -4  -7  -7    6.40    1.86
   4   7   7    7.68    1.55
  -4   7  -7    7.18    1.66
  -4  -7  -5   18.18    2.20
  -4  -7  -5   12.95    2.13
   4  -7   5   17.31    2.09
  -4  -7  -5   19.49    2.18
   4  -7   5   12.55    2.01
   4  -7   5   17.09    2.49
   4  -7   5   18.99    1.84
  -4   7  -5   16.35    2.41
  -4   7  -5   14.33    2.26
   4   7   5   16.51    2.13
  -4  -7  -3    0.03    0.67
  -4  -7  -3    0.78    0.94
   4  -7   3   -0.68    0.68
   4  -7   3    0.02    0.71
   4  -7   3    1.23    0.79
  -4  -7  -3    0.27    0.60
   4  -7   3    1.39    0.98
  -4  -7  -3   -0.15    0.62
  -4  -7  -3   -0.12    0.60
  -4   7  -3    1.79    1.02
   4   7   3    0.35    0.63
   4   7   3   -0.76    0.68
  -4   7  -3   -0.18    0.71
  -4  -7  -1   14.46    1.89
   4  -7   1   12.24    1.56
  -4  -7  -1    8.87    1.70
   4  -7   1   12.54    1.75
   4  -7   1   13.52    1.84
  -4  -7  -1   12.55    1.72
   4  -7   1   12.73    2.06
   4  -7   1   14.30    1.88
  -4  -7  -1    9.37    1.34
   4   7   1   10.50    1.64
   4   7   1   14.22    1.79
  -4   7  -1    8.21    1.60
  -4   7  -1   15.12    2.05
   4  -7  -1   16.53    1.88
   4  -7  -1   18.22    2.09
   4  -7  -1   20.79    2.04
  -4  -7   1   20.68    2.36
   4  -7  -1   22.61    2.47
  -4  -7   1   17.33    1.35
  -4  -7   1   24.70    1.94
  -4  -7   1   20.26    2.16
   4  -7  -1   20.08    2.62
   4   7  -1   20.07    2.13
   4   7  -1   16.51    2.04
   4   7  -1   19.40    2.13
  -4   7   1   21.82    2.14
  -4   7   1   24.66    2.48
  -4  -7   3   31.71    2.47
   4  -7  -3   30.75    2.40
  -4  -7   3   27.28    2.31
   4  -7  -3   30.74    2.74
   4  -7  -3   30.17    2.35
  -4  -7   3   30.31    2.02
   4  -7  -3   30.97    1.97
   4  -7  -3   28.07    2.33
   4   7  -3   34.34    2.33
  -4   7   3   31.34    2.38
   4   7  -3   34.34    2.49
  -4   7   3   28.99    2.25
   4  -7  -5   42.79    3.26
   4  -7  -5   42.09    2.96
   4  -7  -5   43.57    2.81
  -4  -7   5   41.17    2.67
  -4  -7   5   41.92    2.18
  -4  -7   5   42.17    2.95
   4   7  -5   44.12    2.57
  -4   7   5   41.79    2.57
   4   7  -5   42.80    2.91
  -4   7   5   46.46    3.01
  -4  -7   7    1.56    0.39
   4  -7  -7    1.63    1.12
  -4  -7   7    1.10    0.69
  -4  -7   7    1.30    0.94
   4  -7  -7    2.12    1.02
  -4   7   7    1.86    1.13
  -4   7   7    1.77    0.73
   4   7  -7    0.92    0.81
   4  -7  -9   19.29    2.58
  -4  -7   9   18.28    2.67
   4   7  -9   19.43    2.19
  -4   7   9   21.45    1.52
  -4   7   9   24.91    2.89
   4  -7 -11    2.00    1.37
  -4  -7  11    2.29    1.24
   4   7 -11    1.47    1.00
  -4  -7  13    5.42    1.79
   4  -7 -13   11.09    2.38
   4   7 -13    7.29    1.61
  -4  -7  15   12.34    2.42
   4  -7 -15   13.39    2.66
   4   7 -15   13.89    2.26
   4  -7 -17    3.03    1.91
  -4  -7  17    5.67    1.83
   4   7 -17    1.99    1.26
   4  -7 -19    2.35    1.73
  -4  -7  19    4.28    1.87
   4   7 -19    2.75    1.54
   4  -8  16    1.88    1.53
  -4  -8 -16    1.00    1.39
   4   8  16   -0.20    0.66
  -4   8 -16    1.79    1.50
  -4  -8 -14    0.26    1.24
   4  -8  14    0.82    1.16
   4  -8  14    0.59    0.47
   4   8  14   -0.20    0.72
  -4   8 -14   -0.64    1.18
   4   8  14   -0.37    0.71
   4  -8  12    3.25    1.57
   4  -8  12    5.77    1.21
  -4  -8 -12    7.21    2.09
  -4   8 -12    4.06    1.69
   4   8  12    7.82    1.67
   4  -8  10    9.17    1.51
  -4  -8 -10   12.81    2.44
   4  -8  10    5.73    1.83
  -4   8 -10    3.41    1.48
   4   8  10    7.13    1.59
  -4  -8  -8    7.47    2.03
   4  -8   8    7.56    1.89
   4  -8   8    5.46    1.28
  -4  -8  -8    5.46    1.53
  -4   8  -8    5.86    1.72
   4   8   8    3.14    1.26
   4  -8   6    0.57    0.81
  -4  -8  -6    0.94    0.96
  -4  -8  -6    1.46    1.06
   4  -8   6    1.07    0.63
   4  -8   6   -0.26    0.95
  -4  -8  -6    0.83    1.13
   4   8   6   -1.17    0.63
  -4   8  -6    0.05    0.91
  -4  -8  -4    3.37    1.47
  -4  -8  -4    2.64    1.09
   4  -8   4    2.27    1.07
   4  -8   4    2.47    1.17
   4  -8   4    3.34    1.00
  -4  -8  -4    4.00    1.14
  -4   8  -4    4.00    1.38
  -4   8  -4    2.94    1.32
   4   8   4    3.65    1.36
   4  -8   2    4.66    1.21
  -4  -8  -2    4.04    1.08
  -4  -8  -2    5.84    1.22
   4  -8   2    5.05    1.35
  -4  -8  -2    2.91    1.29
  -4  -8  -2    2.33    1.01
   4  -8   2    2.72    1.16
   4   8   2    3.98    1.34
  -4   8  -2    4.74    1.57
  -4   8  -2    5.79    1.53
   4   8   2    2.53    1.02
  -4  -8   0    5.37    1.27
   4  -8   0    5.32    1.35
   4  -8   0    3.68    1.33
  -4  -8   0    5.69    1.60
  -4  -8   0    5.54    1.05
   4  -8   0    5.48    1.30
   4  -8   0    4.37    1.18
   4  -8   0    3.86    1.40
  -4  -8   0    5.29    1.25
   4   8   0    8.35    1.55
  -4   8   0    5.38    1.44
   4   8   0    6.12    1.47
   4  -8  -2   22.91    2.57
   4  -8  -2   21.39    2.42
   4  -8  -2   23.55    2.58
   4  -8  -2   22.19    2.84
  -4  -8   2   28.25    2.96
  -4  -8   2   23.76    2.61
  -4  -8   2   21.26    2.21
  -4   8   2   23.01    2.49
   4   8  -2   20.43    2.45
  -4  -8   4    6.20    1.55
  -4  -8   4    6.52    1.20
   4  -8  -4    6.12    1.42
  -4  -8   4    5.79    1.35
   4  -8  -4    5.97    1.63
   4   8  -4    7.54    1.62
  -4   8   4    2.98    1.13
  -4  -8   6    7.15    1.09
   4  -8  -6    7.07    1.71
  -4  -8   6    9.49    1.87
   4  -8  -6    4.49    1.36
  -4  -8   6    6.32    1.34
  -4   8   6    5.59    1.24
   4   8  -6    4.61    1.19
   4  -8  -8   10.37    2.00
   4  -8  -8    9.51    2.07
  -4  -8   8   13.69    2.37
   4   8  -8    9.32    1.63
  -4   8   8   10.76    1.49
  -4  -8  10    8.07    1.98
   4  -8 -10    7.11    2.00
   4   8 -10   10.05    1.79
  -4   8  10    8.43    1.15
   4  -8 -12    3.74    1.75
  -4  -8  12    0.30    1.10
   4   8 -12    1.96    1.14
  -4  -8  14    2.05    1.25
   4  -8 -14    2.46    1.60
   4   8 -14    2.85    1.35
  -4  -8  16    0.68    1.15
   4  -8 -16    2.67    1.76
   4   8 -16    0.97    1.18
  -4  -8  18    3.46    1.58
   4  -8 -18    1.67    1.83
   4   8 -18    1.79    1.28
   4  -9  15   -1.24    1.08
  -4  -9 -15    1.83    1.59
   4   9  15    0.36    0.85
  -4   9 -15    2.05    1.67
   4  -9  13    4.68    1.01
  -4  -9 -13    3.21    1.62
   4  -9  13    3.59    1.66
   4   9  13    4.50    1.37
  -4   9 -13    5.49    1.87
   4   9  13    3.98    1.29
   4  -9  11    5.53    1.90
  -4  -9 -11    5.10    2.02
   4  -9  11    4.96    1.18
  -4   9 -11    4.84    1.71
   4   9  11    6.16    1.65
   4  -9   9    3.73    1.61
   4  -9   9    4.17    1.29
  -4  -9  -9    4.80    1.94
   4   9   9    2.87    1.30
  -4   9  -9    3.80    1.60
  -4  -9  -7   14.48    2.65
   4  -9   7    5.43    1.74
   4  -9   7    9.71    1.78
   4   9   7    6.33    1.59
  -4   9  -7    8.26    2.01
  -4  -9  -5   15.00    2.25
   4  -9   5   18.04    2.67
   4  -9   5   19.84    2.47
  -4  -9  -5   13.59    2.55
   4  -9   5   14.14    1.66
   4   9   5   17.23    2.47
  -4   9  -5   17.37    2.73
   4  -9   3    4.76    1.40
  -4  -9  -3    4.17    1.30
  -4  -9  -3    5.62    1.75
   4  -9   3    3.69    1.25
  -4  -9  -3    3.96    1.20
   4  -9   3    3.27    1.05
   4   9   3    2.67    1.23
  -4   9  -3    3.83    1.49
  -4   9  -3    3.23    1.51
   4  -9   1    6.64    1.42
  -4  -9  -1    5.96    1.49
   4  -9   1    3.56    1.24
  -4  -9  -1    6.63    1.78
  -4  -9  -1    4.71    1.10
   4  -9   1    2.87    1.13
  -4   9  -1    5.65    1.57
   4   9   1    5.08    1.63
   4  -9  -1   13.01    2.04
  -4  -9   1   13.18    2.19
  -4  -9   1   10.84    1.85
  -4  -9   1    9.65    1.78
   4  -9  -1   12.75    1.96
  -4  -9   1   11.05    1.29
   4  -9  -1   11.27    1.96
  -4   9   1   11.07    1.93
   4   9  -1   13.46    1.99
  -4  -9   3   12.74    2.11
  -4  -9   3   15.82    2.32
   4  -9  -3    9.70    1.84
  -4  -9   3   10.61    1.62
   4  -9  -3    9.68    1.94
  -4   9   3   14.42    2.04
   4   9  -3   12.32    2.04
  -4  -9   5   22.48    2.90
  -4  -9   5   20.74    2.48
   4  -9  -5   20.72    2.73
  -4  -9   5   22.37    2.13
   4  -9  -5   17.77    2.37
   4   9  -5   14.53    2.26
  -4   9   5   19.70    2.40
   4  -9  -7   14.73    2.43
  -4  -9   7   18.48    2.76
  -4  -9   7   18.50    1.42
   4  -9  -7   20.73    2.52
  -4   9   7   16.56    2.04
   4   9  -7   20.10    2.38
   4  -9  -9    7.24    1.90
  -4  -9   9    6.40    1.80
   4   9  -9    6.13    1.56
  -4   9   9    8.70    1.41
   4  -9 -11    7.20    1.94
  -4  -9  11    5.91    1.85
  -4   9  11    5.17    1.00
   4   9 -11    6.31    1.71
   4  -9 -13   -1.28    1.15
  -4  -9  13    0.88    1.27
  -4  -9  15    3.72    1.70
   4  -9 -15    3.79    1.96
   4  -9 -17    2.06    1.71
  -4  -9  17    3.19    1.80
   4 -10  12   -0.33    1.11
  -4 -10 -12    0.54    1.30
   4 -10  12    2.47    0.92
   4  10  12    2.62    1.28
  -4  10 -12    2.68    1.63
   4  10  12   -0.38    0.98
   4 -10  10    2.81    1.54
   4 -10  10    1.90    0.91
  -4 -10 -10    7.80    2.24
   4  10  10    2.41    1.26
  -4  10 -10    2.63    1.61
   4  10  10    5.29    1.60
   4 -10   8    1.03    1.29
  -4 -10  -8   -0.72    1.14
   4 -10   8   -0.31    0.76
  -4  10  -8   -0.48    0.96
   4  10   8    2.61    1.30
   4 -10   6    0.03    0.82
   4 -10   6    3.95    1.58
  -4 -10  -6    1.85    1.32
  -4 -10  -6    1.83    1.28
  -4  10  -6    4.12    1.66
   4  10   6    1.78    1.24
   4 -10   4    0.03    0.97
   4 -10   4    3.65    1.37
  -4 -10  -4    2.06    1.32
  -4 -10  -4    2.73    1.29
  -4  10  -4    1.41    1.31
   4  10   4    1.18    1.05
  -4 -10  -2    3.59    1.41
  -4 -10  -2    4.99    1.70
   4 -10   2    1.67    1.10
   4 -10   2    4.69    1.58
  -4  10  -2    3.22    1.46
   4  10   2    3.41    1.39
  -4 -10   0   -0.43    0.55
   4 -10   0    1.89    1.17
  -4 -10   0    1.01    0.94
  -4 -10   0    1.10    1.18
  -4  10   0    1.92    1.21
  -4 -10   2    1.94    1.18
  -4 -10   2    1.09    1.16
  -4 -10   2    2.59    1.04
   4 -10  -2    3.81    1.46
  -4  10   2    3.41    1.33
   4  10  -2    4.84    1.45
  -4 -10   4    1.03    0.83
  -4 -10   4    0.18    0.97
  -4 -10   4    1.83    1.23
   4 -10  -4    2.40    1.40
   4  10  -4    1.11    1.04
  -4  10   4    0.69    1.03
  -4 -10   6    1.00    1.17
  -4 -10   6    1.53    0.76
   4 -10  -6    3.05    1.60
   4 -10  -6    1.65    1.35
  -4  10   6    0.83    0.90
   4  10  -6   -0.72    0.76
  -4 -10   8    0.20    1.10
   4 -10  -8    1.64    1.23
  -4 -10   8    1.32    0.53
   4 -10  -8    0.61    1.37
  -4  10   8    1.36    0.89
   4 -10 -10   -0.49    1.18
  -4 -10  10    2.65    1.49
  -4  10  10    1.10    0.78
  -4 -10  12    0.25    1.13
   4 -10 -12    1.65    1.52
  -4  10  12    0.57    0.58
   4 -10 -14    0.83    1.61
  -4 -10  14   -0.73    0.93
   4 -10 -16    0.72    1.97
  -4 -10  16    1.46    1.58
  -4 -11 -11    1.46    1.67
   4 -11  11    1.23    0.92
   4 -11  11    2.66    1.72
   4  11  11    0.67    1.16
   4  11  11    1.21    1.13
  -4  11 -11    2.10    1.75
  -4 -11  -9    3.85    1.71
   4 -11   9   -0.01    0.70
   4 -11   9    6.74    2.17
   4  11   9    0.70    1.06
   4  11   9    0.91    1.05
  -4  11  -9    0.94    1.24
  -4 -11  -7    2.10    1.39
   4 -11   7    2.29    1.11
   4 -11   7    1.63    1.49
   4  11   7    0.20    1.08
   4  11   7    1.98    1.35
  -4  11  -7    0.99    1.44
   4 -11   5    6.79    1.92
   4 -11   5    7.99    1.81
  -4 -11  -5    5.54    1.92
  -4 -11  -5    6.96    1.81
  -4  11  -5    5.60    1.99
   4  11   5    4.72    1.67
   4 -11   3    6.05    1.74
   4 -11   3    5.90    1.72
  -4 -11  -3   11.40    2.47
  -4 -11  -3    9.73    2.13
   4  11   3    8.03    1.89
  -4 -11  -1    1.32    1.05
  -4 -11  -1    0.85    1.28
   4 -11   1    1.87    1.23
  -4  11  -1   -0.15    1.14
   4 -11  -1   -0.37    1.01
  -4 -11   1   -0.10    0.78
  -4 -11   1   -0.15    1.16
  -4  11   1    0.99    1.31
   4 -11  -3    5.76    1.90
  -4 -11   3    4.32    1.29
  -4 -11   3    4.81    1.62
  -4 -11   3    3.59    1.52
  -4  11   3    4.75    1.62
   4  11  -3    3.95    1.47
  -4 -11   5    3.06    0.94
   4 -11  -5    0.67    1.45
  -4 -11   5    1.83    1.18
   4  11  -5    2.13    1.23
  -4  11   5    2.69    1.26
  -4 -11   7    2.30    0.81
  -4 -11   7    5.31    1.74
   4 -11  -7    3.51    1.70
   4  11  -7    4.65    1.60
  -4  11   7    3.04    1.26
  -4 -11   9    2.89    1.63
   4 -11  -9    0.09    1.48
  -4  11   9    2.11    0.94
  -4 -11  11    3.83    1.71
   4 -11 -11    1.34    1.85
  -4  11  11    2.33    0.88
   4 -11 -13   -1.43    1.38
  -4 -11  13    1.47    1.49
  -4  11  13    1.15    0.61
   4 -12   8   -1.34    0.66
   4 -12   8   -0.01    1.29
  -4 -12  -8    1.38    1.60
  -4  12  -8    0.30    1.26
   4  12   8   -0.95    1.08
   4  12   8    0.62    1.31
  -4 -12  -6    2.01    1.65
   4 -12   6    2.24    1.33
   4 -12   6    1.73    1.44
   4  12   6    0.09    1.21
  -4  12  -6    1.71    1.30
   4  12   6    2.04    1.41
   4 -12   4    1.65    1.24
  -4 -12  -4    3.36    1.53
  -4 -12  -4    0.52    1.40
   4  12   4    1.34    1.32
   4  12   4    0.63    1.24
  -4 -12  -2    1.18    1.45
  -4 -12  -2    0.42    1.05
   4 -12   2   -0.49    1.06
  -4 -12   0   -0.68    0.86
  -4 -12   0   -0.52    1.13
   4 -12   0    0.36    1.14
  -4  12   0    0.47    1.28
  -4 -12   2    0.99    1.01
  -4 -12   2    0.12    1.17
  -4  12   2    0.42    1.21
  -4 -12   4    1.31    0.88
   4 -12  -4   -0.10    1.25
  -4  12   4    1.65    1.24
   4 -12  -6   -0.20    1.44
  -4 -12   6    0.30    0.67
  -4 -12   6    0.33    1.04
   4  12  -6    0.43    0.92
  -4  12   6    1.36    1.21
  -4 -12   8    0.94    0.60
  -4 -12   8    2.27    1.66
   4 -12  -8   -1.57    1.10
   4  12  -8    1.75    1.20
  -4  12   8    0.88    1.05
   4 -12 -10    0.33    1.36
  -4 -12  10    2.53    1.55
  -4  12  10    0.32    0.84
  -4 -13  -5    2.17    1.75
  -4 -13  -5    3.44    1.60
   4 -13   5   -0.14    1.07
   4  13   5    0.43    1.16
   4  13   5   -1.22    1.20
   4 -13   3    1.99    1.50
  -4 -13  -3    2.43    1.44
  -4 -13  -3    1.56    1.50
   4 -13   1    2.18    1.40
  -4 -13  -1    1.32    1.49
  -4 -13  -1    0.66    1.12
  -4 -13   1    0.12    0.96
   4 -13  -1   -0.01    1.21
  -4  13   1    1.07    1.45
  -4 -13   3    1.40    1.06
  -4  13   3    2.00    1.64
   4 -13  -5   -1.32    1.22
  -4 -13   5   -0.35    0.73
  -4  13   5    0.04    1.15
  -4 -13   7    0.44    0.74
  -4 -13   7    0.78    1.33
   4 -13  -7    0.94    1.47
   4  13  -7    0.64    1.21
  -4  13   7    0.48    1.15
  -5   0 -19    1.85    1.38
  -5   0 -17   -0.30    0.96
   5   0  15    0.72    1.06
  -5   0 -15    0.02    0.88
   5   0  15   -0.09    0.49
   5   0  13   -0.07    0.51
   5   0  13   -0.79    0.81
  -5   0 -13   -0.26    0.78
   5   0  11   -0.40    0.74
  -5   0 -11    0.16    0.75
  -5   0 -11   -0.06    0.61
   5   0  11    0.10    0.59
  -5   0  -9    0.37    0.52
   5   0   9   -0.19    0.23
  -5   0  -9   -0.06    0.57
   5   0   9   -0.24    0.51
   5   0   9   -0.28    0.66
  -5   0  -9    0.19    0.66
   5   0   7    0.45    0.45
  -5   0  -7    0.00    0.49
   5   0   7    0.20    0.35
  -5   0  -7    0.24    0.48
   5   0   7   -0.65    0.47
   5   0   7    0.14    0.39
   5   0   7   -0.11    0.67
  -5   0  -7    0.11    0.62
   5   0   7    0.25    0.54
   5   0   5   -0.38    0.43
  -5   0  -5    0.18    0.47
  -5   0  -5    0.43    0.45
  -5   0  -5    0.16    0.43
  -5   0  -5   -0.11    0.60
   5   0   5    0.03    0.48
   5   0   5    0.71    0.68
  -5   0  -5    0.35    0.57
   5   0   5   -0.38    0.36
   5   0   5   -0.34    0.35
   5   0   5    0.19    0.60
   5   0   3   -0.67    0.33
   5   0   3   -0.42    0.52
  -5   0  -3   -0.55    0.53
  -5   0  -3    0.47    0.53
  -5   0  -3    0.25    0.38
  -5   0  -3    0.13    0.40
   5   0   3   -0.24    0.46
   5   0   3   -0.32    0.43
  -5   0  -3   -0.08    0.39
   5   0   3    0.86    0.68
  -5   0  -1    0.23    0.30
  -5   0  -1    0.46    0.49
  -5   0  -1   -0.06    0.36
   5   0   1    0.05    0.47
   5   0   1    0.10    0.38
   5   0   1   -0.28    0.34
  -5   0  -1    0.57    0.47
   5   0   1   -0.75    0.36
   5   0   1   -0.75    0.43
   5   0  -1    0.24    0.40
  -5   0   1    0.22    0.38
   5   0  -1   -0.49    0.36
   5   0  -1    0.48    0.48
  -5   0   1    0.13    0.32
   5   0  -1    0.04    0.33
  -5   0   1    0.27    0.31
   5   0  -3    0.05    0.38
  -5   0   3    0.16    0.40
  -5   0   3   -0.03    0.19
   5   0  -3   -0.02    0.42
  -5   0   3    0.20    0.37
  -5   0   3   -0.02    0.38
   5   0  -3   -0.25    0.31
  -5   0   3    0.01    0.17
   5   0  -5   -0.01    0.29
   5   0  -5   -0.44    0.34
  -5   0   5   -0.15    0.40
  -5   0   5    0.36    0.48
   5   0  -5   -0.48    0.40
  -5   0   7   -0.44    0.45
  -5   0   7    0.25    0.51
   5   0  -7   -0.03    0.48
   5   0  -7    0.50    0.51
   5   0  -9   -0.24    0.47
  -5   0   9    0.10    0.48
  -5   0   9   -0.91    0.35
   5   0 -11    0.23    0.55
  -5   0  11   -0.17    0.48
   5   0 -11   -0.42    0.57
  -5   0  11    0.70    0.62
  -5   0  13    0.41    0.67
   5   0 -13    0.53    0.63
   5   0 -13    0.05    0.59
  -5   0  13    0.22    0.56
   5   0 -13    0.80    0.64
   5   0 -15   -0.50    0.71
   5   0 -15    0.05    0.32
   5   0 -15   -0.61    0.68
  -5   0  15   -0.99    0.58
  -5   0  15    0.34    0.64
   5   0 -15    0.20    0.65
   5   0 -17   -0.34    0.81
   5   0 -17   -0.74    0.76
  -5   0  17   -0.24    0.85
   5   0 -19   -0.42    0.79
   5   0 -21    1.00    1.17
  -5  -1 -18   12.74    2.42
  -5   1 -18    9.58    2.10
   5  -1  16   10.40    2.26
  -5  -1 -16   12.19    2.29
  -5   1 -16   13.07    2.32
   5   1  16   11.10    1.13
   5  -1  14   24.85    3.11
  -5  -1 -14   15.75    2.32
   5  -1  14   16.35    1.59
   5   1  14   15.63    2.36
  -5   1 -14   18.39    2.61
   5   1  14   18.19    1.84
  -5  -1 -12   12.36    1.86
  -5  -1 -12    8.81    1.65
   5  -1  12   11.89    2.13
   5  -1  12    9.06    1.34
  -5   1 -12   12.02    1.93
   5   1  12   11.11    1.99
   5   1  12   13.22    1.62
   5  -1  10   48.47    3.30
   5  -1  10   46.08    2.58
  -5  -1 -10   44.02    2.83
  -5  -1 -10   46.39    2.83
  -5  -1 -10   50.66    3.02
  -5   1 -10   52.07    3.12
   5   1  10   45.67    3.12
   5   1  10   46.87    2.68
   5  -1   8   56.36    3.38
  -5  -1  -8   53.47    2.90
  -5  -1  -8   51.89    2.84
  -5  -1  -8   54.20    2.97
   5  -1   8   54.59    2.30
  -5  -1  -8   54.37    2.98
   5  -1   8   51.42    2.25
   5  -1   8   56.08    2.79
   5   1   8   46.59    2.98
   5   1   8   55.35    2.43
   5   1   8   55.97    2.80
  -5   1  -8   55.21    2.50
  -5   1  -8   50.38    2.88
  -5   1  -8   50.57    2.87
   5  -1   6   78.86    4.10
  -5  -1  -6   80.32    3.50
   5  -1   6   73.49    3.19
  -5  -1  -6   76.55    3.43
   5  -1   6   72.36    3.76
  -5  -1  -6   73.18    3.20
  -5  -1  -6   75.60    3.48
   5  -1   6   78.47    3.35
   5  -1   6   71.77    3.08
   5  -1   6   75.16    3.16
  -5  -1  -6   73.38    3.44
  -5   1  -6   72.01    3.35
   5   1   6   73.87    3.29
   5   1   6   78.08    3.21
   5   1   6   73.99    3.63
  -5   1  -6   72.66    3.42
  -5   1  -6   74.58    3.00
   5   1   6   68.98    3.18
   5   1   6   77.81    4.14
  -5   1  -6   74.84    3.33
  -5  -1  -4  124.95    4.55
   5  -1   4  116.39    5.05
  -5  -1  -4  124.63    4.50
  -5  -1  -4  121.22    4.88
   5  -1   4  117.31    4.34
   5  -1   4  120.93    4.49
  -5  -1  -4  126.27    4.71
   5  -1   4  119.79    5.30
   5  -1   4  114.25    4.82
  -5  -1  -4  120.23    4.09
   5  -1   4  114.87    4.54
  -5   1  -4  124.40    4.21
   5   1   4  111.65    5.19
   5   1   4  121.85    4.78
   5   1   4  117.77    4.37
  -5   1  -4  125.19    4.45
  -5   1  -4  113.61    5.01
  -5   1  -4  119.86    4.63
  -5   1  -4  116.81    4.28
   5   1   4  122.05    4.63
   5  -1   2   47.42    2.40
   5  -1   2   45.76    2.32
   5  -1   2   46.61    2.37
  -5  -1  -2   49.77    1.91
  -5  -1  -2   47.57    2.48
   5  -1   2   43.31    2.54
   5  -1   2   50.92    2.76
  -5  -1  -2   48.64    2.33
  -5  -1  -2   49.39    2.43
   5  -1   2   47.93    2.85
  -5  -1  -2   48.94    2.31
  -5   1  -2   54.35    2.34
   5   1   2   50.60    2.92
   5   1   2   50.70    2.60
  -5   1  -2   49.54    2.71
  -5   1  -2   50.02    2.37
   5   1   2   49.10    2.40
  -5   1  -2   51.53    2.20
   5   1   2   45.77    2.34
   5  -1   0  138.27    4.51
   5  -1   0  138.00    5.23
  -5  -1   0  142.72    4.92
  -5  -1   0  134.90    4.83
   5  -1   0  136.14    4.97
  -5  -1   0  137.84    4.41
  -5   1   0  134.12    4.71
   5   1   0  137.72    4.50
  -5   1   0  136.39    4.45
  -5   1   0  140.92    4.38
   5   1   0  139.32    4.79
   5   1   0  133.06    5.36
   5   1   0  139.29    4.84
   5   1   0  131.10    4.93
  -5   1   0  144.67    5.34
  -5  -1   2  118.04    3.54
   5  -1  -2  108.71    4.18
  -5  -1   2  110.59    3.47
   5  -1  -2  110.11    4.42
  -5  -1   2  114.89    4.33
   5  -1  -2  114.87    4.55
  -5  -1   2  122.00    4.32
  -5  -1   2  115.27    4.11
  -5   1   2  119.80    4.62
   5   1  -2  113.48    4.33
   5   1  -2  113.37    4.00
  -5   1   2  121.97    4.26
   5   1  -2  109.25    4.43
  -5   1   2  113.32    3.59
   5  -1  -4  107.32    4.47
   5  -1  -4  108.53    4.17
   5  -1  -4  115.31    4.11
  -5  -1   4  118.40    4.33
  -5  -1   4  112.13    4.22
   5   1  -4  110.85    4.31
  -5   1   4  107.05    4.19
  -5   1   4  110.72    4.50
   5   1  -4  113.59    4.05
   5   1  -4  110.95    4.14
  -5  -1   6  342.80   10.49
   5  -1  -6  330.46   10.13
   5  -1  -6  342.80   11.17
  -5  -1   6  330.54   10.23
  -5   1   6  330.58   10.12
  -5   1   6  353.26   10.44
   5   1  -6  346.63   10.39
   5   1  -6  340.14   10.49
   5   1  -6  351.16   10.67
  -5  -1   8  132.90    5.19
   5  -1  -8  137.84    5.28
   5  -1  -8  135.93    4.87
   5  -1  -8  133.01    5.57
  -5  -1   8  136.72    5.09
  -5   1   8  133.56    4.83
   5   1  -8  135.41    4.33
   5   1  -8  137.05    5.20
   5   1  -8  136.20    4.55
  -5   1   8  138.56    5.24
  -5  -1  10   16.42    1.85
   5  -1 -10   22.09    2.19
   5  -1 -10   22.73    1.66
  -5  -1  10   21.14    1.72
   5   1 -10   21.20    1.80
  -5   1  10   20.35    1.55
  -5   1  10   23.86    1.93
   5   1 -10   21.39    1.61
   5  -1 -12   43.93    2.85
   5  -1 -12   41.93    2.46
  -5  -1  12   38.37    2.56
  -5  -1  12   42.38    2.74
   5   1 -12   44.99    2.70
  -5   1  12   46.48    2.91
  -5   1  12   37.95    2.37
   5   1 -12   39.41    2.67
   5   1 -12   42.76    2.57
  -5  -1  14    9.16    1.62
  -5  -1  14   12.70    1.83
   5  -1 -14    9.82    1.70
   5   1 -14    8.94    1.59
  -5   1  14   11.35    1.63
   5   1 -14   11.31    1.75
  -5   1  14   10.43    1.74
   5   1 -14    9.78    0.61
   5   1 -14   15.38    2.01
  -5  -1  16   18.09    2.35
   5  -1 -16   16.28    2.29
  -5  -1  16   19.94    2.34
   5  -1 -16   17.91    2.33
   5   1 -16   17.64    2.30
   5   1 -16   17.16    2.19
  -5   1  16   19.22    2.47
   5   1 -16   17.37    2.37
   5  -1 -18   37.10    3.71
   5  -1 -18   40.27    3.28
   5   1 -18   43.70    3.45
  -5   1  18   42.74    3.36
   5  -1 -20   22.63    3.19
   5   1 -20   23.19    3.19
   5  -1 -22   10.66    2.39
   5   1 -22   14.00    2.68
  -5  -2 -19    1.65    1.33
   5  -2  19    0.12    1.30
  -5   2 -19    2.56    1.50
   5  -2  17    4.27    1.68
  -5  -2 -17    3.98    1.57
  -5   2 -17    2.93    1.53
   5  -2  15    3.33    1.52
  -5  -2 -15    2.17    1.18
   5  -2  15    2.78    0.69
   5   2  15    2.83    0.86
  -5   2 -15    1.23    1.07
   5  -2  13    6.30    1.10
  -5  -2 -13    7.08    1.72
   5  -2  13    6.08    1.65
  -5   2 -13    2.98    1.32
   5   2  13    8.88    1.40
   5  -2  11   16.20    1.75
  -5  -2 -11   17.55    2.19
   5  -2  11   15.61    2.53
  -5  -2 -11   17.99    2.13
  -5  -2 -11   14.15    2.02
  -5   2 -11   15.59    2.15
   5   2  11   16.43    1.83
   5   2  11   16.78    2.12
   5  -2   9   15.90    2.26
   5  -2   9   12.25    1.58
  -5  -2  -9   13.77    1.80
  -5  -2  -9   13.90    1.72
  -5  -2  -9   16.48    1.96
   5   2   9   14.75    1.75
   5   2   9   11.40    0.98
   5   2   9   17.43    2.14
  -5   2  -9   10.49    1.62
  -5  -2  -7    0.03    0.44
  -5  -2  -7    0.50    0.68
  -5  -2  -7    1.43    0.78
   5  -2   7    3.01    0.87
  -5  -2  -7    1.23    0.77
   5  -2   7    2.71    0.63
   5  -2   7    2.19    0.99
   5  -2   7    3.07    0.73
   5   2   7    1.18    0.77
  -5   2  -7    0.59    0.62
   5   2   7    1.07    0.67
   5   2   7    3.35    0.78
   5   2   7    1.43    0.93
   5   2   7    1.52    0.63
  -5   2  -7    1.98    0.53
  -5   2  -7    3.43    1.07
   5  -2   5   51.37    3.23
  -5  -2  -5   52.10    2.39
   5  -2   5   49.34    3.10
   5  -2   5   54.88    2.56
   5  -2   5   46.92    2.48
  -5  -2  -5   48.96    2.64
   5  -2   5   49.85    2.58
  -5  -2  -5   48.70    2.79
   5  -2   5   48.18    2.95
  -5  -2  -5   53.65    2.69
  -5  -2  -5   51.50    2.68
  -5  -2  -5   48.13    2.78
   5   2   5   47.22    2.74
   5   2   5   53.80    2.64
  -5   2  -5   47.13    2.64
  -5   2  -5   53.23    2.24
   5   2   5   54.74    2.70
   5   2   5   49.01    3.17
  -5   2  -5   49.08    2.61
  -5  -2  -3   13.27    0.97
   5  -2   3   14.28    1.82
  -5  -2  -3    9.64    1.34
   5  -2   3   10.75    1.29
   5  -2   3   13.02    1.70
   5  -2   3   13.54    1.48
  -5  -2  -3   14.03    1.49
  -5  -2  -3   13.76    1.44
   5  -2   3   13.97    1.75
  -5  -2  -3   12.92    1.48
   5  -2   3   12.16    1.33
  -5   2  -3   12.27    1.47
  -5   2  -3   12.30    1.19
   5   2   3   11.36    1.70
  -5   2  -3   13.66    1.43
   5   2   3   14.76    1.65
  -5   2  -3   12.39    1.71
   5   2   3   12.77    1.39
   5   2   3   13.32    1.51
   5  -2   1   78.95    3.14
  -5  -2  -1   73.43    3.03
  -5  -2  -1   76.10    3.31
   5  -2   1   78.65    3.70
   5  -2   1   75.10    3.65
  -5  -2  -1   77.93    3.04
   5  -2   1   70.63    3.38
   5  -2   1   73.17    3.14
  -5  -2  -1   77.56    3.03
  -5   2  -1   74.89    3.00
  -5   2  -1   77.29    3.11
   5   2   1   65.60    3.56
   5   2   1   76.81    3.22
   5   2   1   78.31    3.36
  -5   2  -1   75.45    3.66
   5   2   1   73.81    3.08
  -5   2  -1   77.89    3.07
  -5  -2   1   13.65    1.06
   5  -2  -1   11.67    1.44
  -5  -2   1   14.76    1.56
   5  -2  -1   16.03    1.75
  -5  -2   1   13.00    0.97
   5  -2  -1   16.01    1.64
   5  -2  -1   13.34    1.34
  -5  -2   1   17.21    1.67
   5   2  -1   11.28    1.42
   5   2  -1   12.50    1.02
   5   2  -1   12.20    1.23
   5   2  -1   12.22    1.47
  -5   2   1   11.63    1.18
  -5   2   1   14.42    1.68
  -5   2   1   14.04    1.39
  -5   2   1   18.82    1.62
   5   2  -1   13.77    0.93
   5  -2  -3   49.44    2.74
  -5  -2   3   47.20    1.71
  -5  -2   3   45.39    2.47
  -5  -2   3   47.76    1.66
  -5  -2   3   46.90    2.43
   5  -2  -3   45.53    2.29
  -5   2   3   44.69    2.66
  -5   2   3   43.45    1.84
   5   2  -3   49.30    2.49
  -5   2   3   44.41    2.37
   5   2  -3   48.88    2.54
  -5   2   3   47.32    1.88
   5   2  -3   48.56    1.87
   5  -2  -5    9.36    1.41
  -5  -2   5    9.77    1.23
   5  -2  -5   10.01    1.19
  -5  -2   5   13.33    1.58
   5   2  -5   10.54    1.47
   5   2  -5   11.14    0.92
  -5   2   5    8.74    1.27
   5   2  -5   10.24    1.13
   5  -2  -7   17.25    1.34
   5  -2  -7   18.44    1.89
  -5  -2   7   16.53    1.68
  -5  -2   7   21.45    1.75
   5  -2  -7   18.56    2.08
   5   2  -7   15.41    1.13
   5   2  -7   15.49    1.14
  -5   2   7   21.78    1.41
   5   2  -7   15.38    1.81
  -5   2   7   15.32    1.73
   5  -2  -9    2.85    0.74
   5  -2  -9    3.44    0.94
  -5  -2   9    4.08    0.91
   5  -2  -9    3.72    1.06
  -5  -2   9    2.67    0.90
   5   2  -9    3.90    0.59
  -5   2   9    4.85    0.86
  -5   2   9    3.54    0.97
   5   2  -9    4.65    0.89
   5   2  -9    3.25    0.95
  -5  -2  11    3.17    0.87
   5  -2 -11    4.55    0.89
  -5  -2  11    3.65    1.03
   5  -2 -11    2.23    0.97
   5   2 -11    3.47    1.03
  -5   2  11    1.94    0.87
  -5   2  11    2.63    0.73
   5   2 -11    3.94    0.94
   5  -2 -13   18.43    2.28
  -5  -2  13   20.99    2.44
  -5  -2  13   20.60    2.17
   5   2 -13   18.26    1.99
  -5   2  13   17.62    2.30
   5   2 -13   22.01    2.30
   5  -2 -15    1.19    1.08
  -5  -2  15    2.68    1.07
  -5   2  15    1.27    1.02
   5   2 -15    2.50    1.07
  -5  -2  17    1.67    1.09
   5  -2 -17   -0.31    0.91
   5   2 -17    0.39    0.89
  -5   2  17    0.98    1.10
   5  -2 -19    0.98    1.05
  -5  -2  19    0.54    1.03
   5  -2 -19    2.07    1.36
   5   2 -19    1.08    1.10
  -5   2  19    0.06    1.01
   5  -2 -21    3.49    1.52
   5   2 -21    6.16    1.83
   5  -3  18    8.09    2.18
  -5  -3 -18    7.87    2.04
  -5   3 -18    5.90    1.85
  -5  -3 -16    8.02    1.96
   5  -3  16    3.82    1.58
   5   3  16    7.07    1.10
  -5   3 -16    5.55    1.85
   5  -3  14    9.88    2.18
   5  -3  14    8.90    1.20
  -5  -3 -14   11.65    2.06
  -5  -3 -14    8.05    1.75
  -5   3 -14    6.83    1.76
   5   3  14   11.57    1.58
  -5  -3 -12   16.51    2.26
  -5  -3 -12   21.40    2.46
  -5  -3 -12   18.40    2.34
   5  -3  12   23.13    3.11
   5  -3  12   18.81    1.86
  -5   3 -12   19.53    2.50
   5   3  12   23.37    2.28
  -5  -3 -10   14.77    1.92
   5  -3  10   17.69    2.49
  -5  -3 -10   21.04    2.38
  -5  -3 -10   18.82    2.20
   5  -3  10   22.19    2.17
  -5   3 -10   20.37    2.44
   5   3  10   22.44    2.24
   5   3  10   19.42    2.28
  -5  -3  -8   53.84    3.08
   5  -3   8   46.07    2.64
   5  -3   8   51.90    2.15
  -5  -3  -8   51.41    3.19
  -5  -3  -8   48.71    2.78
   5  -3   8   53.07    2.16
   5  -3   8   50.82    3.37
  -5  -3  -8   52.10    3.02
  -5   3  -8   46.65    2.98
   5   3   8   49.39    2.99
   5   3   8   52.60    2.50
   5   3   8   52.07    2.90
   5  -3   6    7.41    1.51
   5  -3   6   10.90    1.53
   5  -3   6    7.02    1.03
  -5  -3  -6    9.39    1.37
  -5  -3  -6    7.04    1.28
   5  -3   6    5.68    1.36
  -5  -3  -6    7.08    1.06
  -5  -3  -6    9.55    1.57
   5  -3   6   12.06    1.92
   5  -3   6   10.07    1.22
   5   3   6    8.36    1.33
  -5   3  -6    5.28    1.17
   5   3   6   11.07    1.63
   5   3   6    7.04    1.10
   5   3   6    6.70    1.53
  -5   3  -6    9.98    1.51
   5  -3   4   34.27    2.57
  -5  -3  -4   31.10    2.25
   5  -3   4   33.99    2.06
   5  -3   4   32.17    1.97
  -5  -3  -4   29.84    2.01
   5  -3   4   32.62    2.38
   5  -3   4   32.22    2.04
  -5  -3  -4   31.79    2.13
   5  -3   4   32.26    2.49
  -5  -3  -4   30.34    2.04
   5   3   4   32.86    2.58
  -5   3  -4   32.96    2.11
   5   3   4   28.23    2.02
  -5   3  -4   29.75    2.05
  -5   3  -4   32.84    1.65
   5   3   4   30.29    2.06
   5   3   4   34.34    2.11
  -5  -3  -2   33.89    2.30
   5  -3   2   30.06    2.18
   5  -3   2   34.54    2.03
  -5  -3  -2   33.77    2.02
   5  -3   2   32.81    2.39
   5  -3   2   33.77    2.07
  -5  -3  -2   31.40    1.87
   5  -3   2   30.98    1.99
  -5  -3  -2   31.90    1.82
   5  -3   2   33.86    2.44
   5   3   2   28.61    1.96
   5   3   2   32.82    2.01
   5   3   2   35.05    2.56
   5   3   2   30.23    1.98
  -5   3  -2   30.13    1.97
  -5   3  -2   32.19    2.36
  -5   3  -2   35.91    1.82
  -5   3  -2   31.97    2.03
   5  -3   0   67.84    2.97
  -5  -3   0   68.82    3.19
   5  -3   0   71.07    3.25
   5  -3   0   71.84    3.10
  -5  -3   0   66.76    2.55
  -5  -3   0   69.53    2.69
   5  -3   0   72.17    3.63
  -5  -3   0   67.46    2.85
   5  -3   0   59.92    3.33
  -5   3   0   70.42    2.92
   5   3   0   67.34    3.00
   5   3   0   65.86    3.50
   5   3   0   68.73    2.93
  -5   3   0   65.02    3.06
   5   3   0   64.76    3.13
  -5   3   0   64.95    2.89
  -5   3   0   75.82    3.69
   5  -3  -2   75.67    3.26
   5  -3  -2   69.67    3.02
   5  -3  -2   70.98    2.98
  -5  -3   2   73.72    3.32
   5  -3  -2   72.00    3.19
   5  -3  -2   70.50    3.73
  -5  -3   2   74.16    3.39
  -5  -3   2   75.48    2.33
  -5  -3   2   78.16    2.81
   5   3  -2   74.25    2.94
  -5   3   2   78.91    3.28
  -5   3   2   81.75    3.00
  -5   3   2   79.26    3.87
   5   3  -2   71.92    3.56
   5   3  -2   73.02    3.40
   5  -3  -4  182.67    6.27
  -5  -3   4  180.59    4.69
  -5  -3   4  177.00    6.36
   5  -3  -4  196.77    7.12
  -5  -3   4  168.60    6.05
  -5  -3   4  181.24    4.73
   5  -3  -4  183.70    5.91
  -5   3   4  181.10    5.23
   5   3  -4  176.24    6.43
   5   3  -4  182.82    5.23
  -5   3   4  174.34    6.83
   5   3  -4  176.85    6.46
   5   3  -4  171.67    5.41
  -5   3   4  178.21    6.22
  -5   3   4  168.75    5.21
   5  -3  -6   46.14    2.16
   5  -3  -6   46.90    2.74
  -5  -3   6   42.26    2.39
  -5  -3   6   38.57    2.58
   5  -3  -6   45.63    2.96
   5   3  -6   48.31    1.94
  -5   3   6   41.15    2.61
   5   3  -6   47.90    2.81
   5   3  -6   48.55    2.40
   5  -3  -8   35.20    1.85
   5  -3  -8   34.11    2.44
  -5  -3   8   37.51    2.25
   5  -3  -8   37.85    2.73
  -5  -3   8   41.09    2.60
   5   3  -8   39.80    2.59
   5   3  -8   32.48    1.83
  -5   3   8   38.36    2.54
   5   3  -8   33.84    1.92
  -5  -3  10   37.79    2.30
   5  -3 -10   38.99    2.79
  -5  -3  10   35.30    2.62
   5  -3 -10   47.08    3.16
   5   3 -10   36.19    2.18
   5   3 -10   36.82    2.66
  -5   3  10   34.78    2.03
  -5   3  10   38.88    2.76
  -5  -3  12   64.98    3.86
  -5  -3  12   74.63    3.50
   5  -3 -12   69.82    3.99
   5   3 -12   69.46    3.41
  -5   3  12   69.48    4.01
   5  -3 -14   40.14    3.11
  -5  -3  14   41.77    3.19
   5   3 -14   47.02    2.92
  -5   3  14   36.16    2.98
  -5  -3  16   20.15    2.77
   5  -3 -16   16.48    2.52
   5   3 -16   18.17    2.41
  -5   3  16   20.10    2.77
   5  -3 -18   14.34    2.46
  -5  -3  18   11.03    2.17
  -5   3  18   10.93    2.25
   5   3 -18    7.54    1.76
   5  -3 -20   10.96    2.31
  -5  -3  20    6.94    2.01
  -5   3  20    8.66    2.13
   5   3 -20   13.15    2.32
   5  -3 -22    6.11    2.01
   5   3 -22    3.99    1.82
  -5  -4 -17    3.05    1.43
   5  -4  17    7.38    2.05
  -5   4 -17    5.10    1.75
   5   4  17    5.21    0.83
   5   4  17    6.34    0.94
  -5  -4 -15    3.88    1.66
  -5  -4 -15    5.92    1.61
   5  -4  15    4.31    0.73
   5  -4  15    2.42    1.24
  -5   4 -15    3.75    1.51
   5   4  15    2.55    0.99
   5  -4  13    1.26    1.12
  -5  -4 -13    1.75    1.15
  -5  -4 -13    1.07    1.00
   5  -4  13    1.26    0.67
  -5   4 -13    2.14    1.20
   5   4  13    1.31    0.75
  -5  -4 -11   16.46    2.39
   5  -4  11   17.42    2.66
  -5  -4 -11   18.58    2.31
   5  -4  11   13.86    1.72
  -5  -4 -11   11.98    1.90
   5   4  11   12.80    1.78
  -5   4 -11   13.22    2.13
  -5  -4  -9    0.27    0.77
   5  -4   9   -0.46    0.52
  -5  -4  -9   -0.45    0.75
   5  -4   9    0.00    0.89
   5   4   9    0.98    0.59
  -5   4  -9    0.34    0.75
   5   4   9    0.70    0.90
   5   4   9   -0.65    0.58
   5  -4   7   25.67    1.98
   5  -4   7   24.71    2.83
   5  -4   7   23.73    2.69
  -5  -4  -7   31.21    2.30
   5  -4   7   25.12    1.59
  -5  -4  -7   23.87    2.38
  -5  -4  -7   30.51    2.90
   5  -4   7   24.15    1.62
   5   4   7   25.78    2.06
  -5   4  -7   22.13    2.32
  -5  -4  -5   14.16    1.70
   5  -4   5   14.42    1.32
   5  -4   5    9.00    1.63
  -5  -4  -5   12.44    1.61
  -5  -4  -5   13.75    1.79
  -5  -4  -5   15.08    2.03
   5  -4   5   16.14    2.15
   5  -4   5   13.12    1.51
   5  -4   5   16.51    1.80
   5  -4   5   10.72    1.31
   5  -4   5   13.24    1.93
   5   4   5   14.83    1.75
   5   4   5   12.33    1.72
   5   4   5   13.18    2.08
  -5   4  -5   15.10    1.83
  -5   4  -5   15.80    1.89
   5   4   5   13.39    1.63
   5  -4   3   53.37    2.80
  -5  -4  -3   47.87    2.68
   5  -4   3   49.99    2.71
   5  -4   3   51.29    3.28
   5  -4   3   55.15    2.36
  -5  -4  -3   57.22    2.83
  -5  -4  -3   52.76    3.10
  -5  -4  -3   52.82    2.75
   5  -4   3   53.83    2.78
   5  -4   3   58.66    3.41
   5  -4   3   51.75    3.07
  -5   4  -3   52.76    2.33
   5   4   3   57.15    2.91
   5   4   3   56.08    3.48
  -5   4  -3   51.13    2.83
   5   4   3   57.96    2.91
  -5   4  -3   54.23    2.93
   5   4   3   54.82    2.84
   5  -4   1    7.06    1.42
  -5  -4  -1    6.41    0.80
   5  -4   1    7.04    1.23
  -5  -4  -1    8.69    1.34
   5  -4   1   10.03    1.61
   5  -4   1    9.15    1.30
  -5  -4  -1    9.23    1.11
  -5  -4  -1    5.99    1.09
   5  -4   1    9.22    1.52
  -5  -4  -1    5.49    1.18
  -5   4  -1    6.25    1.18
  -5   4  -1    7.78    1.23
   5   4   1    7.77    1.16
  -5   4  -1    7.56    1.05
   5   4   1    8.30    1.55
   5   4   1    8.14    1.30
   5   4   1    8.17    1.29
   5  -4  -1   24.85    1.85
  -5  -4   1   22.69    0.90
  -5  -4   1   23.07    1.86
   5  -4  -1   24.21    1.72
   5  -4  -1   23.70    2.14
   5  -4  -1   24.58    1.75
   5  -4  -1   23.96    1.78
  -5  -4   1   23.50    1.57
  -5  -4   1   23.51    2.18
   5   4  -1   23.15    2.05
   5   4  -1   26.28    1.71
   5   4  -1   26.16    1.73
   5   4  -1   24.24    1.90
  -5   4   1   24.45    1.72
  -5   4   1   23.23    1.84
  -5   4   1   22.04    1.67
   5  -4  -3   14.56    1.46
  -5  -4   3   17.83    1.82
   5  -4  -3   16.48    1.75
  -5  -4   3   14.51    1.10
   5  -4  -3   18.64    1.50
  -5  -4   3   15.34    1.07
   5  -4  -3   18.60    1.77
   5  -4  -3   13.22    1.89
  -5  -4   3   15.76    1.86
   5   4  -3   19.90    2.08
   5   4  -3   17.10    1.21
   5   4  -3   12.71    1.63
  -5   4   3   14.20    1.39
  -5   4   3   17.05    1.78
  -5  -4   5   31.87    2.02
  -5  -4   5   25.78    2.13
   5  -4  -5   26.13    2.04
   5  -4  -5   26.32    2.31
   5  -4  -5   24.70    1.58
   5  -4  -5   26.72    1.70
   5   4  -5   24.79    1.38
  -5   4   5   29.20    1.49
   5   4  -5   28.99    2.05
   5   4  -5   25.63    1.24
  -5   4   5   25.20    2.02
  -5   4   5   30.27    1.52
   5   4  -5   26.08    2.10
   5  -4  -7    6.45    1.45
   5  -4  -7    9.24    1.07
  -5  -4   7    8.19    1.44
   5  -4  -7    8.80    1.52
  -5  -4   7    8.60    1.29
   5  -4  -7    8.39    0.90
  -5   4   7    5.54    0.35
   5   4  -7    8.13    1.02
   5   4  -7    5.93    1.29
  -5   4   7    7.99    0.39
  -5   4   7   10.67    1.57
   5  -4  -9   14.63    1.99
   5  -4  -9   12.01    1.97
  -5  -4   9   14.73    2.02
  -5  -4   9   17.75    1.84
   5   4  -9   15.35    1.57
  -5   4   9   12.90    1.88
   5   4  -9   15.98    2.12
   5  -4 -11   18.58    2.42
  -5  -4  11   21.27    2.05
  -5  -4  11   20.16    2.50
   5   4 -11   15.73    1.74
  -5   4  11   20.91    2.53
   5  -4 -13   30.55    3.29
  -5  -4  13   23.35    2.81
   5   4 -13   28.58    2.28
  -5   4  13   34.55    3.42
  -5  -4  15    1.55    1.07
   5  -4 -15   -0.45    1.04
  -5   4  15    1.13    1.00
   5   4 -15    1.77    1.02
   5  -4 -17    7.37    1.96
  -5  -4  17    5.21    1.70
  -5   4  17    8.79    1.95
   5   4 -17    6.40    1.67
  -5  -4  19    1.71    1.13
   5  -4 -19    3.10    1.68
   5   4 -19    0.40    1.10
  -5   4  19    1.19    1.23
  -5  -4  21   -0.79    0.93
   5  -4 -21    1.57    1.49
   5   4 -21    0.43    1.18
  -5  -5 -18    1.98    1.29
   5  -5  18    0.80    1.34
  -5   5 -18    0.97    1.33
   5  -5  16    6.38    1.95
  -5  -5 -16    7.73    2.17
  -5  -5 -16    8.15    1.90
   5   5  16    8.26    1.36
  -5   5 -16    5.82    1.80
  -5  -5 -14    9.21    1.88
  -5  -5 -14   15.72    2.68
   5  -5  14    9.12    1.20
   5  -5  14    2.87    1.54
   5   5  14   10.23    1.63
  -5   5 -14    9.34    2.08
  -5  -5 -12   14.26    2.18
   5  -5  12   15.52    2.63
   5  -5  12   16.99    1.83
  -5  -5 -12   12.87    2.12
  -5  -5 -12   14.41    2.48
   5   5  12   14.53    2.03
  -5   5 -12   14.24    2.33
   5  -5  10   12.33    2.34
  -5  -5 -10   10.65    2.04
  -5  -5 -10   11.96    1.95
  -5   5 -10   13.80    2.12
   5   5  10   11.59    1.86
  -5  -5  -8    8.36    1.62
   5  -5   8   12.28    2.24
   5  -5   8    9.14    1.52
   5  -5   8   10.22    0.96
  -5  -5  -8    7.99    1.74
  -5   5  -8    9.97    1.82
   5   5   8   12.14    1.87
   5  -5   6   27.67    2.08
   5  -5   6   27.91    2.89
   5  -5   6   28.86    3.08
  -5  -5  -6   22.66    2.36
  -5  -5  -6   22.53    2.71
  -5  -5  -6   27.73    2.63
   5  -5   6   23.96    1.72
   5  -5   6   26.10    1.84
   5   5   6   23.88    2.44
  -5   5  -6   22.94    2.57
  -5   5  -6   26.24    2.61
   5   5   6   24.25    1.98
   5  -5   4   48.66    2.75
   5  -5   4   42.37    3.10
   5  -5   4   47.24    3.34
   5  -5   4   46.04    3.04
   5  -5   4   46.26    2.64
  -5  -5  -4   44.98    2.70
  -5  -5  -4   42.91    2.67
  -5  -5  -4   42.01    2.65
   5  -5   4   48.85    2.66
  -5  -5  -4   43.56    3.02
  -5   5  -4   43.93    2.78
  -5   5  -4   42.64    2.80
   5   5   4   43.76    2.70
   5   5   4   50.91    2.76
   5   5   4   44.19    2.71
   5   5   4   46.01    3.40
   5  -5   2   10.35    1.47
   5  -5   2    8.70    1.65
  -5  -5  -2   13.51    1.90
  -5  -5  -2    9.31    1.26
   5  -5   2   11.69    1.30
  -5  -5  -2   11.91    1.51
   5  -5   2   10.98    1.88
  -5  -5  -2   13.59    1.66
  -5  -5  -2   12.12    1.43
   5  -5   2    7.69    1.45
   5  -5   2    9.12    1.43
   5   5   2   11.59    1.57
  -5   5  -2   11.63    1.28
   5   5   2   10.27    1.48
  -5   5  -2   12.95    1.65
  -5   5  -2   10.03    1.60
   5   5   2   10.13    1.42
   5   5   2   12.08    1.96
  -5  -5   0   44.30    1.70
   5  -5   0   36.64    2.83
  -5  -5   0   41.73    2.07
  -5  -5   0   41.24    2.49
   5  -5   0   41.13    2.50
  -5  -5   0   37.58    2.26
   5  -5   0   39.63    2.27
  -5  -5   0   36.55    2.58
   5  -5   0   42.14    2.57
   5  -5   0   43.27    2.54
   5   5   0   47.22    2.55
  -5   5   0   42.48    2.71
  -5   5   0   45.49    2.54
   5   5   0   44.29    2.50
   5   5   0   40.64    2.52
  -5   5   0   40.70    2.29
  -5  -5   2   59.13    2.66
  -5  -5   2   51.32    2.99
   5  -5  -2   57.71    2.95
   5  -5  -2   48.63    3.39
   5  -5  -2   60.27    2.97
   5  -5  -2   57.04    2.95
   5  -5  -2   56.00    2.86
  -5  -5   2   59.01    3.16
  -5   5   2   61.16    2.86
   5   5  -2   58.00    2.82
  -5   5   2   57.03    2.94
   5   5  -2   52.57    3.03
   5   5  -2   55.17    2.79
   5   5  -2   58.98    3.43
   5  -5  -4   10.05    1.36
  -5  -5   4   12.30    0.97
   5  -5  -4   15.93    1.80
   5  -5  -4   14.05    1.61
   5  -5  -4   14.63    2.07
   5  -5  -4   14.56    1.53
  -5  -5   4   12.08    1.72
  -5  -5   4   12.03    1.53
  -5  -5   4   11.11    1.10
   5   5  -4   11.36    1.17
   5   5  -4   11.48    1.23
  -5   5   4   10.61    1.51
  -5   5   4   11.06    1.30
   5   5  -4   10.83    1.62
   5  -5  -6   15.80    1.44
  -5  -5   6   11.40    1.50
   5  -5  -6   16.60    2.00
  -5  -5   6   16.06    2.04
   5  -5  -6   13.38    1.43
   5  -5  -6   13.61    2.05
   5   5  -6   16.39    2.07
  -5   5   6   16.92    1.45
   5   5  -6   12.68    1.29
  -5   5   6   11.90    1.72
  -5  -5   8    9.61    1.71
   5  -5  -8   11.22    1.86
   5  -5  -8   11.58    2.00
  -5  -5   8   12.40    1.59
   5   5  -8   11.33    1.33
  -5   5   8   10.26    0.63
  -5   5   8   10.51    1.76
  -5   5   8   10.02    0.63
   5   5  -8    9.93    1.69
  -5  -5  10   12.88    2.06
   5  -5 -10   11.40    1.96
  -5  -5  10   14.43    1.79
   5   5 -10   15.37    1.76
  -5   5  10   12.95    2.07
   5  -5 -12   21.15    2.71
  -5  -5  12   21.41    2.74
   5   5 -12   23.22    2.31
  -5   5  12   24.92    2.90
  -5  -5  14   11.74    2.19
   5  -5 -14   19.79    2.86
   5   5 -14   13.96    1.98
  -5   5  14   14.15    2.46
   5  -5 -16   12.87    2.53
  -5  -5  16   12.20    2.43
  -5   5  16   12.28    2.36
   5   5 -16    9.62    1.80
  -5  -5  18    2.95    1.39
   5  -5 -18    3.82    1.78
   5   5 -18    1.18    0.99
  -5  -5  20    3.58    1.60
   5  -5 -20    2.95    1.57
   5   5 -20    2.76    1.40
  -5  -6 -17    2.44    1.59
  -5  -6 -17    1.05    1.10
   5  -6  17    3.14    1.61
   5   6  17    1.86    0.82
  -5   6 -17    1.21    1.32
  -5  -6 -15    3.58    1.42
   5  -6  15    0.76    1.33
  -5  -6 -15    3.88    1.75
   5  -6  15    1.65    0.54
   5   6  15    2.68    1.13
  -5   6 -15    3.79    1.73
   5  -6  13    9.48    2.29
  -5  -6 -13    9.70    2.09
   5  -6  13    8.24    1.31
   5   6  13    9.87    1.65
  -5   6 -13    9.86    2.21
   5  -6  11   10.50    2.32
   5  -6  11    9.88    1.52
  -5  -6 -11    8.77    1.79
  -5  -6 -11   15.16    2.57
   5   6  11   10.26    1.72
  -5   6 -11    9.95    2.01
  -5  -6  -9   20.76    2.51
   5  -6   9   20.63    2.80
   5  -6   9   20.23    2.19
  -5  -6  -9   20.58    2.83
   5   6   9   22.17    1.69
   5   6   9   18.55    2.33
  -5   6  -9   16.88    2.44
  -5  -6  -7    6.85    1.51
   5  -6   7    5.82    1.32
   5  -6   7    5.96    1.00
   5  -6   7    2.99    1.36
  -5  -6  -7    7.95    1.55
  -5  -6  -7    6.89    1.72
   5   6   7    5.78    1.43
  -5   6  -7    7.24    1.62
  -5  -6  -5    3.83    1.23
  -5  -6  -5    7.80    1.43
  -5  -6  -5    4.90    1.45
   5  -6   5    6.42    1.33
   5  -6   5    7.23    1.75
   5  -6   5    7.22    1.24
  -5   6  -5    5.01    1.34
   5   6   5    7.83    1.50
  -5   6  -5    6.21    1.49
   5   6   5    8.28    1.44
   5  -6   3   19.67    2.37
   5  -6   3   15.63    2.33
  -5  -6  -3   13.95    2.13
  -5  -6  -3   13.80    1.85
  -5  -6  -3   16.23    1.86
   5  -6   3   14.58    1.81
  -5  -6  -3   18.12    1.89
   5  -6   3   17.49    1.99
   5  -6   3   15.89    2.32
  -5  -6  -3   18.73    1.97
   5   6   3   16.21    2.01
  -5   6  -3   15.98    1.98
   5   6   3   15.99    1.83
  -5   6  -3   14.80    2.06
  -5  -6  -1   29.48    2.02
   5  -6   1   25.18    1.79
  -5  -6  -1   24.58    1.79
   5  -6   1   23.29    2.07
  -5  -6  -1   20.66    2.40
   5  -6   1   25.46    2.40
  -5  -6  -1   23.13    2.20
  -5  -6  -1   26.26    2.05
   5  -6   1   31.49    2.85
   5  -6   1   25.73    2.88
  -5   6  -1   31.98    2.31
   5   6   1   25.74    2.04
   5   6   1   26.90    2.10
   5   6   1   25.02    2.02
  -5   6  -1   24.43    1.75
  -5   6  -1   23.61    2.56
   5  -6  -1   22.67    1.86
  -5  -6   1   23.05    1.81
  -5  -6   1   23.80    2.46
  -5  -6   1   24.47    2.36
   5  -6  -1   23.63    2.31
   5  -6  -1   31.87    2.70
   5  -6  -1   24.25    2.07
   5  -6  -1   24.01    1.97
  -5   6   1   25.47    2.34
   5   6  -1   25.62    1.99
  -5   6   1   24.48    1.90
   5   6  -1   25.24    1.98
   5   6  -1   22.95    1.93
  -5  -6   3   29.30    2.24
  -5  -6   3   27.60    1.81
   5  -6  -3   24.01    2.03
   5  -6  -3   29.32    1.91
   5  -6  -3   22.36    2.71
   5  -6  -3   28.51    2.18
  -5  -6   3   30.16    2.32
   5  -6  -3   26.14    2.10
   5   6  -3   29.86    2.02
  -5   6   3   24.62    2.04
  -5   6   3   29.54    2.06
   5   6  -3   31.60    2.34
   5  -6  -5   42.19    2.57
   5  -6  -5   42.07    2.82
   5  -6  -5   32.89    2.89
  -5  -6   5   35.76    2.47
  -5  -6   5   41.32    1.86
  -5  -6   5   41.45    2.89
  -5   6   5   37.32    2.72
  -5   6   5   37.73    2.23
   5   6  -5   41.11    2.20
   5   6  -5   39.81    2.88
  -5  -6   7    0.86    0.66
   5  -6  -7    0.88    0.71
   5  -6  -7    0.20    0.82
  -5  -6   7    0.66    0.89
   5  -6  -7    0.54    0.92
  -5   6   7    1.32    0.60
  -5   6   7    1.85    0.91
   5   6  -7   -0.64    0.51
   5   6  -7    0.02    0.73
   5  -6  -9   17.10    2.43
  -5  -6   9   16.53    1.92
  -5  -6   9   15.19    2.28
   5   6  -9   14.78    1.71
  -5   6   9   13.01    0.86
  -5   6   9   13.54    2.20
   5  -6 -11   20.49    2.71
  -5  -6  11   17.07    2.62
   5   6 -11   16.67    1.92
  -5   6  11   20.06    2.69
   5  -6 -13   10.90    2.22
  -5  -6  13    9.18    1.98
   5   6 -13    9.49    1.71
  -5   6  13    6.84    1.78
   5  -6 -15    7.02    1.97
  -5  -6  15    7.05    2.01
   5   6 -15    7.46    1.58
  -5   6  15    8.39    2.12
   5  -6 -17    2.67    1.75
  -5  -6  17    4.64    1.82
   5   6 -17    2.11    1.18
  -5  -6  19    0.63    1.11
   5  -6 -19   -0.30    1.32
   5   6 -19    0.14    1.16
  -5  -7 -16    1.00    1.12
  -5  -7 -16   -0.39    1.30
   5  -7  16    1.13    1.30
   5   7  16    1.17    0.86
  -5   7 -16    1.99    1.53
   5   7  16    0.36    0.73
   5  -7  14    3.38    1.53
  -5  -7 -14    2.44    1.53
   5  -7  14    2.42    0.78
   5   7  14    3.18    1.11
  -5   7 -14    3.33    1.59
  -5  -7 -12    2.03    1.48
   5  -7  12    2.64    1.63
   5  -7  12    0.01    0.68
   5   7  12    1.64    1.08
  -5   7 -12   -0.50    1.03
   5  -7  10   12.65    1.77
  -5  -7 -10   10.09    2.27
   5  -7  10    9.39    2.11
   5   7  10   12.80    2.06
  -5   7 -10    9.34    1.99
  -5  -7  -8    2.80    1.57
   5  -7   8    1.57    0.99
  -5  -7  -8    5.32    1.42
   5  -7   8    0.80    1.08
   5   7   8    0.92    0.92
  -5   7  -8    2.72    1.33
   5  -7   6   13.56    1.58
  -5  -7  -6    9.96    1.79
  -5  -7  -6   12.63    1.92
   5  -7   6    7.48    1.73
  -5  -7  -6   13.61    2.44
   5  -7   6   10.24    1.71
   5   7   6   16.83    2.32
  -5   7  -6    9.43    1.86
  -5  -7  -4    0.53    0.71
   5  -7   4    0.30    0.76
   5  -7   4   -0.15    0.71
  -5  -7  -4    0.79    1.03
   5  -7   4    0.18    0.93
  -5  -7  -4   -0.21    0.82
   5   7   4    0.21    0.73
  -5   7  -4    0.55    0.98
   5   7   4    1.15    0.87
  -5   7  -4    0.98    0.96
  -5  -7  -2    5.96    1.29
  -5  -7  -2    8.00    1.29
   5  -7   2    5.76    1.61
   5  -7   2    4.73    1.37
   5  -7   2    5.77    1.29
  -5  -7  -2    6.01    1.30
   5  -7   2    5.87    1.38
  -5  -7  -2    7.32    1.72
   5   7   2    7.19    1.42
   5   7   2    3.13    1.13
  -5   7  -2    5.42    1.48
  -5   7  -2    5.98    1.44
   5  -7   0    8.79    1.55
   5  -7   0   12.45    1.82
  -5  -7   0   11.55    1.33
   5  -7   0    9.91    1.97
   5  -7   0   10.59    1.70
   5  -7   0   10.56    1.54
  -5  -7   0    9.44    1.56
  -5  -7   0   11.55    1.69
  -5  -7   0   13.74    2.19
  -5   7   0    9.72    1.50
  -5   7   0   12.76    1.87
   5   7   0   15.35    2.07
   5   7   0   11.07    1.66
   5   7   0    9.66    1.55
  -5  -7   2   22.16    2.45
   5  -7  -2   23.88    1.96
   5  -7  -2   25.32    3.03
   5  -7  -2   27.26    2.32
  -5  -7   2   23.84    2.23
   5  -7  -2   18.68    2.17
  -5  -7   2   26.18    2.64
   5  -7  -2   26.54    2.67
  -5   7   2   20.80    2.26
  -5   7   2   25.75    2.49
   5   7  -2   21.16    2.40
   5   7  -2   22.73    2.30
   5  -7  -4   29.00    2.81
   5  -7  -4   28.24    2.39
  -5  -7   4   25.65    2.76
  -5  -7   4   28.89    2.71
   5  -7  -4   26.77    3.12
  -5  -7   4   22.90    1.70
  -5   7   4   28.22    2.73
  -5   7   4   28.21    2.51
   5   7  -4   20.59    2.49
   5   7  -4   23.46    1.99
  -5  -7   6    8.29    0.93
   5  -7  -6    7.98    1.72
   5  -7  -6    8.41    1.55
  -5  -7   6    7.88    1.49
  -5  -7   6    7.63    1.63
  -5   7   6    7.96    1.27
   5   7  -6    4.97    1.37
  -5   7   6    7.10    1.56
  -5  -7   8    4.33    1.16
   5  -7  -8    3.97    1.42
  -5  -7   8    5.14    1.49
  -5   7   8    3.25    1.26
   5   7  -8    6.52    1.55
  -5   7   8    5.70    1.01
  -5  -7  10    4.69    1.54
   5  -7 -10    7.25    1.89
  -5   7  10    6.40    0.71
  -5   7  10    5.58    1.77
   5  -7 -12   12.32    2.38
  -5  -7  12    5.34    1.77
  -5   7  12    5.56    1.77
  -5  -7  14    4.34    1.74
   5  -7 -14    4.71    1.84
  -5  -7  16    1.26    1.17
   5  -7 -16    4.86    1.92
  -5  -7  18    1.95    1.45
   5  -7 -18   -0.15    1.38
   5  -8  15   -0.15    1.15
  -5  -8 -15   -0.92    1.39
   5   8  15   -0.51    0.78
   5   8  15    0.55    0.83
  -5   8 -15    1.71    1.51
  -5  -8 -13    1.49    1.49
   5  -8  13    2.00    0.84
   5  -8  13    1.56    1.42
  -5   8 -13   -0.16    1.05
   5   8  13    0.46    0.97
   5  -8  11   17.71    2.07
  -5  -8 -11   14.25    2.70
   5  -8  11   16.95    2.87
  -5   8 -11   20.71    3.07
   5   8  11   19.30    2.66
   5  -8   9    5.87    1.97
  -5  -8  -9    5.90    1.94
   5  -8   9    7.58    1.56
   5   8   9    6.60    1.52
  -5   8  -9    7.69    1.86
   5  -8   7    2.83    1.39
   5  -8   7    2.59    1.11
  -5  -8  -7    5.77    1.77
  -5  -8  -7    3.20    1.47
  -5   8  -7    1.98    1.36
   5   8   7    3.36    1.35
  -5  -8  -5    7.78    1.63
  -5  -8  -5    6.92    1.48
   5  -8   5    5.43    1.41
   5  -8   5    5.53    1.60
   5  -8   5    5.40    1.25
  -5  -8  -5    6.62    1.86
  -5   8  -5    8.18    1.91
   5   8   5    8.02    1.64
   5  -8   3   11.88    1.95
  -5  -8  -3    8.16    1.92
  -5  -8  -3    7.04    1.38
  -5  -8  -3    9.47    1.76
   5  -8   3   10.44    1.66
   5  -8   3    7.83    1.69
   5   8   3    9.84    1.83
  -5   8  -3   13.10    2.13
  -5   8  -3    7.76    1.83
  -5  -8  -1    5.59    1.42
  -5  -8  -1    4.37    1.03
  -5  -8  -1    4.64    1.32
   5  -8   1    5.21    1.36
   5  -8   1    6.47    1.48
   5  -8   1    9.93    1.82
  -5  -8  -1    7.60    1.79
  -5   8  -1    7.49    1.76
  -5   8  -1    8.73    1.81
   5   8   1    3.94    1.43
   5   8   1    6.89    1.52
  -5  -8   1    9.71    1.59
   5  -8  -1   11.28    1.69
  -5  -8   1   12.89    1.95
   5  -8  -1   10.36    1.73
   5  -8  -1   11.89    1.85
   5  -8  -1   11.82    1.94
  -5  -8   1    5.94    1.61
  -5   8   1    8.79    1.57
  -5   8   1   11.93    1.90
   5   8  -1   10.70    1.76
  -5  -8   3   33.38    2.29
   5  -8  -3   36.86    2.83
  -5  -8   3   35.20    3.37
  -5  -8   3   34.49    2.83
   5  -8  -3   29.58    2.63
  -5   8   3   33.54    2.72
   5   8  -3   30.17    3.07
   5   8  -3   38.58    2.76
  -5   8   3   37.85    2.72
  -5  -8   5   20.67    2.64
  -5  -8   5   19.41    1.80
  -5  -8   5   23.57    2.56
   5  -8  -5   19.94    2.48
   5  -8  -5   19.28    2.39
  -5   8   5   20.44    2.46
   5   8  -5   16.96    2.37
  -5   8   5   19.45    2.22
  -5  -8   7    1.32    0.81
   5  -8  -7    0.63    0.92
  -5  -8   7    0.31    0.90
  -5  -8   7    0.11    0.34
   5  -8  -7    0.02    0.89
   5   8  -7    0.18    0.80
  -5   8   7    2.07    1.07
  -5   8   7    0.36    0.64
   5  -8  -9   16.77    2.57
  -5  -8   9   20.45    2.80
  -5   8   9   13.86    2.40
  -5   8   9   14.83    1.60
   5  -8 -11   14.97    2.65
  -5  -8  11   12.12    2.34
  -5   8  11   14.64    0.89
   5  -8 -13   -1.11    0.94
  -5  -8  13   -0.22    1.10
  -5  -8  15    3.37    1.64
   5  -8 -15   12.69    2.63
   5  -8 -17    4.93    2.05
  -5  -8  17    0.72    1.18
   5  -9  14    1.46    1.45
   5  -9  14    0.78    0.66
  -5  -9 -14    2.27    1.63
   5   9  14    1.02    1.01
   5   9  14    0.40    0.89
  -5   9 -14    1.02    1.36
   5  -9  12    5.85    1.35
  -5  -9 -12    6.73    2.20
   5  -9  12    7.08    2.15
  -5   9 -12    8.41    2.25
   5   9  12    5.97    1.62
   5  -9  10   -0.47    1.06
   5  -9  10    0.61    0.77
  -5  -9 -10   -0.17    1.35
  -5   9 -10   -0.20    0.98
   5   9  10    0.46    0.94
  -5  -9  -8    4.49    1.78
   5  -9   8    5.51    1.44
   5  -9   8    5.66    1.77
   5   9   8    9.63    1.96
  -5   9  -8    7.21    1.96
  -5  -9  -6    0.69    0.90
   5  -9   6    0.27    0.83
   5  -9   6   -0.18    0.56
  -5  -9  -6   -0.09    1.23
   5  -9   6    0.59    1.00
   5   9   6    0.63    1.01
  -5   9  -6   -0.07    0.99
  -5  -9  -4    1.64    1.12
   5  -9   4    4.33    1.51
   5  -9   4    6.23    1.61
  -5  -9  -4    2.56    1.37
   5  -9   4    3.94    1.09
  -5   9  -4    4.47    1.66
   5   9   4    2.34    1.24
  -5  -9  -2    1.89    0.85
   5  -9   2    2.60    1.14
   5  -9   2    2.00    1.03
   5  -9   2    2.35    1.09
  -5  -9  -2    3.40    1.58
  -5  -9  -2    2.11    1.10
   5   9   2    2.45    1.24
  -5   9  -2    2.78    1.23
  -5   9  -2    2.38    1.32
  -5  -9   0    3.17    1.49
  -5  -9   0    5.71    1.43
  -5  -9   0    3.67    0.88
   5  -9   0    3.05    1.17
  -5  -9   0    2.67    1.11
   5  -9   0    3.20    1.21
   5  -9   0    2.67    1.25
  -5   9   0    2.69    1.34
   5   9   0    3.21    1.14
  -5  -9   2    5.81    1.55
   5  -9  -2    9.89    1.89
  -5  -9   2    8.20    1.46
   5  -9  -2    9.38    1.77
  -5  -9   2    7.05    1.75
   5   9  -2    6.38    1.58
  -5   9   2    6.96    1.57
   5  -9  -4   -0.03    1.09
   5  -9  -4    0.25    0.89
  -5  -9   4    2.11    1.18
  -5  -9   4    1.07    0.77
  -5  -9   4    0.48    1.02
   5   9  -4    0.40    0.91
  -5   9   4    1.63    0.99
  -5  -9   6    1.55    1.02
   5  -9  -6    4.24    1.45
  -5  -9   6    1.84    0.76
  -5  -9   6    3.28    1.38
   5  -9  -6    1.85    1.24
   5   9  -6    1.07    0.97
  -5   9   6    2.41    1.02
  -5  -9   8    7.31    1.81
   5  -9  -8    6.96    1.91
  -5   9   8    5.79    1.23
   5   9  -8    7.36    1.84
   5  -9 -10   -0.07    1.39
  -5  -9  10    2.29    1.36
  -5   9  10    2.17    0.79
   5  -9 -12   -0.01    1.33
  -5  -9  12    2.92    1.53
   5  -9 -14   -0.60    1.29
  -5  -9  14    1.39    1.38
   5  -9 -16   -0.22    1.50
  -5  -9  16    0.30    1.17
   5 -10  11    1.84    0.89
  -5 -10 -11   -0.56    1.13
   5 -10  11    1.11    1.42
  -5  10 -11    1.27    1.38
   5  10  11    0.95    1.16
  -5 -10  -9   -1.11    1.20
   5 -10   9   -0.03    1.13
   5 -10   9   -0.06    0.82
  -5  10  -9    1.03    1.33
   5  10   9   -0.30    0.90
   5 -10   7    5.10    1.79
   5 -10   7    6.83    1.62
  -5 -10  -7    6.11    2.13
  -5  10  -7    6.41    1.86
   5  10   7    5.97    1.70
  -5 -10  -5    8.03    2.07
   5 -10   5    5.32    1.78
   5 -10   5    4.78    1.48
  -5 -10  -5    7.22    1.82
  -5  10  -5    6.90    1.95
   5  10   5    5.86    1.76
   5 -10   3   14.63    2.37
  -5 -10  -3   12.24    2.57
  -5 -10  -3    7.62    1.79
   5 -10   3   11.25    2.16
   5  10   3   11.63    2.24
  -5  10  -3   15.65    2.64
  -5 -10  -1    2.87    1.45
   5 -10   1    1.60    1.23
  -5 -10  -1    2.35    0.88
  -5 -10  -1    2.36    1.16
  -5  10  -1    2.78    1.37
  -5 -10   1    1.78    0.99
   5 -10  -1    1.84    1.20
  -5 -10   1    1.55    1.14
  -5 -10   1    2.20    1.35
  -5  10   1    1.53    1.20
   5  10  -1    2.54    1.12
  -5 -10   3    3.92    1.50
  -5 -10   3    3.76    1.50
  -5 -10   3    3.55    1.10
   5 -10  -3    3.94    1.51
   5  10  -3    2.39    1.28
  -5  10   3    1.82    1.04
  -5 -10   5    8.26    2.02
   5 -10  -5    4.14    1.66
  -5 -10   5    5.74    1.61
  -5 -10   5    5.20    1.20
  -5  10   5    4.05    1.30
   5  10  -5    6.46    1.79
   5 -10  -7    9.71    2.14
  -5 -10   7   12.12    2.38
  -5 -10   7    6.58    1.02
   5  10  -7   11.44    2.23
  -5  10   7    9.07    1.62
   5 -10  -9    6.51    2.07
  -5 -10   9    6.77    2.00
   5  10  -9    5.01    1.61
  -5  10   9    4.78    1.18
   5 -10 -11    1.28    1.30
  -5 -10  11    1.39    1.23
  -5  10  11    2.01    0.75
   5 -10 -13    0.34    1.38
  -5 -10  13    2.41    1.66
   5 -10 -15    0.72    1.71
  -5 -10  15   -0.33    1.34
   5 -11  10    0.57    0.88
  -5 -11 -10    2.63    1.75
   5 -11  10    0.58    1.32
   5  11  10    0.90    1.28
   5  11  10    2.74    1.49
  -5  11 -10    2.87    1.75
  -5 -11  -8    1.25    1.41
   5 -11   8   -0.14    1.11
   5 -11   8    2.22    1.29
  -5  11  -8    1.62    1.54
   5  11   8    0.29    0.96
  -5 -11  -6    3.36    1.58
   5 -11   6    2.08    1.28
   5 -11   6    5.90    2.05
  -5 -11  -6    5.26    1.83
  -5  11  -6    2.21    1.45
   5  11   6    3.41    1.43
   5 -11   4    5.61    1.82
  -5 -11  -4    3.80    1.77
  -5 -11  -4    3.22    1.40
   5 -11   4    6.63    1.80
   5  11   4    5.04    1.71
  -5  11  -4    3.20    1.59
   5 -11   2    2.19    1.28
  -5 -11  -2    3.98    1.79
  -5 -11  -2    2.25    1.25
  -5  11  -2    0.34    1.19
   5 -11   0    2.18    1.47
  -5 -11   0    2.24    1.17
  -5 -11   0   -0.17    1.16
  -5  11   0    1.57    1.28
  -5 -11   2    1.31    0.94
  -5 -11   2    3.59    1.56
  -5  11   2    1.02    1.11
   5 -11  -4    3.45    1.65
  -5 -11   4    3.23    1.41
  -5 -11   4    2.73    1.06
  -5 -11   4    3.21    1.50
   5  11  -4    4.47    1.56
  -5  11   4    2.64    1.26
  -5 -11   6    0.41    1.16
  -5 -11   6    0.39    0.62
   5 -11  -6    1.61    1.50
   5  11  -6    1.01    1.02
  -5  11   6    0.52    0.90
   5 -11  -8    0.23    1.35
  -5 -11   8    1.07    0.45
  -5 -11   8    1.00    1.17
   5  11  -8   -0.48    0.82
  -5  11   8   -0.47    0.69
  -5 -11  10    1.29    1.40
   5 -11 -10   -0.25    1.44
   5  11 -10   -0.24    1.00
  -5  11  10    3.10    1.03
   5 -11 -12    0.70    1.63
  -5 -11  12    0.66    1.30
  -5  11  12    1.27    0.64
   5  11 -12    1.11    1.29
   5 -12   7   -0.03    0.98
   5 -12   7    0.50    1.33
  -5 -12  -7    1.15    1.40
  -5  12  -7   -1.51    0.92
   5  12   7   -1.71    1.05
   5  12   7    1.28    1.43
  -5 -12  -5    1.27    1.55
  -5 -12  -5    3.13    1.58
   5 -12   5    2.92    1.43
   5  12   5    3.33    1.60
   5 -12   3    4.11    1.62
  -5 -12  -3    5.59    1.87
  -5 -12  -3    5.92    2.14
  -5 -12  -1    2.57    1.29
   5 -12   1    0.87    1.13
  -5 -12  -1    1.21    1.53
  -5  12  -1    1.42    1.46
  -5 -12   1   -0.50    0.80
  -5 -12   1    1.10    1.27
  -5  12   1    0.71    1.25
  -5 -12   3    1.32    0.93
  -5  12   3    2.05    1.44
  -5 -12   5    0.61    0.78
  -5 -12   5    1.54    1.28
   5 -12  -5    3.54    1.73
  -5  12   5    2.72    1.33
   5  12  -5    3.22    1.40
  -5 -12   7    0.19    0.59
  -5 -12   7    2.21    1.48
   5 -12  -7   -2.11    1.28
  -5  12   7    0.05    0.99
   5  12  -7   -0.15    0.98
   5 -12  -9    1.55    1.57
  -5 -12   9    1.93    1.66
  -5  12   9    1.38    0.89
   5  12  -9    3.85    1.72
  -5 -12  11    2.37    1.78
   5 -12 -11    0.07    1.74
   5  12 -11    2.71    1.59
  -5  12  11    1.03    0.88
  -5 -13  -4   -0.31    1.51
   5 -13   2    0.27    1.29
  -5 -13  -2    1.03    1.28
  -5 -13  -2   -0.49    1.31
   5 -13   0    0.53    1.26
  -5 -13   0    0.44    1.02
  -5 -13   0   -0.83    1.30
  -5  13   0    0.49    1.35
  -5 -13   2    0.60    0.95
  -5  13   2    0.47    1.20
  -5 -13   4    0.81    0.79
  -5  13   4   -1.32    1.05
   5 -13  -6    0.86    1.44
  -5 -13   6    0.03    0.66
  -5  13   6    1.62    1.12
  -6   0 -18   11.72    2.45
  -6   0 -16   16.05    2.47
   6   0  16   20.25    1.86
   6   0  16   14.36    2.50
  -6   0 -14   11.73    2.11
   6   0  14   11.62    1.57
   6   0  14   10.38    2.02
   6   0  12   10.94    2.04
  -6   0 -12   15.63    2.23
   6   0  12   17.21    2.02
   6   0  10   28.25    3.06
   6   0  10   29.49    2.16
  -6   0 -10   21.74    2.34
  -6   0  -8   52.29    2.78
  -6   0  -8   54.31    3.12
   6   0   8   49.59    3.30
   6   0   8   53.06    2.95
  -6   0  -8   54.67    2.98
   6   0   8   58.53    2.67
   6   0   8   51.73    2.59
   6   0   6  160.95    6.37
   6   0   6  153.89    6.83
   6   0   6  158.54    5.70
   6   0   6  154.56    5.83
  -6   0  -6  158.79    5.56
  -6   0  -6  150.46    5.52
  -6   0  -6  160.20    5.80
   6   0   6  158.57    5.71
  -6   0  -4  551.77   14.90
  -6   0  -4  551.35   17.13
   6   0   4  551.70   17.86
  -6   0  -4  557.36   15.51
  -6   0  -4  532.90   15.10
   6   0   4  542.10   16.34
   6   0   4  542.09   16.81
   6   0   4  532.02   16.14
  -6   0  -4  546.84   16.84
   6   0   4  537.14   15.09
   6   0   2   28.81    1.88
  -6   0  -2   25.37    1.77
  -6   0  -2   26.30    1.80
   6   0   2   28.53    1.83
   6   0   2   29.64    2.02
   6   0   2   30.77    2.31
  -6   0  -2   26.59    2.03
  -6   0  -2   26.11    1.47
   6   0   2   26.71    2.05
   6   0   0   16.56    1.69
   6   0   0   14.86    1.78
   6   0   0   18.67    1.37
   6   0   0   18.41    1.44
  -6   0   0   15.78    1.59
  -6   0   0   17.07    1.54
   6   0   0   16.08    1.72
  -6   0   0   16.08    1.75
  -6   0   2   51.95    2.67
  -6   0   2   52.19    2.13
   6   0  -2   54.77    2.92
   6   0  -2   54.26    2.77
   6   0  -2   56.00    2.69
  -6   0   2   54.13    2.76
   6   0  -4   67.46    3.09
  -6   0   4   70.86    3.27
  -6   0   4   70.30    3.21
  -6   0   4   71.67    3.21
   6   0  -4   69.13    3.21
   6   0  -4   67.43    3.16
  -6   0   6  186.05    6.74
   6   0  -6  198.02    6.60
  -6   0   6  194.32    6.71
   6   0  -6  192.28    7.00
   6   0  -6  205.95    6.80
   6   0  -8  171.54    6.36
   6   0  -8  158.86    5.92
   6   0  -8  164.74    5.44
  -6   0   8  167.82    6.13
  -6   0   8  157.82    5.90
   6   0 -10  140.00    5.40
  -6   0  10  134.71    5.47
  -6   0  10  133.94    5.33
   6   0 -12    2.99    0.97
  -6   0  12    2.13    0.82
   6   0 -12    2.81    0.94
  -6   0  12    3.37    1.12
   6   0 -14    9.31    1.56
   6   0 -14   10.66    1.68
   6   0 -14   11.69    1.92
  -6   0  14   11.94    2.01
  -6   0  14    9.32    1.60
   6   0 -16   66.86    2.43
   6   0 -16   62.61    3.86
   6   0 -16   54.49    3.57
  -6   0  16   52.28    3.77
  -6   0  16   58.02    3.77
  -6   0  18   39.32    3.25
   6   0 -18   31.52    3.38
   6   0 -18   36.66    3.64
   6   0 -20   30.86    3.68
   6   0 -22   20.40    3.16
   6  -1  17   -0.37    1.17
  -6  -1 -17   -0.65    1.01
  -6   1 -17   -0.51    0.95
   6   1  17    1.57    0.62
  -6  -1 -15    0.37    0.87
   6  -1  15    0.85    1.18
   6  -1  15   -0.34    0.52
  -6   1 -15   -1.07    0.73
   6   1  15    0.25    0.59
   6  -1  13    3.07    1.42
   6  -1  13    1.76    0.79
  -6  -1 -13    3.27    1.18
   6   1  13    3.27    0.98
   6   1  13    4.52    1.51
  -6   1 -13    3.11    1.31
   6  -1  11   12.55    2.16
   6  -1  11   10.16    1.54
  -6  -1 -11   13.27    1.93
  -6  -1 -11   11.87    1.89
   6   1  11   12.86    1.76
  -6   1 -11   17.62    2.27
   6   1  11   12.69    2.09
   6  -1   9    2.21    0.56
  -6  -1  -9    1.38    0.80
   6  -1   9    1.53    1.13
  -6  -1  -9    3.43    1.11
   6  -1   9    2.81    0.92
   6  -1   9    3.78    0.70
  -6  -1  -9    2.13    0.95
   6   1   9    2.74    0.73
   6   1   9    2.85    1.32
   6   1   9    3.10    0.95
  -6   1  -9    3.11    1.12
   6  -1   7    3.54    0.96
  -6  -1  -7    3.83    0.92
   6  -1   7    3.19    0.82
  -6  -1  -7    3.81    0.98
   6  -1   7    1.65    1.10
  -6  -1  -7    5.48    1.24
   6  -1   7    4.02    0.84
   6   1   7    4.61    1.27
  -6   1  -7    5.17    1.23
  -6   1  -7    4.92    1.12
   6   1   7    5.09    1.01
   6   1   7    3.92    1.02
  -6   1  -7    3.09    0.77
   6   1   7    2.81    0.75
  -6  -1  -5   23.21    1.80
  -6  -1  -5   20.71    2.02
   6  -1   5   18.54    2.24
   6  -1   5   21.76    2.53
  -6  -1  -5   21.04    1.71
   6  -1   5   19.64    1.66
   6  -1   5   22.55    1.76
  -6  -1  -5   17.68    1.42
   6  -1   5   22.28    1.65
   6   1   5   24.72    2.52
  -6   1  -5   19.70    1.85
   6   1   5   20.32    1.67
  -6   1  -5   21.21    2.05
  -6   1  -5   21.02    1.54
   6   1   5   22.18    2.56
   6   1   5   23.41    2.19
  -6   1  -5   22.93    1.74
   6   1   5   22.87    1.72
  -6  -1  -3   46.26    2.55
  -6  -1  -3   46.25    2.50
  -6  -1  -3   45.99    2.44
  -6  -1  -3   46.22    2.06
  -6  -1  -3   46.82    2.71
   6  -1   3   48.02    3.06
   6  -1   3   45.05    2.47
   6  -1   3   41.74    2.77
   6  -1   3   44.53    2.80
   6  -1   3   48.99    2.57
   6  -1   3   48.90    2.53
   6   1   3   42.78    2.95
   6   1   3   49.14    2.54
  -6   1  -3   48.48    2.30
  -6   1  -3   44.10    2.82
   6   1   3   45.46    2.52
  -6   1  -3   49.64    2.55
  -6   1  -3   51.59    2.47
   6   1   3   47.77    2.78
   6  -1   1    6.63    1.13
  -6  -1  -1    6.14    1.12
   6  -1   1    4.08    1.03
  -6  -1  -1    6.37    1.06
   6  -1   1    7.17    1.38
   6  -1   1    6.87    1.26
   6  -1   1    4.97    0.91
  -6  -1  -1    4.71    0.98
  -6   1  -1    4.26    0.86
   6   1   1    5.05    1.11
   6   1   1    5.56    0.98
  -6   1  -1    5.49    1.09
  -6   1  -1    6.82    0.95
   6   1   1    6.73    1.11
   6   1   1    6.12    0.98
  -6   1  -1    6.76    1.11
   6   1   1    6.37    1.22
   6  -1  -1    4.86    1.03
   6  -1  -1    5.65    1.16
  -6  -1   1    3.49    0.84
   6  -1  -1    4.13    0.98
   6  -1  -1    4.69    0.89
  -6  -1   1    2.24    0.62
  -6  -1   1    5.36    0.93
   6   1  -1    5.07    1.08
   6   1  -1    3.30    0.75
   6   1  -1    4.80    0.85
  -6   1   1    3.24    0.68
  -6   1   1    5.18    1.05
   6   1  -1    3.89    0.96
  -6   1   1    2.40    0.71
   6   1  -1    3.57    0.70
  -6   1   1    5.20    0.84
   6  -1  -3    9.28    1.31
  -6  -1   3    7.78    1.21
   6  -1  -3    8.25    1.33
   6  -1  -3   10.69    1.34
  -6  -1   3    7.83    1.27
  -6  -1   3    9.51    1.13
  -6  -1   3   10.58    0.76
  -6  -1   3    9.97    0.70
  -6   1   3    7.72    1.30
   6   1  -3    9.01    1.06
   6   1  -3    6.42    1.07
  -6   1   3   10.07    0.93
   6   1  -3   12.58    1.58
  -6   1   3   10.65    1.40
  -6   1   3    8.71    0.84
   6  -1  -5    1.03    0.68
  -6  -1   5    0.73    0.58
  -6  -1   5    1.36    0.64
   6  -1  -5    2.01    0.64
   6  -1  -5    1.47    0.63
  -6   1   5    2.17    0.77
   6   1  -5    1.27    0.59
   6   1  -5    1.26    0.58
  -6   1   5    1.55    0.72
   6   1  -5    1.60    0.73
   6  -1  -7   23.20    1.70
  -6  -1   7   16.46    1.79
  -6  -1   7   18.48    1.92
   6  -1  -7   20.43    1.84
   6   1  -7   22.02    1.37
   6   1  -7   19.51    1.65
   6   1  -7   20.04    1.59
  -6   1   7   17.74    1.53
  -6   1   7   21.20    2.06
  -6  -1   9    1.95    0.79
  -6  -1   9    1.58    0.68
   6  -1  -9    1.58    0.78
   6  -1  -9    2.38    0.83
   6  -1  -9    4.41    1.12
  -6   1   9    3.62    1.04
   6   1  -9    1.62    0.80
  -6   1   9    2.35    0.75
   6   1  -9    1.98    0.61
   6   1  -9    2.45    0.50
   6  -1 -11   11.07    1.51
  -6  -1  11   10.28    1.61
  -6  -1  11   14.14    1.84
   6  -1 -11   12.20    1.85
  -6   1  11   14.04    1.67
  -6   1  11   13.67    1.91
   6   1 -11   11.68    0.73
   6   1 -11   11.17    1.62
   6   1 -11   12.80    1.56
  -6  -1  13    3.72    1.16
  -6  -1  13    0.34    0.67
   6  -1 -13    2.41    0.88
   6  -1 -13    3.69    1.13
   6   1 -13    3.56    1.11
   6   1 -13    2.09    0.87
  -6   1  13    3.23    0.99
  -6   1  13    2.59    1.02
   6   1 -13    2.06    0.92
  -6  -1  15    7.72    1.61
   6  -1 -15    3.74    1.23
  -6  -1  15    4.38    1.31
   6   1 -15    4.76    1.27
   6   1 -15    6.65    1.42
   6   1 -15    2.76    1.14
  -6   1  15    3.42    1.20
   6  -1 -17    3.98    1.34
   6  -1 -17    2.26    1.20
  -6  -1  17    1.43    0.99
  -6   1  17    4.00    1.61
   6   1 -17    3.12    1.19
   6  -1 -19    0.82    1.21
   6  -1 -19    1.83    1.22
   6   1 -19    1.67    1.15
  -6   1  19    1.85    1.24
   6  -1 -21    0.34    1.19
   6   1 -21    2.09    1.44
  -6  -2 -18    5.74    1.61
   6  -2  18    8.36    2.25
  -6   2 -18    6.25    1.86
  -6  -2 -16    5.93    1.75
   6  -2  16    6.97    2.03
   6  -2  16    8.74    1.12
   6   2  16    9.26    1.40
  -6   2 -16   10.73    2.22
   6  -2  14    7.15    2.01
   6  -2  14    9.01    1.36
  -6  -2 -14    9.14    1.89
  -6   2 -14    4.19    1.45
   6   2  14    7.58    1.48
   6  -2  12   15.81    2.59
  -6  -2 -12   13.50    2.05
  -6  -2 -12   13.10    2.01
   6  -2  12   14.30    1.73
  -6  -2 -12   10.73    1.86
  -6   2 -12   10.06    1.84
   6   2  12   15.60    1.94
   6  -2  10    8.85    2.01
  -6  -2 -10    8.00    1.57
  -6  -2 -10    6.22    1.37
  -6  -2 -10    9.13    1.66
   6  -2  10    6.50    1.24
   6   2  10    6.43    1.51
  -6   2 -10    6.91    1.49
   6   2  10    4.60    1.25
   6  -2   8   47.36    2.73
  -6  -2  -8   44.23    2.65
   6  -2   8   47.93    3.32
  -6  -2  -8   44.16    2.90
   6  -2   8   41.85    2.23
   6  -2   8   45.20    2.32
  -6  -2  -8   40.73    2.78
  -6  -2  -8   44.67    2.87
   6   2   8   40.02    2.34
   6   2   8   43.99    2.46
  -6   2  -8   48.38    2.99
   6   2   8   45.80    2.77
   6   2   8   42.37    2.98
   6  -2   6   74.61    4.28
  -6  -2  -6   73.79    3.61
  -6  -2  -6   69.17    3.49
   6  -2   6   74.88    3.38
   6  -2   6   70.57    3.42
  -6  -2  -6   71.15    3.68
   6  -2   6   76.55    3.42
   6  -2   6   74.38    4.05
  -6  -2  -6   76.64    3.29
  -6   2  -6   71.29    3.53
  -6   2  -6   72.46    3.04
   6   2   6   74.25    4.32
  -6   2  -6   73.13    3.58
   6   2   6   74.39    3.42
   6   2   6   76.19    3.54
   6   2   6   79.19    3.94
   6   2   6   73.33    3.48
   6  -2   4    3.92    1.21
  -6  -2  -4    5.34    0.83
  -6  -2  -4    5.78    1.05
  -6  -2  -4    4.40    1.04
  -6  -2  -4    3.92    1.00
   6  -2   4    6.97    1.22
   6  -2   4    4.13    0.89
   6  -2   4    6.06    1.35
   6  -2   4    5.05    1.22
   6  -2   4    4.69    1.04
  -6  -2  -4    5.50    1.10
   6   2   4    6.55    1.49
  -6   2  -4    7.42    1.31
  -6   2  -4    5.02    1.00
   6   2   4    5.54    1.21
   6   2   4    7.93    1.27
  -6   2  -4    6.37    0.97
   6   2   4    3.87    0.92
   6  -2   2   79.01    3.49
  -6  -2  -2   75.47    3.38
   6  -2   2   76.35    3.79
  -6  -2  -2   81.50    3.33
   6  -2   2   77.25    3.96
  -6  -2  -2   74.35    3.29
   6  -2   2   77.95    3.46
  -6  -2  -2   75.30    3.56
  -6  -2  -2   73.25    2.59
   6  -2   2   74.73    3.33
   6  -2   2   74.25    3.85
  -6   2  -2   72.83    3.20
  -6   2  -2   79.06    3.37
  -6   2  -2   76.83    3.25
   6   2   2   69.74    3.95
   6   2   2   83.77    3.43
   6   2   2   76.72    3.44
   6   2   2   75.48    3.60
   6  -2   0   11.73    1.37
   6  -2   0    9.81    1.56
   6  -2   0    9.48    1.26
   6  -2   0   12.48    1.65
  -6  -2   0    6.40    1.15
  -6  -2   0    8.49    1.16
  -6  -2   0   10.08    1.17
   6   2   0    9.07    1.21
   6   2   0   10.79    1.49
   6   2   0   10.54    1.21
  -6   2   0    5.95    1.01
  -6   2   0    7.82    1.38
   6   2   0    6.92    1.30
  -6   2   0    8.07    1.13
  -6   2   0    7.33    1.08
   6  -2  -2  136.12    4.75
  -6  -2   2  145.02    4.48
   6  -2  -2  132.76    5.68
  -6  -2   2  149.45    5.36
  -6  -2   2  143.64    4.86
  -6  -2   2  144.55    4.53
   6  -2  -2  141.59    5.29
  -6  -2   2  143.48    5.41
   6  -2  -2  141.32    5.65
  -6   2   2  145.68    5.21
   6   2  -2  150.62    5.49
   6   2  -2  137.24    4.92
  -6   2   2  138.81    4.57
   6   2  -2  143.22    5.67
   6   2  -2  138.45    4.72
  -6   2   2  146.35    5.85
   6  -2  -4   20.09    1.57
   6  -2  -4   22.12    1.73
  -6  -2   4   18.93    0.71
  -6  -2   4   16.06    1.71
   6  -2  -4   19.27    2.11
  -6  -2   4   20.67    0.71
  -6  -2   4   20.92    1.74
   6   2  -4   23.97    1.89
  -6   2   4   21.87    2.29
  -6   2   4   21.64    1.11
   6   2  -4   22.29    1.68
  -6   2   4   20.44    1.68
  -6   2   4   21.35    1.10
   6   2  -4   22.77    1.32
  -6  -2   6   89.45    3.89
   6  -2  -6   84.17    4.24
  -6  -2   6   89.03    3.99
   6  -2  -6   93.09    3.68
   6   2  -6   88.03    3.62
   6   2  -6   84.36    3.94
  -6   2   6   87.73    3.97
   6   2  -6   83.90    3.42
   6  -2  -8   38.55    2.58
  -6  -2   8   35.55    2.34
   6  -2  -8   38.69    2.76
   6  -2  -8   38.37    2.17
  -6  -2   8   39.09    2.57
  -6   2   8   37.47    2.15
   6   2  -8   41.77    2.27
  -6   2   8   37.64    2.54
   6   2  -8   39.62    1.99
   6   2  -8   39.64    1.93
   6   2  -8   41.33    2.65
  -6  -2  10   40.82    2.85
  -6  -2  10   47.09    2.78
   6  -2 -10   45.98    3.21
   6  -2 -10   45.70    2.48
   6  -2 -10   41.17    2.91
   6   2 -10   44.55    2.37
   6   2 -10   45.09    1.99
   6   2 -10   41.51    2.86
  -6   2  10   47.21    2.47
  -6   2  10   50.23    3.10
   6  -2 -12   38.98    3.46
  -6  -2  12   30.21    2.46
   6  -2 -12   30.87    2.12
  -6  -2  12   25.93    2.16
   6  -2 -12   30.20    3.20
  -6   2  12   25.36    1.89
   6   2 -12   25.47    2.02
  -6   2  12   33.06    2.68
   6   2 -12   26.61    2.78
  -6  -2  14   15.44    2.05
  -6  -2  14   16.36    2.29
   6  -2 -14   18.30    2.43
  -6   2  14   15.67    2.28
   6   2 -14   17.50    2.19
   6   2 -14   12.75    1.80
   6   2 -14   15.16    2.20
  -6  -2  16   10.55    1.96
   6  -2 -16   12.20    2.24
  -6   2  16   12.37    2.26
   6   2 -16   13.08    2.18
   6   2 -16   13.42    2.06
   6  -2 -18   21.76    2.92
  -6  -2  18   25.73    3.14
  -6   2  18   23.40    3.09
   6   2 -18   26.82    3.12
   6   2 -18   22.20    2.93
   6  -2 -20   12.66    2.38
   6  -2 -20   12.68    2.43
   6   2 -20   11.14    2.33
  -6   2  20   10.99    2.27
   6  -2 -22    3.85    1.73
   6   2 -22    7.40    1.96
   6  -3  17    7.43    2.04
  -6  -3 -17    4.24    1.55
  -6   3 -17    1.72    1.32
   6   3  17    4.16    0.93
  -6  -3 -15    5.23    1.53
   6  -3  15    2.87    0.83
   6  -3  15    3.35    1.57
  -6   3 -15    3.48    1.55
   6   3  15    3.42    1.07
  -6  -3 -13    1.41    1.07
   6  -3  13    2.82    0.91
   6  -3  13    6.00    1.83
  -6  -3 -13    4.61    1.42
  -6  -3 -13    1.77    1.14
  -6   3 -13    4.10    1.41
   6   3  13    3.48    1.08
  -6  -3 -11    4.11    1.29
   6  -3  11    2.61    1.42
   6  -3  11    4.71    1.14
  -6  -3 -11    2.38    1.20
  -6  -3 -11    3.62    1.11
  -6   3 -11    4.53    1.31
   6   3  11    1.71    1.09
   6   3  11    6.43    1.35
  -6  -3  -9   12.99    2.04
   6  -3   9    9.08    1.49
  -6  -3  -9    6.93    1.32
   6  -3   9    4.38    1.57
  -6  -3  -9    7.59    1.56
   6   3   9    7.43    1.41
  -6   3  -9    7.44    1.54
   6   3   9    7.72    1.65
   6   3   9    6.86    1.07
  -6  -3  -7   17.49    2.17
   6  -3   7   17.69    1.99
   6  -3   7   19.26    1.82
  -6  -3  -7   15.94    1.72
  -6  -3  -7   17.06    2.08
  -6  -3  -7   16.91    2.02
   6  -3   7   15.84    1.42
   6  -3   7   15.46    2.26
   6   3   7   12.77    1.86
  -6   3  -7   16.49    2.05
  -6   3  -7   19.70    2.24
   6   3   7   20.41    2.32
   6   3   7   19.48    1.89
  -6  -3  -5    1.53    0.89
  -6  -3  -5    3.41    0.98
   6  -3   5    3.24    1.21
  -6  -3  -5    3.75    0.91
  -6  -3  -5    3.60    0.99
   6  -3   5    3.50    0.94
   6  -3   5    3.84    1.25
   6  -3   5    4.55    0.94
  -6  -3  -5    3.34    0.78
   6  -3   5    3.25    1.16
  -6  -3  -5    5.52    1.17
   6  -3   5    4.15    1.09
   6   3   5    3.00    0.84
   6   3   5    3.16    1.03
  -6   3  -5    4.90    0.85
   6   3   5    4.41    1.12
  -6   3  -5    5.29    1.15
   6   3   5    4.82    1.44
  -6   3  -5    4.01    1.07
   6  -3   3   34.74    2.67
  -6  -3  -3   31.65    1.62
   6  -3   3   32.54    2.16
   6  -3   3   34.85    2.65
   6  -3   3   33.33    2.14
  -6  -3  -3   34.67    2.21
  -6  -3  -3   31.58    2.38
  -6  -3  -3   33.87    2.11
  -6  -3  -3   32.53    2.08
   6  -3   3   35.25    2.60
   6  -3   3   33.99    2.25
  -6   3  -3   31.95    2.19
   6   3   3   31.34    2.15
   6   3   3   35.56    2.23
  -6   3  -3   33.44    1.88
   6   3   3   33.88    2.68
  -6   3  -3   35.23    2.21
   6   3   3   32.19    2.27
  -6  -3  -1    8.73    1.38
   6  -3   1    9.40    1.58
  -6  -3  -1   12.07    1.22
   6  -3   1    9.79    1.37
  -6  -3  -1    9.82    1.31
   6  -3   1    8.35    1.55
  -6  -3  -1   10.81    1.17
   6  -3   1   11.19    1.52
   6  -3   1   11.36    1.66
   6   3   1   11.32    1.41
   6   3   1   11.24    1.46
  -6   3  -1   10.55    1.43
   6   3   1    6.94    1.36
  -6   3  -1   12.50    1.53
  -6   3  -1   11.79    1.34
   6   3   1   10.49    1.48
  -6  -3   1   18.26    1.36
   6  -3  -1   20.98    2.06
  -6  -3   1   18.93    1.93
   6  -3  -1   21.78    2.32
   6  -3  -1   20.66    1.83
   6  -3  -1   20.38    1.60
  -6  -3   1   17.50    1.92
   6  -3  -1   21.20    1.59
  -6  -3   1   18.59    1.16
   6   3  -1   19.61    1.55
  -6   3   1   20.17    1.51
   6   3  -1   21.20    1.77
   6   3  -1   19.41    1.49
  -6   3   1   21.29    1.99
  -6   3   1   18.19    1.74
   6   3  -1   21.27    2.31
  -6  -3   3   21.92    1.18
   6  -3  -3   18.37    1.73
  -6  -3   3   21.72    2.22
  -6  -3   3   19.94    1.22
   6  -3  -3   22.14    2.37
   6  -3  -3   20.59    1.73
  -6  -3   3   23.18    2.23
   6  -3  -3   19.56    1.45
   6   3  -3   19.97    1.80
   6   3  -3   19.00    1.28
  -6   3   3   22.64    1.40
   6   3  -3   23.62    1.97
   6   3  -3   20.46    0.97
  -6   3   3   22.92    1.79
  -6  -3   5    0.80    0.64
   6  -3  -5   -0.37    0.55
   6  -3  -5    1.21    0.67
   6  -3  -5   -0.27    0.58
  -6  -3   5    0.84    0.65
  -6   3   5    1.70    0.77
   6   3  -5    1.26    0.36
   6   3  -5    0.15    0.46
  -6   3   5    0.13    0.26
   6   3  -5    0.25    0.58
  -6   3   5    0.82    0.35
   6  -3  -7    0.22    0.55
   6  -3  -7    1.54    0.84
  -6  -3   7    1.23    0.72
  -6  -3   7    0.75    0.61
   6  -3  -7    0.73    0.60
   6   3  -7    1.16    0.44
   6   3  -7    1.23    0.57
   6   3  -7    1.94    0.83
   6   3  -7    1.82    0.52
  -6   3   7    0.13    0.59
   6  -3  -9   10.76    1.69
   6  -3  -9   13.07    1.43
  -6  -3   9   11.19    1.76
  -6  -3   9   13.17    1.64
   6  -3  -9   10.33    1.84
  -6   3   9   11.75    1.73
   6   3  -9   10.99    1.21
   6   3  -9   12.61    1.33
   6   3  -9   12.37    1.87
  -6  -3  11   18.05    2.03
  -6  -3  11   13.24    1.99
   6  -3 -11   12.28    2.12
   6  -3 -11   17.24    2.32
  -6   3  11   20.01    2.47
   6   3 -11   14.29    1.62
   6   3 -11   16.43    2.18
  -6  -3  13    3.71    1.31
   6  -3 -13    3.19    1.29
  -6  -3  13    5.90    1.31
   6   3 -13    3.37    1.04
   6   3 -13    3.76    1.31
  -6   3  13    5.40    1.48
  -6  -3  15   12.46    2.17
   6  -3 -15   10.56    2.06
   6   3 -15   12.79    1.86
   6   3 -15   10.46    1.99
  -6   3  15   14.02    2.29
  -6  -3  17   -0.82    0.67
   6  -3 -17    1.38    1.18
   6   3 -17    0.72    0.84
  -6   3  17    0.41    0.84
   6   3 -17   -0.25    0.83
   6  -3 -19    0.02    1.19
  -6  -3  19    0.01    0.99
   6   3 -19    0.68    1.13
   6   3 -19    0.50    1.02
  -6   3  19    0.24    1.10
   6  -3 -21    0.31    1.09
   6  -3 -21   -0.69    1.12
  -6   3  21    1.51    1.41
   6   3 -21    1.69    1.31
   6  -4  18    0.68    1.48
  -6  -4 -18    2.69    1.41
  -6   4 -18    1.03    1.37
  -6  -4 -16    3.33    1.30
   6  -4  16    4.29    0.76
   6  -4  16    5.86    1.88
   6   4  16    3.61    1.09
  -6   4 -16    2.44    1.31
  -6  -4 -14   10.71    2.06
   6  -4  14    7.85    1.30
   6  -4  14    9.41    2.23
  -6  -4 -14    7.50    1.93
   6   4  14    8.83    1.59
  -6   4 -14    9.18    2.04
   6  -4  12   20.11    2.13
  -6  -4 -12   18.75    2.49
  -6  -4 -12   19.58    2.65
   6  -4  12   21.23    3.16
  -6  -4 -12   18.40    2.39
   6   4  12   18.20    2.22
  -6   4 -12   22.27    2.76
  -6  -4 -10   12.40    1.94
  -6  -4 -10   12.96    2.11
   6  -4  10    8.78    1.51
   6  -4  10   14.03    2.41
  -6  -4 -10    9.12    1.56
   6   4  10    9.88    1.67
  -6   4 -10   14.13    2.22
  -6  -4  -8    0.18    0.84
   6  -4   8    0.05    0.24
  -6  -4  -8    0.68    0.87
  -6  -4  -8    0.99    1.03
   6  -4   8    0.89    0.58
   6  -4   8    0.04    0.96
   6  -4   8    1.52    0.86
  -6  -4  -8    0.93    0.70
   6   4   8    0.73    0.87
   6   4   8    1.34    0.75
   6   4   8    0.31    0.85
  -6   4  -8    0.56    0.89
   6  -4   6   44.51    2.71
  -6  -4  -6   42.26    2.77
   6  -4   6   40.29    2.47
  -6  -4  -6   39.74    2.65
  -6  -4  -6   44.80    2.38
   6  -4   6   38.78    3.15
  -6  -4  -6   42.59    3.09
   6  -4   6   45.98    3.20
  -6   4  -6   40.29    2.76
   6   4   6   33.96    2.54
  -6   4  -6   39.25    2.74
   6   4   6   37.19    2.68
   6  -4   4   21.54    2.53
  -6  -4  -4   21.67    2.17
   6  -4   4   24.27    2.32
   6  -4   4   18.83    1.68
   6  -4   4   18.28    1.90
   6  -4   4   15.23    2.20
  -6  -4  -4   27.58    2.74
  -6  -4  -4   22.77    1.85
  -6  -4  -4   20.67    1.74
   6  -4   4   20.51    2.58
  -6  -4  -4   23.75    1.92
  -6   4  -4   20.77    2.26
  -6   4  -4   21.56    1.44
   6   4   4   21.78    2.23
   6   4   4   26.68    2.98
   6   4   4   20.10    2.19
  -6   4  -4   19.15    2.13
   6   4   4   17.12    1.87
   6  -4   2   37.95    2.87
  -6  -4  -2   35.05    2.25
   6  -4   2   31.40    2.61
   6  -4   2   36.07    2.29
  -6  -4  -2   35.39    2.12
  -6  -4  -2   34.11    1.96
  -6  -4  -2   33.83    2.53
   6  -4   2   37.68    2.38
   6  -4   2   32.55    2.26
   6  -4   2   37.60    2.71
  -6   4  -2   34.94    2.34
   6   4   2   31.96    2.67
   6   4   2   37.99    2.40
   6   4   2   39.33    2.44
  -6   4  -2   35.55    2.00
  -6   4  -2   37.21    2.39
   6   4   2   34.34    2.28
   6  -4   0   36.40    2.48
   6  -4   0   38.91    2.35
   6  -4   0   42.00    2.48
  -6  -4   0   37.12    2.52
  -6  -4   0   41.83    1.79
  -6  -4   0   36.73    1.84
  -6  -4   0   39.77    2.54
   6  -4   0   37.99    2.23
   6  -4   0   40.08    2.89
   6  -4   0   31.73    2.59
  -6  -4   0   33.77    2.08
   6   4   0   45.30    2.66
   6   4   0   38.79    2.32
   6   4   0   45.54    2.45
  -6   4   0   37.30    2.42
  -6   4   0   39.42    2.24
   6   4   0   33.13    2.62
  -6   4   0   40.83    2.35
   6  -4  -2   57.46    3.05
   6  -4  -2   61.21    2.95
   6  -4  -2   62.01    3.68
  -6  -4   2   60.88    3.19
  -6  -4   2   57.50    3.19
   6  -4  -2   55.02    2.89
   6  -4  -2   60.08    3.03
  -6  -4   2   59.37    2.61
   6   4  -2   57.81    3.40
   6   4  -2   62.16    2.85
  -6   4   2   55.08    2.71
   6   4  -2   59.05    2.80
  -6   4   2   64.42    3.09
   6   4  -2   59.39    3.27
  -6  -4   4   57.76    3.20
   6  -4  -4   52.22    2.77
   6  -4  -4   57.17    3.09
   6  -4  -4   52.29    2.62
  -6  -4   4   58.90    2.14
  -6  -4   4   56.10    2.03
   6  -4  -4   48.82    3.33
  -6  -4   4   59.96    3.15
   6   4  -4   52.11    3.09
   6   4  -4   52.96    2.41
  -6   4   4   59.44    2.49
   6   4  -4   58.72    3.19
  -6   4   4   54.28    3.00
  -6  -4   6   14.59    1.79
   6  -4  -6   12.35    1.45
   6  -4  -6   18.32    1.34
   6  -4  -6   17.75    2.28
   6  -4  -6   17.83    2.10
  -6  -4   6   17.04    2.19
   6   4  -6   16.64    2.10
   6   4  -6   16.49    0.81
  -6   4   6   17.10    2.05
  -6   4   6   15.43    0.98
   6   4  -6   16.41    1.85
  -6   4   6   15.32    0.96
   6   4  -6   16.42    0.84
   6  -4  -8   23.95    2.60
  -6  -4   8   24.26    1.95
   6  -4  -8   26.99    2.99
   6  -4  -8   22.69    1.65
  -6  -4   8   23.34    2.59
   6   4  -8   23.17    1.53
  -6   4   8   24.14    2.57
   6   4  -8   18.19    2.35
   6   4  -8   24.66    1.88
   6  -4 -10   29.47    2.97
   6  -4 -10   29.81    3.28
  -6  -4  10   26.40    2.85
  -6  -4  10   33.07    2.31
   6   4 -10   29.82    3.14
  -6   4  10   27.30    2.86
   6   4 -10   27.58    1.86
  -6  -4  12   21.81    2.28
   6  -4 -12   16.80    2.44
  -6  -4  12   15.99    2.37
   6   4 -12   21.92    2.82
  -6   4  12   16.66    2.39
   6   4 -12   17.83    1.91
   6  -4 -14   16.47    2.54
  -6  -4  14   14.98    2.42
   6   4 -14   12.65    2.24
  -6   4  14   21.50    2.77
   6   4 -14   15.62    1.98
  -6  -4  16   13.78    2.37
   6  -4 -16   13.56    2.37
   6   4 -16   13.37    2.06
   6   4 -16   15.07    2.48
  -6   4  16    7.75    1.93
  -6  -4  18   10.89    2.25
   6  -4 -18   10.47    2.47
   6   4 -18    8.09    1.80
  -6   4  18    9.98    2.20
   6   4 -18    6.96    1.84
   6  -4 -20    1.28    1.33
  -6  -4  20    0.83    1.26
   6   4 -20    2.11    1.27
   6   4 -20    2.90    1.48
  -6   4  20    1.39    1.42
  -6  -5 -17    1.59    1.22
   6  -5  17    2.34    1.72
   6   5  17    0.93    0.86
  -6   5 -17   -1.71    1.03
   6  -5  15   10.48    2.49
  -6  -5 -15    9.04    1.96
  -6  -5 -15    8.47    2.11
   6  -5  15   11.47    1.43
  -6   5 -15   13.07    2.52
   6   5  15   11.77    1.85
  -6  -5 -13    7.19    1.60
  -6  -5 -13    8.49    2.07
   6  -5  13    5.73    1.93
   6  -5  13    4.91    1.17
  -6   5 -13    5.88    1.84
   6   5  13    3.95    1.30
   6  -5  11   13.38    2.54
  -6  -5 -11    8.70    1.62
  -6  -5 -11   10.71    2.26
  -6  -5 -11   10.66    1.95
   6  -5  11   10.80    1.69
   6   5  11    8.51    1.60
  -6   5 -11    8.43    1.94
  -6  -5  -9   14.30    2.06
   6  -5   9   14.39    2.43
  -6  -5  -9   12.41    2.26
   6  -5   9   14.44    1.91
   6   5   9   14.60    1.65
  -6   5  -9   12.28    2.12
   6   5   9   13.07    1.94
  -6  -5  -7    1.62    0.99
  -6  -5  -7    1.54    1.26
   6  -5   7    1.84    1.34
  -6  -5  -7    2.93    1.06
   6  -5   7    3.01    1.09
   6  -5   7    2.85    0.83
   6   5   7    2.87    1.17
  -6   5  -7    2.78    1.16
   6   5   7    1.11    0.92
   6  -5   5   19.67    2.19
  -6  -5  -5   21.48    2.27
  -6  -5  -5   27.05    2.87
   6  -5   5   24.23    2.77
  -6  -5  -5   24.93    2.51
   6  -5   5   24.38    2.00
  -6   5  -5   26.27    2.69
   6   5   5   28.54    2.64
  -6   5  -5   18.47    2.28
   6   5   5   23.44    2.48
   6  -5   3   30.97    2.78
  -6  -5  -3   24.82    2.75
   6  -5   3   27.60    3.02
   6  -5   3   27.46    1.78
  -6  -5  -3   31.50    2.13
  -6  -5  -3   32.00    2.33
   6  -5   3   28.10    2.24
  -6  -5  -3   26.95    2.06
   6  -5   3   29.79    2.25
   6  -5   3   32.10    2.64
  -6   5  -3   26.65    2.64
  -6   5  -3   30.16    2.77
   6   5   3   32.71    2.43
   6   5   3   30.31    3.25
   6   5   3   29.41    2.27
  -6   5  -3   28.60    1.85
   6   5   3   26.01    2.25
  -6  -5  -1   24.95    1.93
  -6  -5  -1   27.55    2.82
  -6  -5  -1   29.77    1.97
   6  -5   1   26.51    2.13
   6  -5   1   31.03    2.71
   6  -5   1   27.11    1.85
  -6  -5  -1   27.59    2.20
   6  -5   1   28.89    2.51
   6  -5   1   28.90    2.84
   6  -5   1   21.94    2.69
  -6   5  -1   29.16    2.31
   6   5   1   27.51    2.17
  -6   5  -1   25.68    1.85
   6   5   1   25.65    2.03
   6   5   1   22.40    2.75
   6   5   1   28.03    2.22
  -6   5  -1   25.51    2.40
  -6  -5   1   27.07    2.23
  -6  -5   1   29.60    2.22
   6  -5  -1   25.82    2.06
   6  -5  -1   24.24    1.91
  -6  -5   1   28.24    1.91
   6  -5  -1   26.57    2.88
   6  -5  -1   33.47    2.31
   6  -5  -1   28.28    2.14
   6   5  -1   31.14    2.29
  -6   5   1   27.41    2.00
   6   5  -1   25.77    1.95
   6   5  -1   27.25    2.49
   6   5  -1   27.40    2.05
  -6   5   1   29.43    2.07
  -6  -5   3   22.98    1.57
   6  -5  -3   23.98    1.96
  -6  -5   3   27.10    2.58
   6  -5  -3   19.61    2.53
   6  -5  -3   25.54    1.97
   6  -5  -3   22.04    2.15
  -6  -5   3   26.84    2.53
   6  -5  -3   26.96    2.04
  -6   5   3   25.53    1.83
   6   5  -3   24.85    1.75
  -6   5   3   17.13    1.93
   6   5  -3   25.03    2.28
   6   5  -3   26.96    2.61
  -6  -5   5   16.69    2.08
   6  -5  -5   16.98    1.78
  -6  -5   5   18.87    0.96
   6  -5  -5   13.28    1.81
  -6  -5   5   16.08    0.89
   6  -5  -5   17.06    2.35
  -6  -5   5   13.40    1.87
   6  -5  -5   17.75    1.77
  -6   5   5   14.80    1.89
   6   5  -5   19.32    2.27
   6   5  -5   16.57    2.09
  -6   5   5   17.20    1.37
  -6  -5   7   14.51    2.12
  -6  -5   7    9.51    1.54
   6  -5  -7    8.28    1.55
   6  -5  -7    9.41    1.79
  -6   5   7    8.35    1.59
   6   5  -7    8.07    1.61
  -6   5   7   11.87    1.00
  -6  -5   9   10.39    1.86
  -6  -5   9   15.85    1.93
   6  -5  -9    8.20    1.65
   6   5  -9    8.61    1.72
  -6   5   9   10.42    1.82
   6  -5 -11    7.36    1.84
  -6  -5  11    5.79    1.27
  -6  -5  11    9.83    1.93
  -6   5  11    5.63    1.60
   6   5 -11   10.43    2.04
  -6  -5  13   23.25    2.98
   6  -5 -13   19.86    2.78
  -6   5  13   23.05    2.92
   6   5 -13   24.06    2.97
  -6  -5  15    7.97    1.89
   6  -5 -15   10.22    2.27
   6   5 -15   10.57    2.16
  -6   5  15    9.16    2.00
  -6  -5  17    5.91    1.67
   6  -5 -17    7.49    2.18
  -6   5  17    5.11    1.85
  -6  -5  19    4.50    1.70
   6  -5 -19    4.44    1.63
  -6   5  19    4.64    1.79
   6   5 -19    3.60    1.54
   6  -5 -21    1.47    1.71
  -6  -5  21   -0.82    1.07
   6   5 -21    0.24    1.33
   6  -6  16    1.85    1.47
  -6  -6 -16    1.89    1.42
  -6  -6 -16   -0.28    1.19
  -6   6 -16    1.52    1.38
   6   6  16    0.19    0.84
   6  -6  14    7.96    2.16
  -6  -6 -14    6.83    1.71
   6  -6  14    7.85    1.30
  -6  -6 -14    8.27    2.10
  -6   6 -14    6.02    1.90
   6   6  14    7.08    1.50
   6  -6  12    2.83    1.49
   6  -6  12    8.73    1.53
  -6  -6 -12    8.66    2.13
  -6  -6 -12    8.78    1.72
  -6   6 -12    8.02    1.99
   6   6  12    6.89    1.60
   6  -6  10   12.58    2.43
   6  -6  10   13.72    1.93
  -6  -6 -10   12.21    2.26
  -6   6 -10   11.75    2.22
   6   6  10   14.81    2.14
   6  -6   8    7.32    1.46
  -6  -6  -8    3.53    1.46
   6  -6   8    6.38    1.81
  -6  -6  -8    7.90    1.62
  -6   6  -8    8.07    1.86
   6   6   8    7.29    1.57
  -6  -6  -6   11.43    2.21
   6  -6   6   15.47    2.57
   6  -6   6   12.81    1.91
  -6  -6  -6   12.54    2.01
   6  -6   6   14.29    1.69
  -6  -6  -6   15.60    2.05
   6   6   6   13.55    1.98
  -6   6  -6   15.71    2.30
  -6  -6  -4   22.51    2.33
  -6  -6  -4   27.83    2.71
   6  -6   4   22.07    2.27
  -6  -6  -4   18.88    2.61
   6  -6   4   19.48    2.29
   6  -6   4   22.04    2.67
  -6   6  -4   26.37    2.71
   6   6   4   24.47    2.50
   6   6   4   23.95    2.58
  -6   6  -4   22.05    2.59
  -6  -6  -2    3.53    1.37
  -6  -6  -2    5.55    1.13
   6  -6   2    3.60    1.19
   6  -6   2    2.81    1.25
   6  -6   2    5.36    1.51
   6  -6   2    3.92    1.25
   6  -6   2    3.89    0.90
   6  -6   2    4.30    1.20
  -6  -6  -2    7.49    1.43
  -6  -6  -2    6.15    1.29
   6   6   2    5.97    1.35
  -6   6  -2    4.82    1.06
   6   6   2    6.79    1.69
  -6   6  -2   10.40    1.89
   6   6   2    4.86    1.15
  -6   6  -2    2.20    1.03
  -6  -6   0   19.88    2.22
   6  -6   0   16.98    2.01
   6  -6   0   19.97    2.62
   6  -6   0   21.20    2.01
   6  -6   0   19.96    2.27
  -6  -6   0   20.74    2.14
   6  -6   0   24.49    2.51
  -6  -6   0   19.54    2.47
  -6   6   0   19.36    2.37
   6   6   0   22.39    2.61
   6   6   0   18.76    2.15
   6   6   0   18.94    2.10
  -6   6   0   21.77    2.24
  -6   6   0   21.27    2.04
  -6  -6   2   29.03    1.95
   6  -6  -2   26.06    2.18
   6  -6  -2   28.84    2.25
   6  -6  -2   27.22    2.18
  -6  -6   2   26.43    2.23
  -6  -6   2   29.41    2.41
   6  -6  -2   30.59    2.34
   6  -6  -2   26.75    3.06
   6   6  -2   24.08    2.01
  -6   6   2   26.81    2.17
  -6   6   2   26.28    2.09
   6   6  -2   26.42    2.25
   6  -6  -4   37.47    2.36
  -6  -6   4   35.38    2.59
  -6  -6   4   37.57    2.74
   6  -6  -4   35.42    2.51
   6  -6  -4   34.63    2.58
  -6  -6   4   38.38    1.99
   6  -6  -4   33.41    2.98
   6   6  -4   35.54    2.76
  -6   6   4   39.81    2.78
  -6   6   4   34.39    2.26
   6  -6  -6   13.44    2.00
  -6  -6   6   12.33    2.02
   6  -6  -6    9.16    1.48
  -6  -6   6   12.20    1.78
  -6   6   6   10.78    1.86
   6   6  -6    6.31    1.49
  -6   6   6   10.42    1.28
   6  -6  -8    5.38    1.55
  -6  -6   8    3.29    1.26
  -6  -6   8    3.15    1.02
  -6   6   8    2.90    0.59
  -6   6   8    3.32    1.26
   6   6  -8    4.61    1.37
  -6  -6  10   10.44    1.98
   6  -6 -10   10.14    2.00
  -6  -6  10   12.85    1.91
  -6   6  10   13.32    2.19
   6   6 -10   10.21    2.03
  -6  -6  12   17.13    2.71
   6  -6 -12   15.59    2.58
   6   6 -12   18.44    2.74
  -6   6  12   15.40    2.39
  -6  -6  14   10.97    2.19
   6  -6 -14   11.64    2.36
  -6   6  14   10.00    2.17
   6   6 -14    9.61    2.12
   6  -6 -16    8.36    2.34
  -6  -6  16   11.36    2.29
  -6   6  16    9.09    2.15
   6  -6 -18    0.42    1.36
  -6  -6  18    2.34    1.43
  -6   6  18    3.44    1.61
  -6  -6  20    0.64    1.19
   6  -6 -20   -0.28    1.51
   6   6 -20    3.09    1.54
   6  -7  15    0.43    1.30
  -6  -7 -15   -0.38    1.11
   6  -7  15    0.66    0.66
  -6   7 -15    0.70    1.24
   6   7  15    0.41    0.88
   6  -7  13   11.08    1.69
  -6  -7 -13   12.91    2.59
   6  -7  13   10.43    2.45
  -6   7 -13    8.40    2.12
   6   7  13   11.26    2.00
   6  -7  11   19.57    3.11
  -6  -7 -11   14.01    2.58
   6  -7  11   19.51    2.31
   6   7  11   17.88    2.51
  -6   7 -11   12.63    2.38
  -6  -7  -9    7.82    2.01
   6  -7   9   13.70    2.03
   6  -7   9    9.46    2.16
  -6   7  -9    9.54    2.13
   6   7   9   10.31    1.97
   6  -7   7   13.12    1.53
  -6  -7  -7   14.99    2.28
  -6  -7  -7   11.85    2.39
   6  -7   7   10.14    2.09
   6  -7   7   12.31    1.88
  -6   7  -7   17.41    2.60
   6   7   7   11.80    2.00
   6  -7   5    2.34    0.91
   6  -7   5    0.04    0.94
  -6  -7  -5    1.43    0.87
   6  -7   5    2.46    1.01
  -6  -7  -5    3.77    1.23
  -6  -7  -5    0.69    1.13
   6   7   5    1.97    1.07
  -6   7  -5    3.72    1.38
  -6   7  -5    2.71    1.23
  -6  -7  -3    4.37    1.12
  -6  -7  -3    3.37    1.21
   6  -7   3    4.95    1.27
   6  -7   3    5.01    1.37
   6  -7   3    1.87    1.17
  -6  -7  -3    7.23    1.83
  -6   7  -3    7.41    1.71
   6   7   3    3.94    1.24
   6   7   3    4.60    1.25
  -6   7  -3    3.52    1.33
   6  -7   1   25.68    2.14
  -6  -7  -1   30.89    2.94
  -6  -7  -1   26.70    3.01
   6  -7   1   34.02    2.64
   6  -7   1   29.44    2.84
   6  -7   1   30.34    3.02
  -6  -7  -1   25.92    2.64
  -6   7  -1   30.65    3.26
  -6   7  -1   27.76    2.75
   6  -7  -1   25.00    2.54
  -6  -7   1   20.09    2.66
  -6  -7   1   18.83    2.05
  -6  -7   1   19.00    2.27
   6  -7  -1   15.51    1.90
   6  -7  -1   16.88    2.17
   6  -7  -1   17.90    2.24
   6   7  -1   20.43    2.24
   6   7  -1   16.28    2.14
  -6   7   1   13.32    1.89
  -6   7   1   16.65    1.95
   6  -7  -3   46.94    3.13
   6  -7  -3   47.32    3.03
  -6  -7   3   52.30    3.35
   6  -7  -3   48.02    2.87
  -6  -7   3   48.03    2.63
  -6  -7   3   44.47    3.19
  -6   7   3   39.48    2.73
  -6   7   3   47.48    3.03
   6   7  -3   48.01    2.95
   6   7  -3   50.14    3.33
   6  -7  -5    7.80    1.47
  -6  -7   5    8.05    1.60
  -6  -7   5    7.87    1.75
  -6  -7   5    6.89    1.01
   6  -7  -5   13.87    2.13
  -6   7   5   10.54    1.86
  -6   7   5    7.57    1.34
   6   7  -5    8.32    1.70
  -6  -7   7    0.11    0.72
  -6  -7   7    0.54    0.85
   6  -7  -7   -0.20    0.95
  -6   7   7    1.15    0.65
  -6   7   7    0.34    0.94
   6   7  -7    0.73    0.90
   6  -7  -9    1.36    1.11
  -6  -7   9    3.88    1.40
  -6  -7   9    5.25    1.31
  -6   7   9    5.00    1.52
   6   7  -9    3.25    1.31
  -6   7   9    3.78    0.71
  -6  -7  11   17.20    2.63
   6  -7 -11   18.67    2.71
  -6   7  11   17.21    2.64
   6   7 -11   22.73    3.00
   6  -7 -13   10.95    2.32
  -6  -7  13    6.99    1.81
  -6   7  13    8.00    1.92
   6   7 -13   12.06    2.27
   6  -7 -15    3.58    1.58
  -6  -7  15    5.60    1.70
  -6   7  15    4.16    1.61
  -6  -7  17    4.81    1.76
   6  -7 -17    2.21    1.76
  -6  -7  19    2.26    1.42
   6  -7 -19    1.99    1.80
   6  -8  14    2.72    1.64
   6  -8  14    1.52    0.78
  -6  -8 -14    0.83    1.41
  -6   8 -14    0.60    1.17
   6   8  14    1.98    1.10
  -6  -8 -12    5.90    1.94
   6  -8  12    6.43    1.38
   6  -8  12    6.37    2.13
   6   8  12    5.91    1.65
  -6   8 -12    0.72    1.25
   6  -8  10    2.05    1.09
  -6  -8 -10    0.78    1.40
   6  -8  10    0.15    1.22
   6   8  10    1.23    1.18
  -6   8 -10    1.81    1.33
  -6  -8  -8    1.54    1.30
   6  -8   8    0.12    1.23
   6  -8   8    0.50    0.93
   6   8   8    0.70    1.03
  -6   8  -8   -0.31    1.04
  -6  -8  -6   15.13    2.36
   6  -8   6    9.71    1.99
   6  -8   6   11.46    1.93
  -6  -8  -6    7.75    2.12
   6  -8   6    8.32    1.41
  -6   8  -6    9.59    2.02
   6   8   6    8.96    1.86
  -6  -8  -4    0.72    0.82
   6  -8   4    1.14    1.05
  -6  -8  -4    1.13    1.02
   6  -8   4    0.52    0.92
  -6  -8  -4    0.04    0.72
   6  -8   4   -0.42    0.71
   6   8   4    1.16    1.05
  -6   8  -4    1.01    1.07
  -6   8  -4    1.57    1.27
  -6  -8  -2    5.29    1.40
  -6  -8  -2    4.68    1.34
  -6  -8  -2    5.77    1.63
   6  -8   2    5.24    1.50
  -6  -8  -2    4.07    1.08
   6  -8   2    2.17    1.00
   6  -8   2    2.55    1.26
  -6   8  -2    2.50    1.27
   6   8   2    2.10    1.01
  -6   8  -2    6.31    1.57
  -6  -8   0    2.95    1.31
   6  -8   0    3.66    1.28
   6  -8   0    7.12    1.59
   6  -8   0    6.37    1.56
  -6  -8   0    4.55    1.30
  -6  -8   0    2.27    0.99
   6   8   0    5.40    1.38
  -6   8   0    4.35    1.40
  -6  -8   2   10.30    2.03
   6  -8  -2    6.15    1.53
   6  -8  -2    7.20    1.62
  -6  -8   2    7.63    1.39
   6  -8  -2    7.34    1.62
  -6  -8   2    9.26    1.77
   6   8  -2    5.79    1.45
  -6   8   2    7.73    1.58
  -6   8   2    8.37    1.67
  -6  -8   4    4.03    1.39
  -6  -8   4    4.37    1.00
  -6  -8   4    4.50    1.37
   6  -8  -4    3.26    1.26
   6  -8  -4    2.96    1.27
  -6   8   4    4.28    1.19
   6   8  -4    3.04    1.29
  -6  -8   6    3.58    0.73
   6  -8  -6    1.28    1.04
   6  -8  -6    1.49    1.34
  -6  -8   6    4.45    1.55
  -6  -8   6    2.15    1.11
   6   8  -6    2.83    1.30
  -6   8   6    3.77    1.00
  -6   8   6    2.96    1.30
   6  -8  -8    8.27    1.95
  -6  -8   8    8.73    1.69
  -6  -8   8    7.20    1.83
  -6   8   8    9.33    1.93
  -6   8   8    6.46    1.16
   6   8  -8    5.68    1.73
  -6  -8  10    4.63    1.61
   6  -8 -10    2.63    1.53
   6   8 -10    2.08    1.19
  -6   8  10    1.93    1.41
  -6   8  10    3.59    0.68
   6  -8 -12    3.40    1.60
  -6  -8  12    2.45    1.40
   6   8 -12    3.56    1.48
  -6   8  12    3.50    1.57
  -6  -8  14    0.02    0.92
   6  -8 -14   -0.70    1.26
   6   8 -14    0.42    0.96
   6  -8 -16    3.82    1.89
  -6  -8  16    2.02    1.42
  -6  -8  18    0.98    1.46
   6  -8 -18    0.71    1.76
  -6  -9 -13    1.20    1.56
   6  -9  13   -0.68    1.11
   6  -9  13    2.00    0.89
  -6   9 -13    1.40    1.45
   6   9  13    1.75    1.27
  -6  -9 -11    1.73    1.52
   6  -9  11    1.16    0.93
   6  -9  11    0.91    1.32
  -6   9 -11    1.33    1.51
   6   9  11    1.98    1.28
  -6  -9  -9    6.38    2.13
   6  -9   9    2.21    1.43
   6  -9   9    3.69    1.23
   6   9   9    4.20    1.39
  -6   9  -9    3.64    1.73
  -6  -9  -7    1.03    1.59
  -6  -9  -7    1.25    1.30
   6  -9   7    2.34    1.13
   6  -9   7    2.41    1.54
   6   9   7    1.50    1.27
  -6   9  -7    2.08    1.38
  -6  -9  -5    4.81    1.57
   6  -9   5    4.14    1.51
   6  -9   5    6.06    1.60
  -6  -9  -5    5.85    1.86
   6   9   5    4.05    1.48
  -6   9  -5    6.52    1.83
  -6  -9  -3    6.23    1.79
   6  -9   3    5.31    1.70
  -6  -9  -3    3.26    1.34
   6  -9   3    4.19    1.54
   6   9   3    2.43    1.27
  -6   9  -3    4.00    1.57
  -6   9  -3    4.50    1.59
  -6  -9  -1    7.22    1.95
  -6  -9  -1    5.01    1.35
   6  -9   1    7.09    1.65
   6  -9   1    6.93    1.72
  -6   9  -1    5.06    1.62
   6  -9  -1    1.91    1.15
  -6  -9   1    2.08    1.28
  -6  -9   1    0.22    0.92
  -6  -9   1    1.35    0.90
  -6   9   1    0.99    0.99
   6   9  -1    0.02    0.84
   6  -9  -3   16.01    2.31
  -6  -9   3   13.12    1.76
   6  -9  -3   13.87    2.15
  -6  -9   3   12.61    2.15
  -6  -9   3   16.16    2.44
  -6   9   3   13.90    2.10
   6   9  -3   11.92    2.03
  -6   9   3   17.86    2.39
  -6  -9   5    5.39    1.76
  -6  -9   5    4.91    1.43
   6  -9  -5    3.19    1.45
  -6  -9   5    4.63    1.01
   6  -9  -5    3.48    1.40
   6   9  -5    6.32    1.72
  -6   9   5    2.87    1.13
  -6   9   5    6.35    1.68
  -6  -9   7    6.27    0.77
   6  -9  -7   10.49    1.98
  -6  -9   7    5.82    1.52
  -6  -9   7    7.70    1.98
   6  -9  -7    4.02    1.49
  -6   9   7    6.65    1.35
  -6   9   7    5.72    1.58
   6   9  -7    7.73    1.97
  -6  -9   9    7.96    2.08
   6  -9  -9    4.38    1.84
  -6   9   9    6.91    1.98
   6   9  -9    4.73    1.68
  -6   9   9    4.18    1.01
   6  -9 -11    1.55    1.46
  -6  -9  11    4.44    1.65
  -6   9  11    3.13    0.57
   6   9 -11    3.20    1.47
   6  -9 -13    5.71    2.06
  -6  -9  13    1.46    1.40
   6   9 -13    4.72    1.67
  -6  -9  15   -0.68    1.12
   6  -9 -15   -0.80    1.37
   6   9 -15    0.63    1.12
   6  -9 -17    3.34    2.06
  -6  -9  17   -0.77    1.09
   6   9 -17   -0.25    1.05
   6 -10  10    0.96    0.97
  -6 -10 -10    1.33    1.46
   6 -10  10   -0.48    1.08
  -6  10 -10    0.72    1.18
   6  10  10    1.15    1.11
   6 -10   8    1.75    1.43
   6 -10   8    1.73    1.16
  -6 -10  -8    0.53    1.48
   6  10   8    2.12    1.54
  -6  10  -8    1.66    1.46
  -6 -10  -6   -0.29    1.05
   6 -10   6    0.81    1.01
  -6 -10  -6    0.95    1.31
   6 -10   6    2.55    1.38
  -6  10  -6    1.37    1.39
   6  10   6    0.64    1.12
  -6 -10  -4    2.00    1.41
   6 -10   4    2.60    1.39
  -6 -10  -4    1.09    1.20
   6 -10   4    2.52    1.41
   6  10   4    2.26    1.36
  -6  10  -4    3.43    1.51
   6 -10   2    2.83    1.46
  -6 -10  -2    1.00    1.06
   6 -10   2    4.40    1.48
  -6 -10  -2    5.33    1.99
  -6  10  -2    3.72    1.59
   6 -10   0    1.26    1.10
  -6 -10   0    1.65    1.39
  -6 -10   0    1.25    0.86
  -6  10   0    1.28    1.16
  -6 -10   2    2.75    1.07
  -6 -10   2    4.58    1.57
  -6 -10   2    3.60    1.49
  -6  10   2    4.38    1.45
   6  10  -2    4.01    1.40
   6 -10  -4    3.50    1.52
  -6 -10   4    2.47    1.35
  -6 -10   4    2.07    0.81
  -6 -10   4    1.67    1.24
  -6  10   4    3.04    1.25
   6  10  -4    1.14    1.23
   6 -10  -6   -0.02    1.13
  -6 -10   6    0.22    0.60
  -6 -10   6   -0.02    1.12
  -6 -10   6    0.70    1.19
   6  10  -6    1.90    1.28
  -6  10   6   -1.12    0.68
  -6 -10   8    3.24    1.46
   6 -10  -8    2.21    1.62
   6  10  -8    4.20    1.63
  -6  10   8    2.24    0.91
   6 -10 -10    1.85    1.58
  -6 -10  10    2.65    1.64
   6  10 -10    1.53    1.33
  -6  10  10    0.40    0.61
  -6 -10  12    1.53    1.40
   6 -10 -12    1.38    1.61
   6  10 -12    0.72    1.13
  -6 -10  14   -0.28    0.99
   6 -10 -14    0.15    1.20
   6  10 -14   -0.16    0.94
   6 -11   9    1.24    1.53
  -6 -11  -9    0.08    1.58
   6 -11   9    0.02    0.93
  -6  11  -9   -1.29    0.94
   6  11   9    1.10    1.27
  -6 -11  -7    1.64    1.56
   6 -11   7    2.11    1.25
   6 -11   7    1.97    1.50
   6  11   7    3.61    1.53
  -6  11  -7    2.52    1.54
   6 -11   5    6.93    2.06
   6 -11   5    3.41    1.48
  -6 -11  -5    3.92    1.56
  -6 -11  -5    5.05    2.00
  -6  11  -5    3.81    1.67
   6  11   5    3.70    1.61
  -6 -11  -3    5.40    1.68
  -6 -11  -3    8.45    2.21
   6 -11   3    6.00    1.80
   6 -11   1    4.62    1.59
  -6 -11  -1    5.30    1.93
  -6 -11  -1    2.58    1.22
  -6  11  -1    2.84    1.48
  -6 -11   1    0.37    1.29
  -6 -11   1    0.46    0.79
  -6  11   1    2.55    1.37
  -6 -11   3    2.81    1.47
  -6 -11   3    1.91    0.93
  -6 -11   3    1.31    1.27
  -6  11   3    2.92    1.33
   6  11  -3    2.84    1.31
   6 -11  -5    2.99    1.60
  -6 -11   5    5.00    1.76
  -6 -11   5    3.28    0.96
   6  11  -5    6.39    1.86
  -6  11   5    4.75    1.42
   6 -11  -7   -0.53    1.10
  -6 -11   7    1.68    0.62
  -6 -11   7    0.13    1.18
  -6  11   7    1.07    0.99
   6  11  -7    0.88    1.05
   6 -11  -9    2.98    1.77
  -6 -11   9    5.13    1.86
   6  11  -9    5.75    1.80
  -6  11   9    4.16    1.15
   6 -11 -11   10.39    2.51
  -6 -11  11    1.24    1.31
  -6  11  11    2.14    0.86
   6  11 -11    2.79    1.39
  -6 -11  13    1.31    1.36
   6 -11 -13    0.78    1.62
   6  11 -13    1.78    1.29
   6 -12   6    0.29    1.16
  -6 -12  -6    0.87    1.74
   6 -12   6    4.48    2.08
  -6 -12  -6    2.69    1.63
  -6  12  -6    1.94    1.64
   6  12   6    0.60    1.30
  -6 -12  -4    2.47    1.51
   6 -12   4    2.38    1.42
  -6 -12  -4    0.64    1.69
  -6 -12  -2   -0.12    1.36
   6 -12   2    0.31    1.30
  -6 -12  -2    0.83    0.99
  -6  12  -2    2.25    1.52
  -6 -12   0    0.17    0.90
  -6 -12   0    1.50    1.46
  -6  12   0    0.94    1.45
  -6 -12   2    0.00    0.78
  -6 -12   2   -0.36    1.12
  -6  12   2    2.03    1.39
  -6 -12   4   -0.37    0.59
  -6  12   4   -0.11    1.05
  -6 -12   6    0.43    0.60
   6 -12  -6   -0.55    1.25
  -6 -12   6    1.71    1.54
   6  12  -6   -0.21    0.91
  -6  12   6   -0.71    0.75
   6 -12  -8   -0.92    1.29
  -6 -12   8   -0.82    1.38
  -6  12   8    2.95    1.18
   6  12  -8   -0.84    1.15
  -6 -12  10    2.45    1.65
   6 -12 -10    0.63    1.82
   6  12 -10    1.98    1.59
  -6  12  10    1.68    0.94
  -6 -13  -1    0.63    1.11
   6 -13   1    2.19    1.46
  -6 -13  -1    3.85    2.00
  -6 -13   1    1.22    1.55
  -6 -13   1   -0.65    0.88
  -6  13   1    1.81    1.51
  -6 -13   3   -0.40    0.79
  -6  13   3    1.05    1.48
  -6 -13   5   -0.06    0.78
   7   0  17    0.05    0.63
  -7   0 -17    0.36    1.11
   7   0  15    0.69    1.28
   7   0  15    0.86    0.74
  -7   0 -15    0.09    0.90
   7   0  13   -0.22    0.97
   7   0  13    1.03    0.79
  -7   0 -13    0.30    0.95
   7   0  11    1.83    1.11
  -7   0 -11   -0.01    0.78
   7   0  11    0.49    0.72
   7   0   9    0.23    0.58
   7   0   9   -0.09    0.63
   7   0   9    0.37    1.07
  -7   0  -9   -0.49    0.65
  -7   0  -7    0.11    0.58
   7   0   7   -0.14    0.56
   7   0   7   -0.78    0.59
  -7   0  -7   -0.45    0.50
   7   0   7   -0.61    0.94
  -7   0  -7    0.09    0.76
   7   0   5   -0.88    0.54
   7   0   5    0.79    0.69
  -7   0  -5    0.51    0.72
   7   0   5    1.45    0.99
   7   0   5   -0.20    0.46
  -7   0  -5   -0.39    0.43
  -7   0  -5   -0.45    0.43
  -7   0  -5    0.15    0.54
   7   0   5   -0.23    0.68
   7   0   3    0.41    0.60
   7   0   3    0.22    0.50
   7   0   3   -0.50    0.65
  -7   0  -3   -0.02    0.43
  -7   0  -3   -0.25    0.44
   7   0   3   -0.40    0.42
  -7   0  -3    1.35    0.72
   7   0   3    0.02    0.61
  -7   0  -1   -0.16    0.52
   7   0   1   -0.33    0.59
  -7   0  -1    0.34    0.39
   7   0   1   -0.49    0.47
  -7   0  -1   -0.08    0.42
   7   0   1    0.42    0.50
  -7   0  -1    0.56    0.55
   7   0   1   -0.01    0.54
   7   0   1    0.20    0.56
  -7   0   1   -0.07    0.51
  -7   0   1   -0.35    0.37
   7   0  -1   -0.21    0.35
   7   0  -1   -0.02    0.51
   7   0  -1    0.29    0.54
   7   0  -1    0.17    0.59
   7   0  -1    0.12    0.60
  -7   0   1   -0.25    0.41
  -7   0   3    0.12    0.48
  -7   0   3   -0.02    0.48
   7   0  -3    0.71    0.56
  -7   0   3    0.10    0.27
   7   0  -3    0.18    0.58
  -7   0   3   -0.09    0.30
   7   0  -3   -0.22    0.51
  -7   0   5    0.38    0.49
   7   0  -5   -0.31    0.48
   7   0  -5    0.26    0.61
  -7   0   5    0.13    0.45
   7   0  -5    0.39    0.46
  -7   0   5    0.38    0.56
  -7   0   7    0.87    0.64
   7   0  -7    0.01    0.40
   7   0  -7    0.18    0.63
  -7   0   7    0.24    0.57
   7   0  -7   -0.05    0.49
  -7   0   9    0.54    0.61
   7   0  -9    0.02    0.33
   7   0  -9    0.04    0.58
  -7   0   9   -0.04    0.49
   7   0 -11   -0.27    0.51
  -7   0  11    1.31    0.85
  -7   0  11    0.45    0.60
   7   0 -11   -0.05    0.30
   7   0 -11   -0.73    0.43
   7   0 -13    0.08    0.75
   7   0 -13    0.17    0.79
   7   0 -13    0.10    0.27
  -7   0  13   -0.42    0.72
  -7   0  13    0.21    0.64
   7   0 -15   -0.27    0.72
  -7   0  15    0.68    0.70
   7   0 -15    0.18    0.64
   7   0 -15   -0.40    0.67
  -7   0  15   -0.61    0.79
   7   0 -17   -0.78    0.71
   7   0 -17    0.90    0.91
  -7   0  17   -0.58    0.78
   7   0 -19    0.20    0.95
   7   0 -21   -0.07    1.05
  -7  -1 -18    8.38    2.19
  -7   1 -18    5.62    1.91
  -7  -1 -16   13.67    2.46
   7  -1  16   12.92    2.60
   7  -1  16   13.69    1.74
  -7   1 -16   10.22    2.22
   7   1  16   14.05    1.82
   7  -1  14   10.97    1.63
   7  -1  14    9.67    2.13
  -7  -1 -14    9.13    1.95
  -7   1 -14    9.99    1.96
   7   1  14    5.94    1.65
   7   1  14   11.37    1.64
   7  -1  12    4.02    1.09
  -7  -1 -12    4.82    1.38
   7  -1  12    7.67    1.90
   7   1  12    3.81    1.42
  -7   1 -12    4.80    1.46
   7   1  12    4.45    1.26
   7  -1  10    5.07    1.61
  -7  -1 -10    6.47    1.38
  -7  -1 -10    5.46    1.38
   7  -1  10    4.76    1.25
   7   1  10    7.16    1.73
  -7   1 -10    6.99    1.46
   7   1  10    6.29    1.38
   7   1  10    5.21    0.86
   7  -1   8   25.52    3.01
   7  -1   8   25.46    2.43
  -7  -1  -8   21.68    2.15
  -7  -1  -8   22.13    2.32
   7  -1   8   23.33    1.83
  -7  -1  -8   22.84    2.55
  -7   1  -8   18.96    2.11
   7   1   8   22.28    2.75
   7   1   8   24.24    1.90
   7   1   8   27.82    2.67
   7  -1   6   99.36    4.45
  -7  -1  -6   94.26    4.46
   7  -1   6  108.29    5.16
  -7  -1  -6   99.09    4.09
  -7  -1  -6  106.80    4.58
   7  -1   6  105.45    4.47
  -7   1  -6  107.56    4.43
   7   1   6  108.99    5.12
  -7   1  -6  102.40    4.21
   7   1   6  107.19    4.58
   7   1   6  105.72    4.50
  -7   1  -6  106.61    4.63
   7  -1   4  143.47    6.48
   7  -1   4  139.35    5.33
  -7  -1  -4  143.86    5.37
   7  -1   4  136.52    5.93
   7  -1   4  142.45    6.11
  -7  -1  -4  149.30    5.60
   7  -1   4  142.33    5.49
  -7  -1  -4  133.80    5.40
  -7  -1  -4  140.98    4.78
   7  -1   4  134.00    5.51
  -7   1  -4  132.94    5.15
   7   1   4  143.03    5.42
  -7   1  -4  147.56    5.43
   7   1   4  139.38    5.56
   7   1   4  143.75    5.91
   7   1   4  142.96    6.46
  -7   1  -4  137.41    5.00
  -7  -1  -2   29.48    1.97
   7  -1   2   29.06    1.99
   7  -1   2   29.95    2.05
  -7  -1  -2   28.62    2.07
   7  -1   2   25.93    1.93
   7  -1   2   33.37    2.46
   7  -1   2   29.91    2.51
  -7  -1  -2   25.89    2.03
  -7  -1  -2   25.36    1.43
   7  -1   2   27.22    2.18
   7   1   2   27.14    2.40
   7   1   2   29.16    2.00
  -7   1  -2   23.83    1.81
  -7   1  -2   26.81    1.73
   7   1   2   31.21    2.31
   7   1   2   29.79    2.06
  -7   1  -2   25.63    1.91
   7  -1   0   16.84    1.93
  -7  -1   0   12.94    1.45
  -7  -1   0   15.01    1.64
   7  -1   0   15.05    1.61
   7  -1   0   15.29    1.93
   7  -1   0   13.68    1.92
   7  -1   0   14.90    1.37
  -7  -1   0   11.17    1.48
   7   1   0   15.70    1.61
   7   1   0   14.43    1.57
   7   1   0   15.48    1.60
  -7   1   0   16.36    1.90
   7   1   0   15.62    2.01
  -7   1   0   17.64    1.54
   7   1   0   13.85    1.82
  -7   1   0   13.61    1.54
  -7   1   0   14.31    1.51
   7  -1  -2   12.40    1.63
   7  -1  -2   13.35    1.68
  -7  -1   2   13.09    1.25
   7  -1  -2   11.34    1.57
   7  -1  -2   12.49    1.42
  -7  -1   2   12.65    1.01
  -7  -1   2   10.42    1.45
  -7  -1   2   12.54    1.46
   7   1  -2   14.53    1.30
  -7   1   2   11.70    1.47
   7   1  -2   11.39    1.57
   7   1  -2   13.54    1.14
   7   1  -2   10.40    1.23
  -7   1   2   10.24    1.14
  -7   1   2   11.45    1.62
   7   1  -2   14.74    1.80
   7  -1  -4   81.99    3.79
   7  -1  -4   84.42    4.03
  -7  -1   4   84.33    2.48
  -7  -1   4   89.43    3.61
  -7  -1   4   84.37    2.46
  -7  -1   4   80.90    3.90
   7  -1  -4   77.60    3.80
  -7  -1   4   82.69    3.85
  -7   1   4   84.68    4.06
   7   1  -4   86.96    4.01
   7   1  -4   83.35    3.55
  -7   1   4   84.29    3.89
  -7   1   4   84.24    2.71
  -7   1   4   84.18    2.67
   7   1  -4   81.60    3.84
   7  -1  -6   70.66    3.70
  -7  -1   6   73.46    3.62
   7  -1  -6   72.89    3.33
  -7  -1   6   73.92    3.63
   7  -1  -6   68.42    3.35
   7   1  -6   70.94    3.60
  -7   1   6   72.70    3.65
   7   1  -6   70.99    3.31
   7   1  -6   72.43    3.31
  -7  -1   8   80.65    3.98
   7  -1  -8   84.62    3.54
   7  -1  -8   85.37    4.34
   7  -1  -8   83.24    3.83
  -7  -1   8   85.12    4.06
   7   1  -8   83.00    4.05
  -7   1   8   82.95    3.80
   7   1  -8   87.30    3.51
  -7   1   8   78.38    3.98
   7   1  -8   85.04    3.93
   7  -1 -10  103.85    4.85
   7  -1 -10  101.48    4.43
   7  -1 -10  110.97    5.19
  -7  -1  10  102.02    4.71
  -7  -1  10  100.83    4.65
   7   1 -10  105.30    4.74
  -7   1  10  102.32    4.77
   7   1 -10  100.51    3.77
   7   1 -10  105.56    3.97
   7   1 -10   99.61    4.65
  -7   1  10   97.01    4.35
  -7  -1  12   13.66    1.97
  -7  -1  12   15.67    2.06
   7  -1 -12   16.96    2.34
   7  -1 -12   13.72    1.83
   7  -1 -12    9.70    1.86
   7   1 -12   18.04    1.90
  -7   1  12   18.78    2.41
   7   1 -12   12.60    1.94
  -7   1  12   16.31    1.94
   7   1 -12   14.31    0.95
  -7  -1  14    1.23    0.85
   7  -1 -14    0.59    0.96
   7  -1 -14    0.91    0.91
  -7  -1  14    2.08    1.09
   7   1 -14    2.09    1.00
   7   1 -14    0.62    0.78
  -7   1  14    0.23    0.70
   7   1 -14    0.79    0.93
  -7   1  14   -0.04    0.80
  -7  -1  16   29.19    3.14
   7  -1 -16   35.27    3.55
  -7  -1  16   40.27    3.73
   7   1 -16   28.19    3.09
   7   1 -16   30.09    2.97
  -7   1  16   33.30    3.51
   7   1 -16   28.61    3.02
   7  -1 -18   17.54    2.51
   7  -1 -18   21.00    2.75
   7   1 -18   18.77    2.65
  -7   1  18   20.42    2.91
   7  -1 -20   21.43    3.17
   7   1 -20   22.54    3.06
  -7   1  20   19.66    3.31
   7  -1 -22    4.51    1.77
   7   1 -22    7.28    1.92
  -7  -2 -17    0.02    1.02
   7  -2  17    1.36    1.50
   7  -2  17    0.31    0.59
  -7   2 -17    0.97    1.44
   7   2  17    0.59    0.78
   7  -2  15    2.33    0.92
   7  -2  15    1.28    1.35
  -7  -2 -15    3.82    1.43
   7   2  15    3.83    1.15
  -7   2 -15    1.89    1.25
   7  -2  13   -0.04    0.65
  -7  -2 -13    2.50    1.18
   7  -2  13    1.91    1.26
  -7   2 -13    0.94    1.17
   7   2  13    1.31    0.85
   7   2  13    4.43    1.65
  -7  -2 -11    6.50    1.47
  -7  -2 -11    6.08    1.54
  -7  -2 -11    5.00    1.38
   7  -2  11    4.61    1.18
   7  -2  11    6.16    1.85
  -7   2 -11    7.66    1.69
   7   2  11    4.61    1.32
   7   2  11    9.25    1.78
   7  -2   9    7.26    1.51
   7  -2   9    5.25    1.64
   7  -2   9    4.93    0.93
  -7  -2  -9    5.91    1.27
  -7  -2  -9    5.10    1.34
   7   2   9    6.62    1.38
   7   2   9    6.71    1.60
   7   2   9    5.53    1.05
  -7   2  -9    5.44    1.38
   7  -2   7   12.91    1.59
  -7  -2  -7    9.87    1.63
  -7  -2  -7   10.75    1.75
   7  -2   7    9.37    1.52
  -7  -2  -7   11.23    1.51
   7  -2   7   14.79    2.34
  -7   2  -7   10.49    1.78
   7   2   7   13.46    1.91
  -7   2  -7   15.03    1.94
   7   2   7   13.33    2.09
   7   2   7   10.97    1.55
   7  -2   5    1.18    1.00
   7  -2   5    0.95    0.99
   7  -2   5    2.62    0.96
  -7  -2  -5    2.91    0.86
  -7  -2  -5    2.02    0.66
  -7  -2  -5    2.82    1.03
   7  -2   5    2.26    0.88
  -7  -2  -5    2.95    1.05
   7  -2   5    3.39    1.17
   7   2   5    1.37    0.83
   7   2   5    0.51    0.88
   7   2   5    2.26    1.09
  -7   2  -5    3.08    0.80
  -7   2  -5    1.98    0.92
  -7   2  -5    4.28    1.03
  -7  -2  -3    5.82    1.19
   7  -2   3    6.45    1.24
  -7  -2  -3    6.83    1.32
   7  -2   3    5.99    1.43
   7  -2   3    6.06    1.12
  -7  -2  -3    5.87    1.06
   7  -2   3    5.67    1.18
   7  -2   3    7.50    1.70
  -7  -2  -3    6.66    0.84
   7  -2   3    5.99    1.45
  -7  -2  -3    5.56    1.17
  -7   2  -3    5.73    1.19
   7   2   3    9.82    1.41
  -7   2  -3    5.79    1.04
  -7   2  -3    6.26    1.17
   7   2   3    6.02    1.21
   7   2   3    8.76    1.57
   7   2   3    6.72    1.47
   7  -2   1   12.00    1.76
   7  -2   1   10.54    1.69
   7  -2   1    9.65    1.65
   7  -2   1   12.46    1.55
  -7  -2  -1   11.31    1.54
   7  -2   1   11.54    1.49
   7  -2   1   13.86    1.62
  -7  -2  -1   16.98    1.73
  -7  -2  -1   11.36    1.39
  -7   2  -1   13.94    1.52
  -7   2  -1   13.34    1.52
  -7   2  -1   14.30    1.65
   7   2   1    9.89    1.54
   7   2   1   12.39    1.45
   7   2   1    9.87    1.42
  -7  -2   1    7.36    1.06
   7  -2  -1    9.44    1.34
   7  -2  -1   10.66    1.65
  -7  -2   1    7.22    1.27
   7  -2  -1    4.87    1.16
  -7  -2   1    6.42    0.97
   7  -2  -1    6.81    1.36
  -7   2   1    5.10    0.95
  -7   2   1    8.79    1.21
   7   2  -1    7.15    1.15
   7   2  -1    8.34    1.03
   7   2  -1   10.19    1.59
   7   2  -1    7.22    1.03
  -7   2   1    5.83    1.14
   7   2  -1    7.69    1.39
   7  -2  -3   19.18    1.73
   7  -2  -3   13.48    1.48
  -7  -2   3   18.45    2.03
  -7  -2   3   11.77    1.58
  -7  -2   3   15.95    1.03
   7  -2  -3   19.58    2.26
  -7  -2   3   16.52    1.25
  -7  -2   3   16.08    1.09
   7  -2  -3   17.45    1.95
  -7   2   3   18.28    1.89
   7   2  -3   15.08    1.19
   7   2  -3   15.87    1.87
  -7   2   3   17.39    1.19
  -7   2   3   17.08    1.22
   7   2  -3   15.69    1.17
   7   2  -3   15.18    1.87
  -7   2   3   17.23    2.13
  -7  -2   5   12.01    1.67
   7  -2  -5    8.91    1.35
   7  -2  -5   12.69    1.85
   7  -2  -5   11.38    1.50
  -7  -2   5   13.88    1.84
   7   2  -5   12.66    1.54
  -7   2   5   12.08    0.67
   7   2  -5   12.04    1.74
   7   2  -5   12.22    1.25
  -7   2   5   12.30    0.67
  -7   2   5   10.24    1.55
   7  -2  -7   16.62    1.82
   7  -2  -7   17.37    2.22
  -7  -2   7   14.83    1.85
  -7  -2   7   16.89    2.04
   7   2  -7   18.73    1.46
   7   2  -7   17.93    1.48
   7   2  -7   18.24    2.12
  -7   2   7   14.60    1.85
   7  -2  -9    4.82    1.06
   7  -2  -9    6.40    1.41
   7  -2  -9    5.72    1.37
  -7  -2   9    6.11    1.30
  -7  -2   9    6.63    1.38
   7   2  -9    4.88    1.04
   7   2  -9    5.03    1.22
   7   2  -9    6.12    0.95
   7   2  -9    7.41    1.05
  -7   2   9    7.62    1.43
  -7  -2  11    3.57    1.09
   7  -2 -11    5.92    1.21
   7  -2 -11    5.73    1.42
  -7  -2  11    4.45    1.18
   7  -2 -11    4.69    1.43
  -7   2  11    5.54    1.15
   7   2 -11    6.29    0.85
   7   2 -11    4.39    0.97
  -7   2  11    4.10    1.25
   7   2 -11    3.36    1.12
  -7  -2  13   11.17    1.96
   7  -2 -13    6.98    1.76
  -7  -2  13   10.17    1.66
   7   2 -13    9.02    0.81
  -7   2  13    8.79    1.84
   7   2 -13    8.87    1.45
   7   2 -13    7.27    1.63
   7  -2 -15    1.58    1.11
  -7  -2  15    3.02    1.29
  -7  -2  15    5.03    1.36
  -7   2  15    1.53    0.93
   7   2 -15    1.62    0.92
   7   2 -15    3.58    1.09
   7   2 -15    2.82    1.17
   7  -2 -17    6.34    1.63
  -7  -2  17    8.45    1.92
   7   2 -17   11.21    1.93
  -7   2  17    8.61    2.05
   7   2 -17    4.70    1.55
   7  -2 -19    1.17    1.05
  -7  -2  19    0.64    1.07
   7   2 -19    0.71    1.08
  -7   2  19    1.49    1.32
   7   2 -19    0.48    1.05
   7  -2 -21    2.46    1.33
  -7   2  21    5.12    2.02
   7   2 -21    2.08    1.46
  -7  -3 -16    1.82    1.26
   7  -3  16    2.33    1.51
   7  -3  16    2.80    0.87
  -7   3 -16    3.77    1.63
   7  -3  14    3.97    1.66
   7  -3  14    6.71    1.32
  -7  -3 -14    5.19    1.62
   7   3  14    5.67    1.36
  -7   3 -14    7.77    1.98
  -7  -3 -12   17.83    2.58
   7  -3  12   17.48    2.08
  -7  -3 -12   16.14    2.28
   7  -3  12   15.39    2.71
  -7   3 -12   16.63    2.51
   7   3  12   18.51    2.27
  -7  -3 -10   24.84    2.90
  -7  -3 -10   20.09    2.28
   7  -3  10   18.43    2.76
   7  -3  10   18.56    2.21
  -7  -3 -10   19.13    2.41
  -7   3 -10   19.71    2.53
   7   3  10   17.55    1.51
   7   3  10   13.95    2.10
   7   3  10   25.14    2.64
  -7  -3  -8    0.33    0.93
  -7  -3  -8   -0.41    0.65
   7  -3   8   -0.10    0.94
  -7  -3  -8    0.60    0.86
   7  -3   8    0.27    0.76
   7  -3   8   -0.20    0.57
  -7  -3  -8   -0.39    0.85
   7   3   8   -0.22    0.62
  -7   3  -8    0.52    0.74
   7   3   8    0.15    1.04
   7   3   8   -0.28    0.70
  -7  -3  -6   21.75    2.46
  -7  -3  -6   18.85    1.82
   7  -3   6   19.00    2.17
  -7  -3  -6   20.83    2.39
   7  -3   6   18.06    2.51
   7  -3   6   20.34    2.06
  -7   3  -6   21.54    2.32
   7   3   6   16.80    2.21
  -7   3  -6   21.33    2.38
   7   3   6   23.27    2.51
  -7  -3  -4   30.24    2.22
   7  -3   4   37.59    2.91
   7  -3   4   25.77    2.80
  -7  -3  -4   31.11    2.49
  -7  -3  -4   27.99    2.06
   7  -3   4   30.49    2.26
  -7  -3  -4   26.99    2.16
   7  -3   4   27.68    2.97
   7  -3   4   26.89    2.12
   7   3   4   26.54    2.46
  -7   3  -4   27.96    2.24
   7   3   4   26.38    2.67
   7   3   4   30.16    2.73
  -7   3  -4   26.05    2.12
  -7   3  -4   26.24    1.82
  -7  -3  -2    2.38    0.91
   7  -3   2    3.43    1.18
   7  -3   2    2.36    0.97
   7  -3   2    0.65    0.72
  -7  -3  -2    1.96    0.68
   7  -3   2    2.19    1.12
  -7  -3  -2    1.46    0.76
   7  -3   2    2.70    0.93
  -7  -3  -2    1.57    0.73
   7  -3   2    2.92    0.86
   7   3   2    3.00    1.12
  -7   3  -2    2.08    0.70
  -7   3  -2    1.72    0.82
  -7   3  -2    3.20    0.95
   7   3   2    1.12    0.69
   7   3   2    3.05    0.92
   7   3   2    2.76    0.96
   7  -3   0   38.65    2.46
   7  -3   0   43.86    3.02
  -7  -3   0   41.48    2.30
  -7  -3   0   43.32    2.17
  -7  -3   0   40.41    2.66
   7  -3   0   44.51    2.83
   7  -3   0   46.35    2.60
   7   3   0   46.68    2.57
   7   3   0   39.61    2.95
   7   3   0   40.56    2.63
  -7   3   0   37.67    2.36
   7   3   0   40.01    2.39
  -7   3   0   41.02    2.37
  -7   3   0   47.86    2.61
  -7  -3   2   21.46    2.24
   7  -3  -2   19.33    1.65
  -7  -3   2   21.71    2.21
   7  -3  -2   22.21    2.09
  -7  -3   2   17.69    1.18
  -7  -3   2   18.40    1.36
   7  -3  -2   18.21    2.10
   7  -3  -2   19.47    2.19
   7  -3  -2   18.66    2.23
   7   3  -2   16.42    1.99
   7   3  -2   20.25    1.50
  -7   3   2   20.75    2.08
  -7   3   2   20.45    1.79
   7   3  -2   16.29    2.04
   7  -3  -4   28.09    2.45
  -7  -3   4   30.89    2.32
  -7  -3   4   34.49    1.37
   7  -3  -4   26.66    2.12
  -7  -3   4   30.17    2.25
  -7  -3   4   33.02    1.42
   7  -3  -4   33.15    2.37
   7   3  -4   34.47    1.50
   7   3  -4   31.63    2.40
  -7   3   4   33.37    1.70
   7   3  -4   30.52    2.32
  -7   3   4   34.96    2.33
   7   3  -4   32.82    1.72
   7  -3  -6    5.12    1.25
   7  -3  -6    5.58    1.38
  -7  -3   6    5.27    1.12
  -7  -3   6    5.36    1.21
   7  -3  -6    4.51    1.07
   7   3  -6    4.59    0.69
   7   3  -6    4.02    0.98
   7   3  -6    5.24    1.26
  -7   3   6    7.67    1.42
   7  -3  -8   18.53    2.43
   7  -3  -8   17.05    2.10
  -7  -3   8   15.85    2.08
   7  -3  -8   21.58    1.72
  -7  -3   8   14.15    1.80
  -7   3   8   21.12    2.32
   7   3  -8   13.17    1.98
   7   3  -8   17.13    1.55
   7  -3 -10   43.72    3.16
  -7  -3  10   44.91    2.93
   7  -3 -10   46.79    2.59
   7  -3 -10   45.44    3.43
  -7  -3  10   52.43    3.35
  -7   3  10   43.24    3.13
   7   3 -10   44.66    3.18
   7   3 -10   45.41    2.42
  -7  -3  12   32.12    2.53
  -7  -3  12   34.95    3.45
   7  -3 -12   32.23    3.30
   7   3 -12   37.74    3.61
  -7   3  12   32.06    3.38
  -7  -3  14   11.00    2.04
   7  -3 -14    8.54    1.92
  -7  -3  14   10.06    1.75
   7   3 -14    8.62    1.93
  -7   3  14    9.13    1.89
   7  -3 -16   14.96    2.42
  -7  -3  16    8.74    1.85
   7   3 -16    9.43    1.98
  -7   3  16   18.45    2.79
   7  -3 -18   11.14    2.24
  -7  -3  18   12.78    2.31
  -7   3  18   14.80    2.54
   7   3 -18   13.07    2.38
   7  -3 -20    1.18    1.42
  -7  -3  20    2.07    1.37
   7   3 -20    2.49    1.38
  -7   3  20    2.50    1.53
   7  -4  17    1.47    1.52
  -7   4 -17    0.52    1.21
   7   4  17    1.14    0.91
   7  -4  15    0.54    1.10
  -7  -4 -15    2.14    1.24
   7  -4  15    1.51    0.81
  -7   4 -15    1.83    1.32
   7   4  15    3.07    1.15
   7  -4  13   14.79    2.84
   7  -4  13   14.52    1.90
  -7  -4 -13   16.92    2.36
  -7  -4 -13    8.61    2.06
  -7   4 -13   12.15    2.22
   7   4  13   11.95    1.92
  -7  -4 -11    2.51    1.31
   7  -4  11    4.31    1.63
   7  -4  11    1.44    0.92
  -7  -4 -11    2.17    1.01
   7   4  11    1.57    1.02
  -7   4 -11    0.97    1.05
  -7  -4  -9    4.05    1.50
   7  -4   9    7.81    1.92
   7  -4   9    6.62    1.47
  -7  -4  -9    7.84    1.59
   7   4   9    8.92    1.68
   7   4   9    6.11    1.17
  -7   4  -9    5.47    1.58
   7   4   9    5.30    1.40
   7  -4   7    7.25    1.47
  -7  -4  -7    6.47    1.60
  -7  -4  -7    8.09    1.58
   7  -4   7    6.64    1.72
  -7  -4  -7    6.64    1.55
   7  -4   7    9.04    1.38
   7   4   7    6.24    1.42
  -7   4  -7   10.11    1.87
   7   4   7    6.58    1.58
   7  -4   5   25.48    3.00
  -7  -4  -5   29.86    3.00
   7  -4   5   26.90    2.18
   7  -4   5   27.67    2.72
  -7  -4  -5   33.52    3.01
   7   4   5   28.17    2.76
  -7   4  -5   33.72    2.57
   7   4   5   33.32    2.53
  -7   4  -5   22.50    2.49
  -7  -4  -3    0.38    0.57
   7  -4   3   -0.08    0.66
   7  -4   3   -0.98    0.70
   7  -4   3   -0.17    0.63
  -7  -4  -3    0.70    0.88
  -7  -4  -3    1.52    0.78
   7  -4   3   -0.20    0.64
   7  -4   3    0.35    0.79
   7   4   3   -0.89    0.71
  -7   4  -3   -0.68    0.69
  -7   4  -3   -0.53    0.68
   7   4   3   -0.65    0.63
  -7   4  -3    0.72    0.51
   7   4   3    0.25    0.67
   7  -4   1   12.91    1.77
  -7  -4  -1   20.77    2.39
   7  -4   1   14.50    2.23
   7  -4   1   20.50    2.11
   7  -4   1   19.37    2.38
  -7  -4  -1   14.16    1.71
   7  -4   1   20.29    2.46
   7   4   1   18.16    2.12
  -7   4  -1   15.57    1.65
   7   4   1   14.45    1.71
   7   4   1   17.20    1.87
  -7   4  -1   15.64    1.90
   7   4   1   15.70    2.24
  -7   4  -1   13.90    1.88
   7  -4  -1   25.66    2.57
   7  -4  -1   23.08    1.95
  -7  -4   1   23.94    2.42
  -7  -4   1   21.28    1.65
  -7  -4   1   25.96    2.54
   7  -4  -1   24.55    2.29
   7  -4  -1   22.44    2.69
   7   4  -1   20.97    1.73
  -7   4   1   20.15    1.99
   7   4  -1   23.48    2.42
   7   4  -1   25.02    2.30
  -7   4   1   24.62    1.85
   7  -4  -3   31.26    2.32
  -7  -4   3   29.76    1.69
   7  -4  -3   29.86    2.21
   7  -4  -3   29.22    2.05
   7  -4  -3   29.27    2.63
  -7  -4   3   29.94    2.36
  -7  -4   3   28.07    2.28
   7   4  -3   29.93    2.37
  -7   4   3   27.09    2.11
   7   4  -3   31.24    1.91
   7   4  -3   31.97    2.49
  -7   4   3   29.80    1.87
   7  -4  -5   -0.58    0.58
   7  -4  -5    0.30    0.58
   7  -4  -5   -0.84    0.63
   7  -4  -5    0.72    0.81
  -7  -4   5    0.03    0.66
  -7  -4   5    0.79    0.66
   7   4  -5   -0.71    0.51
  -7   4   5    0.66    0.42
   7   4  -5   -0.40    0.50
  -7   4   5    0.72    0.73
  -7  -4   7    2.99    1.02
  -7  -4   7    3.68    1.13
   7  -4  -7    1.88    0.86
   7  -4  -7    1.47    1.04
   7  -4  -7    2.03    0.92
   7   4  -7    3.28    0.95
   7   4  -7    3.60    1.15
  -7   4   7    3.30    1.11
  -7  -4   9    7.03    1.36
   7  -4  -9    5.03    1.36
   7  -4  -9    6.58    1.69
  -7  -4   9    6.00    1.51
  -7   4   9    7.17    1.54
   7   4  -9    7.70    1.65
   7   4  -9    5.94    1.17
  -7  -4  11    8.14    1.83
   7  -4 -11    6.99    1.69
  -7  -4  11    6.88    1.42
  -7   4  11    2.34    1.12
   7   4 -11    8.31    1.81
   7  -4 -13    2.03    1.22
  -7  -4  13    0.39    0.85
  -7  -4  13    0.49    0.77
  -7   4  13    0.96    0.99
   7   4 -13    0.91    0.95
   7  -4 -15   17.92    2.82
  -7  -4  15   19.07    2.71
  -7   4  15   20.58    2.88
   7   4 -15   20.57    2.97
  -7  -4  17    6.56    1.88
   7  -4 -17    5.66    1.84
  -7   4  17    2.56    1.43
   7   4 -17    5.06    1.72
  -7  -4  19    1.08    1.23
   7  -4 -19    0.46    1.41
  -7   4  19    0.86    1.23
   7   4 -19    1.66    1.34
  -7  -4  21   -0.07    1.17
   7  -4 -21   -0.80    1.27
  -7   4  21    0.04    1.20
   7   4 -21   -0.04    1.17
   7  -5  16   -0.61    0.57
   7  -5  16    0.40    1.36
   7   5  16    1.60    1.00
  -7   5 -16    1.47    1.45
   7  -5  14    3.39    1.12
  -7  -5 -14    3.89    1.58
   7  -5  14    6.52    2.01
  -7   5 -14    4.46    1.67
   7   5  14    7.52    1.57
  -7  -5 -12   16.57    2.66
   7  -5  12   13.53    2.57
   7  -5  12   15.28    2.00
  -7   5 -12   15.55    2.53
   7   5  12   11.83    1.99
   7  -5  10    5.22    1.72
  -7  -5 -10    7.32    1.81
   7  -5  10    8.39    1.56
   7   5  10    6.31    1.16
  -7   5 -10    7.54    1.91
   7   5  10    7.71    1.64
  -7  -5  -8   12.02    2.19
   7  -5   8    9.09    1.28
   7  -5   8   12.64    2.41
  -7  -5  -8    9.73    1.75
   7  -5   8   13.48    2.02
   7   5   8    8.21    1.65
  -7   5  -8    9.22    1.94
  -7  -5  -6    3.33    1.14
  -7  -5  -6    1.72    1.09
   7  -5   6    2.65    1.00
  -7  -5  -6    2.17    1.20
   7  -5   6    2.66    1.09
   7  -5   6    3.72    1.56
   7   5   6    3.21    1.26
  -7   5  -6    2.86    1.19
   7   5   6    2.47    1.22
  -7   5  -6    3.63    1.38
  -7  -5  -4   27.79    2.67
  -7  -5  -4   25.39    2.87
   7  -5   4   23.93    2.87
   7  -5   4   22.29    2.35
   7  -5   4   19.41    2.28
  -7   5  -4   30.09    2.84
   7   5   4   25.12    2.55
   7   5   4   33.09    3.03
   7   5   4   25.96    3.20
  -7   5  -4   28.95    2.88
  -7  -5  -2   16.91    2.38
   7  -5   2   13.09    2.11
  -7  -5  -2   16.14    1.97
   7  -5   2   14.32    1.60
   7  -5   2   16.82    2.18
   7  -5   2   14.53    2.32
   7  -5   2   11.63    2.09
   7  -5   2   12.63    1.83
   7   5   2   14.32    1.97
   7   5   2   12.39    1.86
  -7   5  -2   17.21    2.12
  -7   5  -2   14.06    1.61
   7   5   2   16.01    2.46
  -7   5  -2   14.69    2.05
   7  -5   0   26.42    2.05
   7  -5   0   26.79    2.79
   7  -5   0   27.26    2.50
  -7  -5   0   25.49    1.97
  -7  -5   0   25.44    2.73
  -7  -5   0   30.21    2.44
   7  -5   0   26.65    2.24
   7  -5   0   28.12    3.14
   7  -5   0   28.80    2.21
   7   5   0   22.45    2.88
  -7   5   0   28.91    2.80
  -7   5   0   20.89    2.08
   7   5   0   24.10    2.55
  -7   5   0   21.25    2.21
   7   5   0   26.13    2.10
   7  -5  -2   41.81    2.68
   7  -5  -2   38.58    2.72
  -7  -5   2   39.03    2.76
   7  -5  -2   39.47    2.63
  -7  -5   2   41.28    2.28
  -7  -5   2   41.93    2.88
   7  -5  -2   37.61    3.08
  -7   5   2   39.82    2.63
  -7   5   2   39.21    2.46
   7   5  -2   43.05    2.94
   7   5  -2   41.07    2.50
   7   5  -2   37.75    3.01
   7  -5  -4   20.31    2.71
  -7  -5   4   24.54    1.49
  -7  -5   4   25.86    2.74
   7  -5  -4   23.74    2.25
   7  -5  -4   22.61    2.44
   7  -5  -4   22.69    2.29
  -7  -5   4   20.87    2.42
  -7   5   4   25.24    2.57
   7   5  -4   23.32    2.62
  -7   5   4   23.43    1.72
   7   5  -4   23.41    2.63
   7  -5  -6    8.88    1.85
   7  -5  -6    7.20    1.34
   7  -5  -6    9.47    1.64
  -7  -5   6   11.33    1.69
  -7  -5   6    8.53    1.73
   7   5  -6    9.67    1.71
  -7   5   6    9.53    1.07
   7   5  -6    8.86    1.73
  -7   5   6    9.00    1.66
  -7  -5   8    9.79    1.74
   7  -5  -8    8.61    1.78
  -7  -5   8    8.53    1.81
   7   5  -8    7.77    1.67
  -7   5   8    8.52    1.78
  -7  -5  10   17.73    2.21
   7  -5 -10   14.83    2.23
  -7  -5  10   17.86    2.59
  -7   5  10   14.97    2.27
   7   5 -10   13.47    2.29
  -7  -5  12    8.90    1.90
   7  -5 -12    6.23    1.70
  -7  -5  12    8.46    1.66
   7   5 -12    6.02    1.66
  -7   5  12    6.31    1.70
   7  -5 -14   13.64    2.45
  -7  -5  14   15.78    2.59
   7   5 -14   12.51    2.39
  -7   5  14   11.74    2.22
   7  -5 -16   15.75    2.69
  -7  -5  16    8.65    2.11
   7   5 -16    9.31    2.12
  -7   5  16    9.31    2.16
   7  -5 -18    3.04    1.69
  -7  -5  18    5.62    1.91
  -7   5  18    3.28    1.71
   7  -5 -20    2.69    1.71
  -7  -5  20    3.97    1.70
   7   5 -20    3.07    1.66
  -7   5  20    2.89    1.52
   7  -6  15    1.05    1.19
   7  -6  15    0.10    0.70
  -7  -6 -15    2.05    1.60
   7   6  15    0.19    0.84
  -7   6 -15   -0.16    1.10
   7  -6  13    5.63    2.03
  -7  -6 -13    2.72    1.53
   7  -6  13    4.41    1.18
   7   6  13    5.40    1.56
  -7   6 -13    2.80    1.48
   7  -6  11   14.37    2.73
  -7  -6 -11   17.77    2.88
   7  -6  11   16.01    2.10
  -7   6 -11    8.51    2.03
   7  -6   9   10.05    1.83
  -7  -6  -9    9.28    2.31
   7  -6   9    9.40    2.25
   7   6   9   12.08    2.13
  -7   6  -9   12.03    2.27
   7   6   9   13.94    1.76
  -7  -6  -7   12.35    2.10
   7  -6   7   14.97    2.11
  -7  -6  -7   15.40    2.49
  -7  -6  -7   18.32    2.42
   7  -6   7   16.58    2.73
   7  -6   7   15.82    1.76
   7   6   7   13.05    2.16
  -7   6  -7   16.15    2.44
   7  -6   5    1.68    1.23
  -7  -6  -5    3.77    1.43
   7  -6   5    2.38    1.10
   7  -6   5    2.15    1.10
  -7  -6  -5   -0.42    0.62
  -7  -6  -5    2.55    1.18
  -7   6  -5    3.50    1.28
  -7   6  -5    2.48    1.20
   7   6   5    1.76    1.05
   7   6   5    2.10    1.08
   7  -6   3    5.42    1.57
   7  -6   3    2.81    1.15
  -7  -6  -3    4.71    1.54
   7  -6   3    6.06    1.50
  -7  -6  -3    2.51    1.05
   7   6   3    3.35    1.21
  -7   6  -3    1.21    1.14
   7   6   3    3.79    1.24
   7   6   3    4.35    1.52
  -7   6  -3    5.26    1.44
   7  -6   1   17.28    2.34
   7  -6   1   19.23    2.23
  -7  -6  -1   14.17    1.99
  -7  -6  -1   12.78    2.17
   7  -6   1   12.71    1.63
   7  -6   1   15.57    2.12
  -7  -6  -1   12.32    1.69
   7  -6   1   11.05    2.08
  -7   6  -1   14.70    1.73
  -7   6  -1   13.39    2.18
   7   6   1   16.03    2.49
   7   6   1   14.07    1.94
  -7   6  -1   15.22    2.05
  -7  -6   1   46.76    3.16
  -7  -6   1   49.73    3.32
   7  -6  -1   47.45    3.11
   7  -6  -1   48.45    2.94
  -7  -6   1   45.01    2.70
   7  -6  -1   52.13    3.16
   7  -6  -1   48.38    3.21
   7   6  -1   57.37    3.91
  -7   6   1   45.23    2.88
   7   6  -1   52.26    3.09
  -7   6   1   48.82    2.97
   7   6  -1   45.59    3.11
  -7  -6   3   29.76    3.00
  -7  -6   3   32.04    3.02
   7  -6  -3   31.51    2.48
   7  -6  -3   34.05    2.49
   7  -6  -3   32.20    2.52
  -7  -6   3   31.91    2.00
  -7   6   3   32.69    2.49
   7   6  -3   32.12    2.64
   7   6  -3   29.51    2.24
   7   6  -3   29.20    3.17
  -7   6   3   33.11    2.28
   7  -6  -5   26.99    2.83
  -7  -6   5   25.55    1.41
   7  -6  -5   26.49    2.27
  -7  -6   5   23.48    2.72
   7  -6  -5   28.86    2.23
  -7  -6   5   24.95    2.70
  -7   6   5   24.73    2.71
   7   6  -5   24.61    2.80
  -7   6   5   26.55    1.89
   7  -6  -7    4.76    1.38
  -7  -6   7    3.49    1.31
  -7  -6   7    2.33    0.99
   7   6  -7    2.39    1.09
  -7   6   7    3.51    0.74
  -7   6   7    1.37    1.02
   7  -6  -9    4.49    1.48
  -7  -6   9    5.81    1.33
  -7  -6   9    3.80    1.43
  -7   6   9    4.39    1.46
   7   6  -9    3.76    1.42
  -7  -6  11    7.46    1.76
  -7  -6  11   10.04    1.79
   7  -6 -11    9.65    2.05
  -7   6  11   13.50    2.34
   7   6 -11   12.52    2.29
   7  -6 -13   17.33    2.84
  -7  -6  13    7.92    1.94
   7   6 -13   11.01    2.22
  -7   6  13   13.11    2.40
  -7  -6  15    6.32    2.00
   7  -6 -15    7.36    2.16
  -7   6  15    4.96    1.78
   7   6 -15    5.40    1.78
  -7  -6  17    5.27    1.85
   7  -6 -17    4.01    1.77
   7   6 -17    3.87    1.77
  -7   6  17    3.12    1.51
  -7  -6  19    3.00    1.60
   7  -6 -19    3.73    1.78
  -7   6  19    1.38    1.43
   7   6 -19    4.33    1.94
   7  -7  14    0.33    0.75
  -7  -7 -14    0.03    1.26
   7  -7  14    0.30    1.26
  -7   7 -14    0.91    1.48
   7   7  14   -1.31    0.81
   7  -7  12    9.85    1.77
   7  -7  12    9.49    2.31
  -7  -7 -12   12.05    2.51
   7   7  12   11.31    2.14
  -7   7 -12    9.30    2.23
   7  -7  10    4.20    1.27
   7  -7  10    4.26    1.65
  -7  -7 -10    6.88    2.07
   7   7  10    5.48    1.65
  -7   7 -10    4.23    1.66
  -7  -7  -8    6.17    1.87
   7  -7   8    7.54    2.10
   7  -7   8    9.63    1.81
  -7   7  -8    8.64    2.01
   7   7   8   10.80    2.07
   7  -7   6    0.06    1.09
   7  -7   6    1.86    0.90
   7  -7   6    1.71    1.05
  -7  -7  -6    2.44    1.23
  -7  -7  -6    2.39    1.32
   7   7   6    1.62    1.11
  -7   7  -6    0.67    1.05
  -7  -7  -4   16.71    2.06
  -7  -7  -4   12.46    1.95
  -7  -7  -4   13.84    2.36
   7  -7   4   16.34    2.57
   7  -7   4   12.14    1.99
   7  -7   4    9.57    1.67
  -7   7  -4   14.13    2.29
   7   7   4   11.78    2.06
   7   7   4   10.22    1.77
  -7   7  -4   14.36    2.33
   7  -7   2    3.48    1.38
  -7  -7  -2    5.13    1.27
   7  -7   2    2.45    1.09
  -7  -7  -2    4.20    1.48
   7  -7   2    3.83    1.33
  -7   7  -2    4.35    1.52
   7   7   2    1.85    0.97
  -7   7  -2    1.78    1.23
   7  -7   0   16.69    2.28
   7  -7   0   17.21    2.31
  -7  -7   0   19.52    2.64
   7  -7   0   12.61    2.06
   7  -7   0   12.31    2.25
   7  -7   0   13.98    1.86
  -7  -7   0   16.25    2.35
  -7  -7   0   13.06    1.80
   7   7   0   14.59    2.09
  -7   7   0   14.19    1.93
  -7   7   0   17.67    2.34
  -7  -7   2    7.45    1.76
   7  -7  -2    7.71    1.59
  -7  -7   2   10.81    2.02
  -7  -7   2   10.51    1.53
   7  -7  -2    6.68    1.51
   7  -7  -2    9.56    1.65
  -7   7   2   10.13    1.80
   7   7  -2    6.85    1.42
  -7   7   2   10.77    1.78
   7   7  -2    9.68    1.78
   7  -7  -4   19.76    2.34
   7  -7  -4   21.27    2.54
  -7  -7   4   20.44    1.60
  -7  -7   4   24.22    2.87
  -7  -7   4   19.44    2.45
  -7   7   4   21.34    2.22
  -7   7   4   24.12    2.66
   7   7  -4   23.23    2.75
  -7  -7   6    1.45    0.40
   7  -7  -6    1.73    1.14
   7  -7  -6    1.19    1.09
  -7  -7   6    1.39    1.03
  -7  -7   6    1.06    0.86
  -7   7   6    1.70    1.12
   7   7  -6    0.37    0.84
  -7   7   6    2.58    0.85
  -7  -7   8    6.74    1.77
   7  -7  -8    8.31    1.79
  -7  -7   8    6.57    1.56
  -7   7   8    6.29    0.93
   7   7  -8    6.41    1.72
  -7   7   8    6.06    1.58
  -7  -7  10    4.78    1.62
  -7  -7  10    9.15    1.77
   7  -7 -10    8.35    1.99
   7   7 -10    4.79    1.56
  -7   7  10    7.37    1.76
  -7  -7  12    2.83    1.35
   7  -7 -12    7.67    1.94
  -7   7  12    4.60    1.57
   7   7 -12    4.32    1.59
   7  -7 -14    3.42    1.59
  -7  -7  14    4.44    1.68
   7   7 -14    2.30    1.46
  -7   7  14    3.73    1.58
   7  -7 -16    1.88    1.68
  -7  -7  16    0.04    1.10
   7   7 -16    2.81    1.47
  -7   7  16    1.32    1.36
  -7  -7  18    1.63    1.32
   7  -7 -18    4.23    2.10
   7   7 -18    2.81    1.53
  -7   7  18    3.13    1.77
  -7  -8 -13    4.47    2.02
   7  -8  13    5.28    2.05
   7  -8  13    4.61    1.25
  -7   8 -13    2.34    1.50
   7   8  13    3.23    1.37
   7  -8  11    5.63    1.96
  -7  -8 -11    2.11    1.63
   7  -8  11    4.85    1.42
  -7   8 -11    1.96    1.37
   7   8  11    3.32    1.37
  -7  -8  -9    4.51    1.90
   7  -8   9    3.86    1.64
   7  -8   9    6.02    1.55
  -7   8  -9    5.24    1.84
   7   8   9    6.06    1.81
   7  -8   7   11.91    2.41
   7  -8   7    6.57    1.58
  -7  -8  -7   10.22    2.08
  -7  -8  -7    7.75    2.13
   7   8   7   10.28    2.20
  -7   8  -7   10.78    2.22
   7  -8   5    2.52    1.17
  -7  -8  -5    3.60    1.35
   7  -8   5    1.42    1.26
  -7  -8  -5    2.62    1.71
  -7   8  -5    0.99    1.12
   7   8   5    3.39    1.35
  -7  -8  -3    7.21    1.67
   7  -8   3    6.23    1.71
  -7  -8  -3    4.82    1.64
   7  -8   3    5.58    1.64
  -7   8  -3    5.40    1.64
  -7   8  -3    4.24    1.46
  -7  -8  -1    2.53    1.06
   7  -8   1    0.58    1.03
   7  -8   1    0.24    0.96
   7  -8   1    2.48    1.20
  -7  -8  -1    2.24    1.24
   7   8   1    1.55    0.95
  -7   8  -1    1.60    0.94
   7  -8  -1   14.98    2.22
   7  -8  -1   15.09    2.10
  -7  -8   1   15.31    2.29
   7  -8  -1   19.61    2.45
  -7  -8   1   11.32    2.10
  -7  -8   1   13.01    1.84
  -7   8   1   14.59    2.08
   7   8  -1   16.06    2.36
  -7   8   1   11.25    1.93
  -7  -8   3   24.06    2.86
   7  -8  -3   25.62    2.85
   7  -8  -3   22.09    2.63
  -7  -8   3   22.65    2.83
  -7  -8   3   19.43    2.00
   7   8  -3   19.32    2.57
  -7   8   3   19.80    2.50
  -7   8   3   25.35    2.69
   7  -8  -5    2.15    1.29
   7  -8  -5    2.76    1.27
  -7  -8   5    1.30    1.03
  -7  -8   5    2.23    0.70
  -7  -8   5    3.82    1.29
   7   8  -5   -0.17    0.79
  -7   8   5    2.13    1.19
  -7   8   5    2.04    0.97
   7  -8  -7    6.00    1.85
  -7  -8   7   10.34    1.87
  -7  -8   7    5.11    1.55
   7   8  -7    6.81    1.73
  -7   8   7    6.13    1.75
  -7   8   7    5.77    1.17
  -7  -8   9    7.12    1.96
  -7  -8   9    7.37    1.64
   7  -8  -9    6.84    2.02
   7   8  -9   10.28    2.25
  -7   8   9    6.89    1.00
  -7   8   9    8.78    2.05
  -7  -8  11    1.69    1.36
   7  -8 -11    1.91    1.45
   7   8 -11    2.20    1.40
  -7   8  11    2.24    1.37
   7  -8 -13   16.32    2.84
  -7  -8  13   16.41    2.86
   7   8 -13    9.28    2.22
  -7   8  13   14.79    2.69
   7  -8 -15    1.16    1.37
  -7  -8  15    2.49    1.50
   7   8 -15   -0.45    1.09
  -7   8  15   -0.92    0.91
  -7  -8  17    4.65    1.82
   7  -8 -17    1.33    1.51
   7   8 -17    1.05    1.54
   7  -9  12   -0.66    1.37
  -7  -9 -12    0.33    1.57
   7  -9  12    0.26    0.89
  -7   9 -12    0.55    1.41
   7   9  12    0.07    1.20
   7  -9  10    0.39    1.20
   7  -9  10    0.38    0.94
  -7  -9 -10   -0.14    1.29
   7   9  10    0.43    1.01
  -7   9 -10    0.53    1.33
   7  -9   8    3.01    1.50
   7  -9   8    0.94    1.06
  -7  -9  -8    2.35    1.65
   7   9   8    1.85    1.21
  -7   9  -8    0.29    1.14
  -7  -9  -6    6.70    1.76
  -7  -9  -6    6.30    1.97
   7  -9   6    2.84    1.58
   7  -9   6    5.51    1.62
   7   9   6    5.29    1.64
  -7   9  -6    3.46    1.66
   7  -9   4    5.53    1.65
  -7  -9  -4    5.99    1.84
   7  -9   4    4.14    1.70
  -7  -9  -4    7.00    1.78
  -7   9  -4    3.56    1.55
  -7   9  -4    2.90    1.43
  -7  -9  -2    6.30    1.57
  -7  -9  -2    7.79    2.05
   7  -9   2    7.87    1.89
   7  -9   2    7.02    1.75
  -7   9  -2    5.52    1.78
  -7   9  -2    6.54    1.86
  -7  -9   0    2.19    1.02
  -7  -9   0    4.74    1.54
   7  -9   0    4.85    1.47
  -7  -9   0    6.65    1.87
   7   9   0    3.57    1.41
  -7   9   0    4.26    1.48
  -7  -9   2    1.78    0.92
  -7  -9   2    0.27    1.12
   7  -9  -2    2.55    1.39
  -7  -9   2    1.47    1.21
   7   9  -2    0.05    0.98
  -7   9   2    1.36    1.12
  -7   9   2    0.46    0.96
  -7  -9   4    1.74    1.16
   7  -9  -4    1.24    1.17
  -7  -9   4    2.55    0.89
  -7  -9   4    1.83    1.13
   7  -9  -4    2.21    1.42
  -7   9   4    2.37    1.14
   7   9  -4    1.01    1.06
  -7   9   4    0.64    1.06
  -7  -9   6    5.51    0.89
   7  -9  -6    4.07    1.52
   7  -9  -6    5.93    1.67
  -7  -9   6    6.53    1.88
  -7  -9   6    5.76    1.73
  -7   9   6    3.96    1.49
   7   9  -6    4.30    1.63
  -7   9   6    3.40    1.11
   7  -9  -8    5.99    1.95
  -7  -9   8    7.60    2.07
  -7   9   8    9.21    2.09
   7   9  -8    6.18    1.75
  -7   9   8    8.62    1.40
  -7  -9  10    1.78    1.54
   7  -9 -10    5.09    1.95
  -7   9  10    4.74    0.81
  -7   9  10    5.92    1.82
   7   9 -10    1.50    1.35
   7  -9 -12    3.98    1.69
  -7  -9  12    1.09    1.21
   7   9 -12    0.31    1.04
  -7   9  12    0.99    1.18
  -7  -9  14    3.12    1.67
   7  -9 -14    1.62    1.80
   7   9 -14    0.01    0.98
  -7  -9  16   -0.87    0.97
   7  -9 -16   -0.82    1.24
   7   9 -16   -0.01    1.12
   7 -10   9    4.59    1.90
  -7 -10  -9    6.35    2.29
   7 -10   9    1.96    1.17
   7  10   9    1.73    1.50
  -7  10  -9    2.87    1.57
  -7 -10  -7    4.07    1.94
   7 -10   7    3.01    1.41
  -7 -10  -7    2.34    1.48
   7 -10   7    2.65    1.54
  -7  10  -7    1.04    1.44
   7  10   7    4.19    1.71
   7 -10   5    4.83    1.72
  -7 -10  -5    4.66    1.71
   7 -10   5    6.98    1.81
  -7 -10  -5    6.74    2.19
  -7  10  -5    5.03    1.81
   7  10   5    4.54    1.60
   7 -10   3    3.62    1.46
   7 -10   3    8.37    1.95
  -7 -10  -3    8.09    2.18
  -7 -10  -3    5.43    1.58
  -7  10  -3    4.33    1.70
  -7  10  -3    6.61    1.92
  -7 -10  -1    1.05    1.03
  -7 -10  -1    0.90    1.21
   7 -10   1   -0.01    1.11
  -7  10  -1    0.10    1.17
  -7 -10   1    0.99    1.11
  -7 -10   1    1.44    0.92
  -7 -10   1   -0.45    1.05
   7  10  -1    1.47    1.17
  -7  10   1    2.22    1.26
  -7 -10   3   -0.72    0.92
  -7 -10   3    0.98    0.69
  -7 -10   3   -0.10    1.00
   7  10  -3    0.48    1.07
  -7  10   3    0.75    1.11
  -7 -10   5    8.06    2.15
  -7 -10   5   13.64    2.38
   7 -10  -5    5.82    1.90
  -7 -10   5    6.55    1.20
   7  10  -5    8.89    2.15
  -7  10   5   10.95    1.85
  -7 -10   7    4.45    1.69
  -7 -10   7    4.22    0.59
   7 -10  -7    2.74    1.63
  -7  10   7    5.85    1.39
   7  10  -7    1.88    1.22
   7 -10  -9    2.31    1.63
  -7 -10   9    3.50    1.59
  -7  10   9    3.30    0.97
   7  10  -9    3.42    1.48
   7 -10 -11    7.01    2.18
  -7 -10  11    5.06    2.04
   7  10 -11    7.03    2.16
  -7  10  11    3.55    0.64
   7 -10 -13    0.96    1.37
  -7 -10  13   -0.47    1.12
   7  10 -13   -0.31    0.95
   7 -11   8    1.20    1.31
   7 -11   8    0.95    1.51
  -7 -11  -8    5.47    2.42
   7  11   8    1.76    1.45
  -7  11  -8   -0.22    1.18
   7 -11   6    1.07    1.28
   7 -11   6    0.38    1.16
  -7 -11  -6    2.21    1.40
  -7 -11  -6   -0.15    1.19
  -7  11  -6   -1.70    0.91
   7  11   6    0.72    1.29
   7 -11   4    2.73    1.51
   7 -11   4    2.25    1.50
  -7 -11  -4    1.89    1.34
  -7 -11  -4    2.95    1.79
  -7 -11  -2    0.14    1.01
  -7 -11  -2    1.88    1.52
   7 -11   2    0.49    1.18
  -7  11  -2    0.94    1.33
  -7 -11   0    1.59    1.30
  -7 -11   0    0.29    0.92
  -7  11   0    2.45    1.47
  -7 -11   2    0.71    1.17
  -7 -11   2    1.11    0.86
  -7  11   2    0.23    1.01
  -7 -11   4    0.63    1.20
  -7 -11   4    0.49    1.23
  -7 -11   4    0.10    0.65
  -7  11   4   -0.01    0.97
   7  11  -4   -0.19    0.93
  -7 -11   6    0.53    0.55
  -7 -11   6    2.33    1.58
   7 -11  -6    1.25    1.47
   7  11  -6    0.58    1.23
  -7  11   6    0.22    0.90
  -7 -11   8    1.37    1.40
   7 -11  -8   -0.32    1.36
  -7  11   8    0.39    0.84
   7  11  -8    0.97    1.40
  -7 -11  10    2.64    1.75
   7 -11 -10   -2.15    1.25
  -7  11  10   -0.20    0.63
   7  11 -10   -0.39    1.16
   7 -11 -12    2.48    1.82
  -7 -11  12    2.61    1.85
   7  11 -12   -0.54    1.18
   7 -12   3    0.46    1.39
  -7 -12  -3    1.89    1.76
  -7 -12  -3    1.63    1.28
  -7 -12  -1    5.58    2.09
  -7 -12  -1    1.09    1.16
  -7  12  -1    2.20    1.60
  -7 -12   1    3.92    1.73
  -7 -12   1    3.35    1.25
  -7  12   1    3.19    1.62
  -7 -12   3    0.33    0.75
  -7 -12   3    2.86    1.56
  -7  12   3   -0.01    1.08
  -7 -12   5    1.28    0.76
  -7 -12   5    0.19    1.31
  -7  12   5   -0.13    0.99
   7  12  -5    0.67    1.16
  -7 -12   7    4.58    1.79
   7 -12  -7    5.03    1.98
   7  12  -7    3.22    1.60
  -7  12   7    1.31    1.05
  -7 -12   9    4.54    1.98
   7 -12  -9    2.86    1.86
   7  12  -9    1.53    1.47
  -7  12   9    1.11    0.95
  -8   0 -16    4.59    1.65
   8   0  16    6.27    1.96
   8   0  16   11.66    1.74
   8   0  14    8.39    1.58
   8   0  14    7.88    1.99
  -8   0 -14   11.99    2.22
   8   0  12    3.82    1.18
  -8   0 -12    2.94    1.29
   8   0  12    1.01    1.22
   8   0  10    4.95    1.59
  -8   0 -10    2.34    1.06
   8   0  10    0.81    0.62
   8   0  10    1.56    0.93
  -8   0  -8    2.42    1.16
   8   0   8    6.28    1.47
   8   0   8    2.93    0.98
  -8   0  -8    2.36    0.94
   8   0   8    3.19    1.51
  -8   0  -8    2.86    0.99
   8   0   6  126.68    6.09
  -8   0  -6  125.54    5.04
  -8   0  -6  140.54    5.63
   8   0   6  135.32    5.47
  -8   0  -6  120.63    5.23
   8   0   6  133.82    5.52
   8   0   4   49.02    3.35
  -8   0  -4   46.42    2.83
  -8   0  -4   46.31    2.46
   8   0   4   48.15    2.96
  -8   0  -4   42.38    2.80
   8   0   4   56.23    3.76
   8   0   4   48.53    2.95
   8   0   2   26.79    2.26
   8   0   2   26.49    2.74
  -8   0  -2   26.45    2.02
   8   0   2   31.28    2.68
   8   0   2   26.35    2.03
  -8   0  -2   33.69    2.32
  -8   0  -2   29.53    1.73
   8   0   2   27.70    2.13
  -8   0   0    3.33    0.92
  -8   0   0    3.00    0.66
   8   0   0    4.47    0.97
   8   0   0    6.94    1.48
  -8   0   0    2.74    0.80
   8   0   0    5.25    1.33
   8   0   0    4.20    1.03
  -8   0   0    3.33    0.97
   8   0   0    6.42    1.19
  -8   0   2   33.60    2.42
   8   0  -2   38.23    2.46
   8   0  -2   37.11    2.60
  -8   0   2   39.11    2.01
   8   0  -2   39.33    2.77
  -8   0   2   38.57    2.53
   8   0  -4   41.46    2.73
   8   0  -4   43.21    2.75
   8   0  -4   41.70    2.59
  -8   0   4   47.30    2.74
  -8   0   4   37.85    2.61
  -8   0   4   42.35    1.70
  -8   0   4   42.13    1.66
   8   0  -6   89.81    4.26
  -8   0   6   98.17    4.39
  -8   0   6   93.60    4.43
   8   0  -6   93.09    4.24
   8   0  -6   93.08    4.33
   8   0  -8   84.22    4.08
  -8   0   8   81.30    4.03
   8   0  -8   81.56    3.59
   8   0  -8   78.94    4.03
  -8   0   8   72.61    3.95
   8   0 -10  121.76    5.58
  -8   0  10  127.45    5.33
   8   0 -10  126.55    5.36
  -8   0  10  114.51    5.36
   8   0 -10  117.76    4.58
  -8   0  12   12.29    2.00
  -8   0  12   13.87    2.00
   8   0 -12   12.13    1.97
   8   0 -12   12.68    1.09
   8   0 -12   11.81    1.90
  -8   0  14   27.12    2.82
   8   0 -14   21.52    2.55
   8   0 -14   22.38    1.30
   8   0 -14   24.76    2.47
   8   0 -14   20.18    2.67
   8   0 -16   25.90    2.75
   8   0 -16   22.80    1.08
   8   0 -16   19.97    2.63
  -8   0  16   24.92    3.06
   8   0 -18   28.39    3.20
   8   0 -18   18.49    2.64
  -8   0  18   29.71    3.45
   8   0 -20   18.84    2.84
  -8  -1 -17    1.15    1.19
   8  -1  17    0.49    0.73
   8  -1  17    0.83    1.36
  -8   1 -17   -1.00    0.88
   8   1  17   -0.14    0.82
   8  -1  15   -0.36    0.71
  -8  -1 -15    0.04    1.09
   8  -1  15    1.32    1.31
   8   1  15    0.56    0.77
  -8   1 -15   -1.23    0.86
   8  -1  13    1.06    1.21
  -8  -1 -13    3.94    1.46
   8  -1  13    0.68    0.85
   8   1  13    1.38    1.06
  -8   1 -13    0.05    0.84
   8   1  13    0.37    0.78
  -8  -1 -11    4.58    1.30
   8  -1  11    3.16    1.56
   8  -1  11    4.09    1.25
  -8   1 -11    4.00    1.29
   8   1  11    3.39    1.42
   8   1  11    0.84    0.90
   8  -1   9    0.49    1.09
   8  -1   9   -0.42    0.68
  -8  -1  -9   -0.07    0.68
   8  -1   9   -0.86    0.49
  -8  -1  -9    0.48    0.78
   8   1   9    1.18    1.05
  -8   1  -9    0.27    0.68
   8   1   9    0.10    0.68
   8   1   9    0.75    0.88
   8  -1   7    9.37    1.52
   8  -1   7    7.45    1.51
  -8  -1  -7    9.99    1.65
   8  -1   7    8.48    1.96
  -8  -1  -7   10.46    1.79
  -8  -1  -7   10.48    1.55
   8   1   7    9.88    1.97
   8   1   7   10.61    1.72
  -8   1  -7   12.77    1.98
   8   1   7   10.65    1.58
  -8   1  -7    7.59    1.42
  -8  -1  -5   11.53    1.79
  -8  -1  -5   14.42    1.97
  -8  -1  -5   11.76    1.74
   8  -1   5   13.44    1.75
  -8  -1  -5   11.90    1.39
   8  -1   5   12.03    2.18
   8  -1   5   12.21    1.77
  -8   1  -5   12.22    1.82
   8   1   5   17.64    2.17
   8   1   5   15.91    2.25
   8   1   5   12.78    1.72
  -8   1  -5   13.35    1.65
   8   1   5   12.52    2.16
  -8   1  -5   10.80    1.55
  -8  -1  -3    0.44    0.66
   8  -1   3    1.27    1.07
   8  -1   3    0.65    0.92
   8  -1   3    1.71    0.89
   8  -1   3    0.72    0.80
  -8  -1  -3    1.30    0.82
   8  -1   3    0.97    0.77
   8  -1   3    0.36    0.58
  -8   1  -3    0.65    0.75
   8   1   3    0.29    0.78
  -8   1  -3    0.27    0.58
   8   1   3    0.61    0.74
   8   1   3    0.80    0.64
   8   1   3    2.09    1.06
  -8   1  -3   -0.04    0.51
   8  -1   1    9.28    1.38
   8  -1   1    7.25    1.44
   8  -1   1    8.81    1.43
   8  -1   1    8.72    1.66
   8  -1   1   10.10    1.82
  -8  -1  -1    8.66    1.44
  -8  -1  -1    9.54    1.50
  -8  -1  -1    9.06    1.31
   8   1   1    8.88    1.41
  -8   1  -1    8.73    1.44
   8   1   1   10.99    1.57
   8   1   1   12.72    1.85
   8   1   1    5.71    1.33
   8   1   1    8.48    1.30
  -8   1  -1   14.49    1.51
  -8   1  -1    9.97    1.46
   8  -1  -1    8.28    1.54
   8  -1  -1    9.69    1.67
  -8  -1   1    8.90    1.40
  -8  -1   1    6.93    1.27
   8  -1  -1    9.92    1.32
  -8  -1   1    9.60    1.23
   8  -1  -1    9.22    1.41
   8  -1  -1    6.93    1.45
   8   1  -1    8.09    1.29
   8   1  -1    8.32    1.57
   8   1  -1    8.72    1.63
   8   1  -1    8.94    1.24
  -8   1   1    9.90    1.29
   8   1  -1   11.20    1.42
  -8   1   1    8.08    1.33
   8  -1  -3    8.18    1.44
  -8  -1   3    7.87    0.91
   8  -1  -3    7.07    1.34
   8  -1  -3    7.92    1.44
  -8  -1   3    8.41    1.29
  -8  -1   3    8.00    1.45
  -8  -1   3    9.53    1.02
   8   1  -3    6.30    1.29
  -8   1   3    7.59    1.37
  -8   1   3    7.92    1.00
   8   1  -3    8.21    1.46
  -8   1   3    8.47    1.50
   8   1  -3    6.69    1.13
  -8  -1   5    2.59    0.98
   8  -1  -5    2.27    0.80
  -8  -1   5    3.11    0.95
   8  -1  -5    2.96    0.95
   8  -1  -5    2.37    0.97
  -8  -1   5    3.26    0.83
   8   1  -5    2.86    0.80
   8   1  -5    1.46    0.81
  -8   1   5    2.48    0.91
   8   1  -5    3.59    1.13
  -8  -1   7    0.65    0.70
   8  -1  -7    3.67    0.89
   8  -1  -7    1.02    0.81
   8  -1  -7    1.97    0.96
  -8  -1   7    2.19    0.98
   8   1  -7    3.29    0.92
  -8   1   7    1.91    0.88
   8   1  -7    2.18    0.77
   8   1  -7    2.69    1.16
  -8  -1   9   16.58    2.08
   8  -1  -9   15.65    2.12
   8  -1  -9   15.99    1.46
   8  -1  -9   14.67    1.95
  -8  -1   9   14.39    2.01
  -8   1   9   19.53    2.16
   8   1  -9   15.91    2.08
   8   1  -9   17.66    2.03
  -8   1   9   12.93    1.91
   8   1  -9   16.06    1.43
  -8  -1  11    2.67    1.12
  -8  -1  11    0.78    0.72
   8  -1 -11    1.54    1.00
   8  -1 -11    3.74    1.18
   8  -1 -11    1.14    0.90
   8  -1 -11    2.07    0.67
   8   1 -11    2.06    0.96
  -8   1  11    0.69    0.76
   8   1 -11    1.29    0.79
   8   1 -11    1.16    0.57
  -8   1  11    2.33    1.03
  -8  -1  13   18.77    2.40
   8  -1 -13   18.52    2.56
   8  -1 -13   14.35    1.98
  -8  -1  13   21.97    2.67
   8   1 -13   15.19    1.12
  -8   1  13   16.39    2.12
   8   1 -13   18.51    2.38
  -8   1  13   15.98    2.36
  -8  -1  15    2.55    1.21
  -8  -1  15    3.62    1.21
   8  -1 -15    1.72    1.23
   8   1 -15    1.80    1.04
   8   1 -15    1.95    1.09
   8   1 -15    2.61    0.44
  -8   1  15    3.15    1.33
  -8  -1  17    0.84    0.91
  -8  -1  17   -0.52    1.02
   8  -1 -17    0.23    1.03
   8   1 -17    0.37    1.02
  -8   1  17    0.71    1.10
   8   1 -17    3.10    1.23
   8  -1 -19    1.71    1.14
   8  -1 -19    4.67    1.53
  -8   1  19    3.51    1.56
   8  -1 -21    3.15    1.61
   8  -2  16    7.54    2.18
   8  -2  16    4.64    1.22
  -8   2 -16    5.11    1.85
   8   2  16    7.00    1.47
  -8  -2 -14    6.25    1.59
   8  -2  14    3.15    1.56
   8  -2  14    3.12    1.08
   8   2  14    6.68    1.48
  -8   2 -14    4.62    1.59
   8  -2  12   13.90    2.01
   8  -2  12   15.82    2.85
  -8  -2 -12   11.35    1.96
  -8   2 -12   12.29    2.19
   8   2  12    9.91    1.80
   8  -2  10   13.36    2.00
   8  -2  10   16.23    2.71
  -8  -2 -10   14.51    2.21
  -8  -2 -10   13.15    2.06
  -8   2 -10   13.90    2.17
   8   2  10   15.57    2.20
   8   2  10   14.91    2.32
   8   2  10   14.04    1.61
  -8  -2  -8    8.35    1.63
   8  -2   8    9.96    2.11
   8  -2   8    9.56    1.45
  -8  -2  -8   10.39    1.86
   8  -2   8   10.75    1.71
  -8   2  -8    9.43    1.74
   8   2   8   13.18    1.74
   8   2   8    7.86    1.76
   8   2   8   12.88    1.91
  -8  -2  -6   11.37    1.88
   8  -2   6   17.47    2.60
   8  -2   6   13.49    1.94
   8  -2   6   10.86    1.65
  -8  -2  -6   10.82    1.74
  -8   2  -6   13.31    1.99
   8   2   6   12.63    1.77
  -8   2  -6   11.34    1.65
   8   2   6   12.23    2.10
   8   2   6   10.70    1.88
   8  -2   4   41.51    2.78
   8  -2   4   42.05    3.25
  -8  -2  -4   42.02    2.56
   8  -2   4   35.10    2.94
  -8  -2  -4   45.26    2.93
   8  -2   4   38.18    3.21
  -8  -2  -4   39.27    2.64
   8  -2   4   38.96    2.68
   8   2   4   40.55    2.76
   8   2   4   36.22    2.94
   8   2   4   36.88    3.24
  -8   2  -4   44.90    2.82
  -8   2  -4   43.87    2.58
  -8   2  -4   40.16    2.54
   8  -2   2   35.59    3.00
   8  -2   2   34.24    2.76
   8  -2   2   35.35    2.85
  -8  -2  -2   36.97    2.47
   8  -2   2   36.13    2.43
   8  -2   2   35.37    2.48
  -8  -2  -2   39.40    2.68
  -8  -2  -2   38.09    2.47
   8  -2   2   37.23    2.51
  -8   2  -2   33.93    2.35
  -8   2  -2   40.99    2.50
  -8   2  -2   37.53    2.34
   8   2   2   37.29    3.01
   8   2   2   33.38    2.35
   8   2   2   37.17    2.78
   8   2   2   33.87    2.44
   8  -2   0   30.72    2.49
   8  -2   0   28.91    2.90
  -8  -2   0   25.72    1.87
  -8  -2   0   31.35    2.33
   8  -2   0   26.04    2.00
   8  -2   0   28.65    2.11
   8  -2   0   29.60    2.14
  -8  -2   0   27.20    2.00
   8   2   0   26.75    2.07
  -8   2   0   27.42    2.09
   8   2   0   29.94    2.58
   8   2   0   32.18    2.10
   8   2   0   28.92    2.81
  -8   2   0   26.55    1.92
  -8   2   0   26.33    1.89
   8  -2  -2   39.28    2.73
  -8  -2   2   37.15    2.21
   8  -2  -2   44.85    2.98
   8  -2  -2   40.02    2.82
  -8  -2   2   37.58    2.67
  -8  -2   2   39.96    2.08
   8   2  -2   39.83    2.28
   8   2  -2   40.62    2.72
  -8   2   2   38.49    2.13
   8   2  -2   41.15    2.18
  -8   2   2   39.88    2.61
   8   2  -2   41.85    2.88
   8  -2  -4   57.99    3.23
  -8  -2   4   56.83    3.27
  -8  -2   4   57.54    2.02
  -8  -2   4   57.37    2.68
  -8  -2   4   53.43    3.25
   8  -2  -4   63.15    3.42
  -8  -2   4   55.65    2.04
   8  -2  -4   55.17    3.44
   8   2  -4   52.05    3.19
   8   2  -4   58.19    2.59
   8   2  -4   57.92    2.65
  -8   2   4   53.86    3.15
   8   2  -4   51.73    3.24
  -8   2   4   57.17    2.29
   8  -2  -6    5.08    1.37
  -8  -2   6    4.89    1.17
  -8  -2   6    6.07    1.43
   8  -2  -6    3.98    1.11
   8  -2  -6    4.09    1.02
   8   2  -6    6.30    1.22
  -8   2   6    7.77    1.45
   8   2  -6    4.57    1.27
   8   2  -6    7.26    1.09
  -8  -2   8   29.93    2.39
   8  -2  -8   27.34    2.07
  -8  -2   8   30.57    2.99
   8  -2  -8   24.90    2.43
   8  -2  -8   33.91    2.72
   8   2  -8   31.04    2.07
  -8   2   8   25.48    2.60
   8   2  -8   34.04    3.21
   8   2  -8   29.23    2.04
   8  -2 -10   37.40    2.97
   8  -2 -10   30.47    2.32
   8  -2 -10   32.84    3.41
  -8  -2  10   32.18    2.62
  -8  -2  10   35.75    2.77
   8   2 -10   34.87    2.09
   8   2 -10   32.64    2.69
  -8   2  10   32.23    3.16
   8  -2 -12   30.12    2.31
   8  -2 -12   25.43    2.97
  -8  -2  12   32.03    2.65
  -8  -2  12   32.66    3.27
  -8   2  12   29.53    2.28
   8   2 -12   29.75    1.79
   8   2 -12   31.18    3.20
  -8   2  12   30.47    3.13
   8  -2 -14    7.98    1.91
  -8  -2  14    7.63    1.73
  -8  -2  14    7.84    1.73
  -8   2  14    7.06    1.81
   8   2 -14    7.32    0.87
   8   2 -14    6.27    1.65
   8  -2 -16   15.26    2.68
  -8  -2  16   19.31    2.62
  -8  -2  16   17.58    2.50
   8   2 -16   13.64    2.28
  -8   2  16   16.74    2.79
   8   2 -16   17.20    2.35
   8  -2 -18   11.76    2.35
  -8  -2  18   11.72    2.24
   8   2 -18    9.60    2.04
  -8   2  18   10.58    2.38
   8  -2 -20   10.60    2.20
   8  -2 -20    7.01    2.07
  -8   2  20   13.38    2.68
   8  -3  15    2.39    1.02
   8  -3  15    2.92    1.50
  -8   3 -15    0.76    1.21
   8   3  15    2.62    1.18
   8  -3  13    3.21    1.09
   8  -3  13    3.36    1.56
   8   3  13    3.83    1.36
  -8   3 -13    8.59    1.90
   8  -3  11    7.10    1.48
  -8  -3 -11    7.23    1.77
   8  -3  11    5.66    1.83
  -8   3 -11    7.73    1.87
   8   3  11    5.05    1.39
  -8  -3  -9    2.04    1.14
   8  -3   9    4.43    1.34
   8  -3   9    4.14    1.69
   8  -3   9    2.70    0.85
  -8   3  -9    3.40    1.30
   8   3   9    2.90    1.30
   8   3   9    2.84    1.13
   8   3   9    2.45    0.95
   8  -3   7    5.25    1.36
   8  -3   7    5.69    1.76
  -8  -3  -7    4.31    1.26
  -8  -3  -7    7.46    1.68
   8  -3   7    5.43    1.23
  -8   3  -7    4.14    1.33
   8   3   7    7.81    1.76
  -8   3  -7    6.29    1.58
   8   3   7    7.63    1.58
   8   3   7    8.15    1.46
   8  -3   5    5.22    1.25
  -8  -3  -5    7.10    1.56
   8  -3   5    5.10    1.29
  -8  -3  -5    4.48    1.37
   8  -3   5    7.41    1.85
   8   3   5    7.76    1.54
  -8   3  -5    5.78    1.33
  -8   3  -5    4.91    1.38
   8   3   5    8.66    1.84
   8  -3   3    5.46    1.56
   8  -3   3    7.49    1.71
   8  -3   3    4.12    1.36
   8  -3   3    8.11    1.56
  -8  -3  -3    8.31    1.67
  -8  -3  -3    8.12    1.52
   8  -3   3    6.33    1.35
   8   3   3    7.85    1.50
  -8   3  -3    8.06    1.46
  -8   3  -3    8.15    1.41
   8   3   3    9.60    2.07
  -8   3  -3    7.33    1.26
   8   3   3    4.90    1.34
   8  -3   1    1.81    0.75
   8  -3   1    1.11    1.04
   8  -3   1    0.94    0.77
  -8  -3  -1    1.02    0.78
   8  -3   1    2.21    1.05
   8  -3   1    1.55    0.92
   8  -3   1    4.13    1.29
  -8  -3  -1    1.80    0.84
  -8   3  -1    1.55    0.79
   8   3   1    0.85    0.69
   8   3   1    0.61    0.62
   8   3   1    1.52    0.88
   8   3   1    1.08    0.99
  -8   3  -1    1.52    0.74
  -8   3  -1    1.29    0.78
  -8  -3   1   34.91    2.13
   8  -3  -1   35.92    2.45
  -8  -3   1   36.15    2.67
   8  -3  -1   34.50    2.42
   8  -3  -1   46.90    3.17
   8  -3  -1   35.96    2.80
   8  -3  -1   39.28    2.88
  -8   3   1   37.31    2.25
  -8   3   1   31.99    2.31
   8   3  -1   35.91    2.62
   8   3  -1   37.32    2.34
   8   3  -1   34.93    2.87
  -8  -3   3   20.43    1.36
   8  -3  -3   20.46    2.55
   8  -3  -3   23.95    2.15
  -8  -3   3   21.08    2.33
  -8  -3   3   18.59    2.24
   8  -3  -3   23.98    2.45
   8   3  -3   19.79    2.41
   8   3  -3   16.16    1.43
  -8   3   3   16.66    2.01
  -8   3   3   19.56    1.74
   8   3  -3   16.52    2.16
   8  -3  -5    2.03    1.00
  -8  -3   5    2.50    0.96
  -8  -3   5    2.83    1.09
   8  -3  -5    1.71    1.03
   8  -3  -5    2.62    0.92
   8   3  -5    2.94    1.01
  -8   3   5    3.47    1.10
  -8   3   5    2.83    0.57
   8   3  -5    3.25    1.08
   8  -3  -7    5.79    1.52
  -8  -3   7    4.61    1.34
   8  -3  -7    6.03    1.41
  -8  -3   7    5.17    1.30
   8  -3  -7    4.24    1.16
   8   3  -7    4.75    1.09
   8   3  -7    4.63    1.40
  -8   3   7    7.00    1.54
  -8  -3   9    4.66    1.31
   8  -3  -9    6.72    1.40
  -8  -3   9    9.38    1.71
   8  -3  -9    6.74    1.67
   8  -3  -9    5.52    1.40
  -8   3   9    8.74    1.76
   8   3  -9    5.76    1.44
   8   3  -9    8.10    1.29
  -8  -3  11    7.52    1.62
  -8  -3  11    8.65    1.64
   8  -3 -11    8.37    1.71
  -8   3  11    5.52    1.51
   8   3 -11    7.59    1.73
   8   3 -11    9.51    1.33
  -8  -3  13    1.46    0.98
  -8  -3  13    1.02    1.06
   8  -3 -13    1.75    1.09
   8   3 -13    1.77    0.67
   8   3 -13    1.34    1.04
  -8   3  13    0.76    0.97
  -8  -3  15    5.27    1.48
  -8  -3  15    4.92    1.56
   8  -3 -15    5.98    1.75
   8   3 -15    5.90    1.76
  -8   3  15    3.94    1.46
  -8  -3  17    2.98    1.47
   8  -3 -17    2.03    1.36
  -8   3  17    4.56    1.75
   8   3 -17    8.37    1.95
  -8  -3  19    0.61    1.15
   8  -3 -19    0.04    1.21
  -8   3  19    0.05    1.13
   8   3 -19    0.47    1.17
   8  -3 -21    0.82    1.23
  -8   3  21    3.36    1.70
   8  -4  16    0.29    1.31
  -8   4 -16    0.46    1.34
   8   4  16    2.45    1.06
   8  -4  14    5.15    1.29
   8  -4  14    8.96    2.45
  -8   4 -14    3.71    1.52
   8   4  14    3.59    1.33
   8  -4  12    7.32    1.53
   8  -4  12    9.61    2.27
  -8  -4 -12    6.91    1.81
   8   4  12    7.62    1.73
  -8   4 -12    6.27    1.72
  -8  -4 -10   17.27    2.61
   8  -4  10   16.52    2.21
   8  -4  10   22.30    3.21
   8   4  10   17.37    2.32
   8   4  10   18.38    1.87
  -8   4 -10   19.20    2.67
  -8  -4  -8    8.90    1.83
   8  -4   8    9.06    2.11
  -8  -4  -8   15.45    2.32
   8  -4   8   10.06    1.79
   8  -4   8    8.77    1.39
   8   4   8   14.40    1.93
   8   4   8   10.66    1.97
  -8   4  -8   13.53    2.17
   8   4   8   11.22    1.97
  -8  -4  -6    3.54    1.28
   8  -4   6    3.84    1.54
   8  -4   6    2.44    1.14
   8  -4   6    1.57    0.92
  -8  -4  -6    2.30    1.13
  -8   4  -6    0.81    0.92
   8   4   6    1.67    1.01
  -8   4  -6    3.60    1.20
   8   4   6    2.05    1.26
  -8  -4  -4   10.09    1.89
   8  -4   4   10.18    1.80
   8  -4   4   10.87    2.06
   8  -4   4   10.07    1.68
  -8   4  -4    8.04    1.62
   8   4   4    7.30    1.79
   8   4   4    5.98    1.42
   8   4   4    4.89    1.48
  -8   4  -4    8.43    1.64
   8  -4   2   13.54    2.25
   8  -4   2   10.91    2.09
  -8  -4  -2   15.20    2.20
  -8  -4  -2   13.23    1.75
   8  -4   2   15.87    2.04
   8  -4   2    9.29    1.64
   8   4   2   14.21    2.29
   8   4   2   12.21    1.78
  -8   4  -2   14.69    2.00
  -8   4  -2   15.12    1.97
  -8   4  -2   15.60    1.77
   8   4   2   12.99    1.98
  -8  -4   0   41.60    2.96
   8  -4   0   35.26    2.90
   8  -4   0   38.59    3.06
   8  -4   0   34.09    2.60
  -8  -4   0   38.97    2.42
   8  -4   0   35.80    3.04
   8  -4   0   43.78    2.78
   8   4   0   40.25    2.58
   8   4   0   35.51    3.08
  -8   4   0   40.46    2.53
   8   4   0   33.73    2.64
  -8   4   0   43.57    2.65
  -8   4   0   39.66    2.70
   8  -4  -2   54.40    3.70
  -8  -4   2   52.70    3.34
   8  -4  -2   52.73    3.29
  -8  -4   2   56.63    3.45
  -8  -4   2   55.23    2.64
   8  -4  -2   56.13    3.15
   8  -4  -2   51.14    3.50
  -8   4   2   55.01    2.80
   8   4  -2   52.90    2.89
   8   4  -2   51.90    3.35
  -8   4   2   56.24    3.14
   8   4  -2   59.96    3.79
   8  -4  -4   22.29    2.36
  -8  -4   4   22.44    1.37
   8  -4  -4   23.75    2.47
  -8  -4   4   27.65    2.77
   8  -4  -4   23.16    1.96
   8  -4  -4   27.78    3.14
   8  -4  -4   27.25    2.90
  -8  -4   4   24.31    2.65
  -8   4   4   23.92    1.63
   8   4  -4   25.83    2.38
   8   4  -4   23.80    2.66
  -8   4   4   24.42    2.42
   8  -4  -6   18.31    2.53
  -8  -4   6   20.61    2.34
   8  -4  -6   17.68    2.24
  -8  -4   6   16.03    2.24
   8  -4  -6   21.53    2.27
   8   4  -6   14.98    2.18
   8   4  -6   15.18    2.01
  -8   4   6   19.21    2.28
  -8   4   6   21.26    1.18
   8  -4  -8    2.85    1.07
  -8  -4   8    3.97    1.23
  -8  -4   8    5.40    1.28
   8  -4  -8    5.40    1.41
   8   4  -8    3.47    1.03
  -8   4   8    3.27    1.20
   8   4  -8    2.83    1.13
   8  -4 -10   12.46    2.16
  -8  -4  10   13.56    2.26
  -8  -4  10   15.68    2.17
   8   4 -10   16.90    2.56
   8   4 -10   12.66    1.68
  -8   4  10   11.97    2.15
  -8  -4  12   15.25    2.17
  -8  -4  12   14.66    2.35
   8  -4 -12   14.94    2.51
  -8   4  12   14.78    2.35
   8   4 -12    7.60    1.82
   8  -4 -14   14.60    2.51
  -8  -4  14   13.16    2.16
  -8  -4  14   12.03    2.32
  -8   4  14    8.12    1.97
   8   4 -14   15.92    2.69
  -8  -4  16   19.35    2.93
   8  -4 -16   18.28    2.86
  -8   4  16   13.98    2.59
   8   4 -16   14.81    2.56
  -8  -4  18    4.00    1.74
   8  -4 -18    2.06    1.42
  -8   4  18    7.77    2.06
   8   4 -18    4.11    1.71
  -8  -4  20    3.43    1.77
   8  -4 -20    1.98    1.60
   8   4 -20    5.81    2.00
  -8   4  20    3.16    1.69
   8  -5  15   -0.53    0.64
   8  -5  15   -0.70    1.31
   8   5  15    1.16    0.93
  -8   5 -15   -1.30    0.96
   8  -5  13    5.64    1.99
   8  -5  13    4.26    1.22
  -8  -5 -13    1.84    1.32
  -8   5 -13    3.39    1.63
   8   5  13    3.72    1.38
   8  -5  11    6.74    1.50
  -8  -5 -11    4.26    1.65
   8  -5  11    7.93    2.22
   8   5  11    3.70    1.33
  -8   5 -11    6.44    1.80
  -8  -5  -9    5.32    1.77
   8  -5   9    4.65    1.81
   8  -5   9    4.59    1.33
   8   5   9    7.53    1.69
  -8   5  -9    4.95    1.56
   8  -5   7   16.70    2.75
  -8  -5  -7   13.51    2.12
   8  -5   7    9.50    1.51
   8  -5   7   14.47    2.06
  -8  -5  -7   13.88    2.45
   8   5   7   12.58    2.07
  -8   5  -7   10.85    2.01
   8   5   7   13.29    2.08
   8  -5   5   12.85    1.82
   8  -5   5   10.34    2.18
   8  -5   5    8.76    1.77
  -8  -5  -5    8.73    1.67
  -8  -5  -5   11.21    2.12
  -8   5  -5   10.82    1.95
   8   5   5    6.29    1.56
   8   5   5   16.82    2.29
  -8   5  -5   10.21    1.85
  -8  -5  -3    6.11    1.45
   8  -5   3    3.70    1.25
   8  -5   3    3.72    1.47
  -8  -5  -3    6.36    1.68
   8  -5   3    4.97    1.31
   8   5   3    6.11    1.77
   8   5   3    3.92    1.34
   8   5   3    6.01    1.53
  -8   5  -3    6.52    1.60
  -8   5  -3    6.44    1.50
   8  -5   1    8.10    1.66
   8  -5   1    3.80    1.02
   8  -5   1    3.56    1.21
   8  -5   1    3.68    1.31
  -8  -5  -1    4.53    1.36
  -8  -5  -1    1.90    0.88
   8  -5   1    8.11    1.90
  -8   5  -1    5.65    1.38
   8   5   1    4.23    1.41
  -8   5  -1    3.47    1.00
  -8   5  -1    4.02    1.30
   8   5   1    4.74    1.36
  -8  -5   1   13.80    1.98
   8  -5  -1   12.78    1.80
   8  -5  -1   12.44    1.83
  -8  -5   1   11.20    1.88
   8  -5  -1   14.15    2.15
  -8  -5   1   14.14    1.74
   8   5  -1   11.46    2.11
   8   5  -1   12.66    1.98
  -8   5   1   10.28    1.58
  -8   5   1   11.53    1.68
   8   5  -1   13.86    1.75
  -8  -5   3   25.34    1.73
   8  -5  -3   24.55    2.58
   8  -5  -3   30.41    2.88
  -8  -5   3   26.95    2.94
   8  -5  -3   26.84    3.04
   8  -5  -3   28.52    2.30
  -8  -5   3   25.45    2.75
  -8   5   3   26.66    2.68
  -8   5   3   24.49    1.92
   8   5  -3   27.42    3.02
   8   5  -3   26.68    3.01
   8  -5  -5   15.49    2.08
   8  -5  -5   17.78    2.17
  -8  -5   5   18.53    2.42
  -8  -5   5   14.89    0.90
  -8  -5   5   19.62    2.48
   8   5  -5   15.54    2.21
  -8   5   5   15.98    1.57
   8   5  -5   17.36    2.38
  -8   5   5   13.60    1.98
  -8  -5   7    1.43    1.01
   8  -5  -7   -0.08    0.81
  -8  -5   7    1.89    1.00
   8   5  -7    1.57    0.85
   8   5  -7    1.88    1.01
  -8   5   7    0.81    0.40
  -8   5   7    0.91    0.87
   8  -5  -9   11.81    2.18
  -8  -5   9   11.18    1.83
  -8  -5   9   11.72    2.09
  -8   5   9   15.47    2.36
   8   5  -9   11.27    1.77
   8   5  -9   12.91    2.29
  -8  -5  11    4.89    1.56
  -8  -5  11    3.62    1.22
   8  -5 -11    2.29    1.26
  -8   5  11    4.71    1.51
   8   5 -11    5.70    1.61
  -8  -5  13    4.72    1.68
  -8  -5  13    6.57    1.59
   8  -5 -13    4.70    1.55
   8   5 -13    4.84    1.69
  -8   5  13    5.72    1.74
  -8  -5  15    8.11    2.11
   8  -5 -15    6.83    2.06
  -8   5  15    7.08    2.01
   8   5 -15    8.19    2.13
   8  -5 -17    6.03    1.97
  -8  -5  17    6.03    1.87
   8   5 -17    6.45    1.92
  -8   5  17    8.27    2.15
  -8  -5  19    0.44    1.14
   8  -5 -19   -0.85    1.22
  -8   5  19    0.30    1.33
   8   5 -19    2.98    1.67
   8  -6  14    2.15    1.01
  -8  -6 -14    2.50    1.60
   8  -6  14    2.03    1.58
  -8   6 -14    0.89    1.49
   8   6  14    1.06    1.04
   8  -6  12    9.34    1.81
  -8  -6 -12   12.16    2.62
   8  -6  12    8.44    2.29
  -8   6 -12    8.73    2.09
   8   6  12    6.18    1.70
   8  -6  10   12.11    2.00
   8  -6  10   10.85    2.43
  -8  -6 -10    9.06    2.15
   8   6  10    7.10    1.74
  -8   6 -10   11.68    2.28
   8  -6   8    7.87    1.69
   8  -6   8    7.05    1.26
   8  -6   8    5.28    1.79
  -8  -6  -8   10.22    2.22
  -8   6  -8    9.68    2.07
   8   6   8    7.67    1.76
   8  -6   6   13.54    2.47
   8  -6   6   13.47    2.12
  -8  -6  -6   16.30    2.37
   8  -6   6   12.53    1.87
  -8  -6  -6   12.56    2.36
  -8   6  -6    8.05    1.88
   8   6   6   11.50    2.04
   8   6   6    8.55    1.73
  -8   6  -6   17.10    2.41
   8  -6   4    7.38    1.67
  -8  -6  -4    7.18    1.79
   8  -6   4    6.01    1.68
  -8  -6  -4    6.22    1.51
   8  -6   4   11.11    1.80
   8   6   4    7.78    1.72
   8   6   4   10.05    1.79
  -8   6  -4    8.05    1.81
  -8   6  -4    9.72    1.84
   8  -6   2   50.68    3.33
  -8  -6  -2   54.88    3.27
   8  -6   2   46.55    3.50
   8  -6   2   56.99    3.51
  -8  -6  -2   50.91    3.71
  -8   6  -2   50.06    3.46
   8   6   2   49.68    4.05
   8   6   2   45.73    3.32
  -8   6  -2   55.21    3.47
   8  -6   0    1.80    1.01
  -8  -6   0    3.02    1.25
   8  -6   0    2.72    1.24
   8  -6   0    1.23    1.12
   8  -6   0    2.35    0.94
  -8  -6   0    2.13    1.14
  -8  -6   0    3.73    1.12
   8   6   0    0.86    0.92
  -8   6   0    2.60    1.06
  -8   6   0    3.23    1.06
   8   6   0    0.63    0.99
  -8  -6   2   28.21    3.02
  -8  -6   2   31.96    2.14
  -8  -6   2   35.41    2.86
   8  -6  -2   31.31    3.02
   8  -6  -2   33.97    2.70
   8  -6  -2   31.16    2.54
   8   6  -2   28.54    3.26
   8   6  -2   32.68    2.49
  -8   6   2   32.59    2.57
   8   6  -2   29.54    3.11
  -8   6   2   32.57    2.41
   8  -6  -4   24.45    2.62
   8  -6  -4   31.96    2.55
  -8  -6   4   28.57    3.11
  -8  -6   4   23.32    1.65
  -8  -6   4   25.31    3.00
   8  -6  -4   28.24    2.46
   8   6  -4   27.13    3.13
   8   6  -4   28.69    3.11
  -8   6   4   25.13    2.00
  -8   6   4   25.26    2.70
  -8  -6   6    0.93    1.00
   8  -6  -6    1.80    1.16
  -8  -6   6    1.01    0.87
   8   6  -6    0.15    0.85
   8   6  -6    0.52    1.00
  -8   6   6    0.20    0.93
  -8   6   6    0.98    0.61
  -8  -6   8    4.06    1.45
   8  -6  -8    6.54    1.62
  -8  -6   8    5.95    1.61
  -8   6   8    7.23    0.70
   8   6  -8    5.96    1.66
  -8  -6  10    5.15    1.57
  -8  -6  10    7.62    1.68
   8  -6 -10    3.74    1.52
  -8   6  10    7.13    1.92
   8   6 -10    5.54    1.64
   8  -6 -12   10.33    2.32
  -8  -6  12   11.83    2.00
  -8  -6  12   10.23    2.18
  -8   6  12   14.27    2.53
   8   6 -12   10.56    2.23
  -8  -6  14    9.23    2.16
   8  -6 -14    9.70    2.32
  -8   6  14    6.62    1.92
   8   6 -14    5.46    1.75
   8  -6 -16    4.57    1.69
  -8  -6  16    4.97    1.81
   8   6 -16    1.99    1.35
  -8   6  16    5.46    1.83
  -8  -6  18    5.66    1.94
   8  -6 -18    3.02    1.59
   8   6 -18    1.70    1.44
  -8   6  18    2.55    1.58
   8  -7  13    1.11    0.98
   8  -7  13    1.18    1.48
  -8  -7 -13    1.24    1.49
  -8   7 -13    2.05    1.55
   8   7  13    0.30    1.14
  -8  -7 -11    2.89    1.61
   8  -7  11    2.55    1.24
   8  -7  11    5.00    1.87
   8   7  11    5.36    1.65
  -8   7 -11    6.21    1.89
   8  -7   9    2.97    1.55
   8  -7   9    5.59    1.52
  -8  -7  -9    8.03    2.16
   8   7   9    7.96    1.86
  -8   7  -9    2.45    1.34
  -8  -7  -7    5.49    1.64
   8  -7   7    7.50    1.66
   8  -7   7    3.25    1.67
  -8  -7  -7    6.50    2.01
   8   7   7    7.86    1.87
  -8   7  -7    7.32    1.91
   8  -7   5   15.98    2.36
  -8  -7  -5   13.87    2.49
   8  -7   5   11.10    2.43
  -8  -7  -5    9.26    1.87
  -8   7  -5   10.33    2.06
  -8   7  -5    9.06    2.01
   8   7   5   12.08    2.06
   8  -7   3    9.98    1.98
  -8  -7  -3   11.80    2.27
   8  -7   3   10.30    2.25
  -8  -7  -3   11.84    1.92
  -8   7  -3    4.62    1.59
  -8   7  -3    7.99    1.78
   8   7   3   11.73    1.91
  -8  -7  -1    6.94    1.82
   8  -7   1    6.25    1.66
  -8  -7  -1    6.77    1.49
   8  -7   1    5.06    1.39
   8  -7   1    4.33    1.44
   8   7   1    8.00    2.02
  -8   7  -1    4.78    1.42
   8   7   1    6.11    1.46
  -8   7  -1    8.92    1.97
  -8  -7   1   10.82    1.65
   8  -7  -1   15.46    2.04
  -8  -7   1   18.29    2.68
  -8  -7   1   18.20    2.50
   8  -7  -1   21.88    3.06
   8  -7  -1   17.56    2.43
   8  -7  -1   21.56    2.52
   8   7  -1   17.59    2.36
  -8   7   1   18.80    2.29
  -8   7   1   17.17    2.24
   8  -7  -3   20.48    2.39
  -8  -7   3   21.49    2.81
   8  -7  -3   20.24    2.47
   8  -7  -3   16.45    2.17
  -8  -7   3   18.35    1.91
  -8  -7   3   19.14    2.67
   8   7  -3   20.56    2.79
  -8   7   3   21.72    2.32
  -8   7   3   17.33    2.27
   8  -7  -5    1.74    1.08
   8  -7  -5   -1.35    0.72
  -8  -7   5    0.45    1.01
  -8  -7   5    0.01    0.40
  -8  -7   5    0.76    0.86
  -8   7   5    0.76    0.67
  -8   7   5    0.51    0.95
   8   7  -5    0.03    0.84
  -8  -7   7   17.69    2.60
   8  -7  -7   18.49    2.62
  -8  -7   7   22.42    2.71
  -8   7   7   19.38    1.54
   8   7  -7   22.21    2.92
  -8   7   7   19.56    2.67
  -8  -7   9    6.37    1.74
   8  -7  -9    5.11    1.67
  -8  -7   9    6.10    1.51
  -8   7   9    6.21    0.49
   8   7  -9    6.70    1.79
  -8   7   9    7.18    1.80
  -8  -7  11    4.66    1.67
  -8  -7  11    7.44    1.80
   8  -7 -11    4.32    1.73
   8   7 -11    7.55    1.86
  -8   7  11    8.09    2.03
  -8  -7  13    7.07    2.04
   8  -7 -13   10.14    2.41
  -8   7  13    6.47    1.98
   8   7 -13    7.05    2.01
  -8  -7  15   -0.16    1.03
   8  -7 -15    0.04    1.19
   8   7 -15    4.33    1.77
  -8   7  15    0.88    1.28
   8  -7 -17    1.45    1.49
  -8  -7  17    2.45    1.63
   8   7 -17    3.37    1.75
  -8   7  17    3.63    1.72
   8  -8  12    2.77    1.71
  -8  -8 -12   -0.23    1.40
   8  -8  12   -0.08    0.77
   8   8  12    0.69    1.15
  -8   8 -12   -0.30    1.13
   8  -8  10    3.37    1.34
   8  -8  10    2.87    1.59
  -8  -8 -10    2.63    1.74
   8   8  10    3.69    1.47
  -8   8 -10    2.57    1.60
   8  -8   8    2.81    1.24
  -8  -8  -8    5.51    1.87
   8  -8   8    3.40    1.66
   8   8   8    5.24    1.75
  -8   8  -8    0.54    1.21
   8  -8   6    5.05    1.54
  -8  -8  -6    4.57    1.45
   8  -8   6    6.86    2.02
  -8  -8  -6    3.72    1.78
  -8   8  -6    3.18    1.51
   8   8   6    4.12    1.58
  -8  -8  -4   11.77    2.10
  -8  -8  -4   13.92    2.65
   8  -8   4    6.37    1.80
   8  -8   4    9.10    1.90
  -8   8  -4    9.06    2.02
  -8   8  -4    7.43    2.04
   8  -8   2   12.19    2.27
  -8  -8  -2    9.27    2.03
  -8  -8  -2    5.72    1.49
   8  -8   2   11.55    2.18
  -8   8  -2    5.65    1.63
  -8   8  -2    6.02    1.74
   8   8   2    9.09    1.61
  -8  -8   0    3.25    1.42
  -8  -8   0    6.34    1.39
   8  -8   0    6.17    1.75
  -8  -8   0    7.92    1.90
  -8   8   0    7.39    1.72
   8   8   0    5.99    1.49
  -8  -8   2   -0.40    0.99
  -8  -8   2    1.20    0.80
   8  -8  -2    2.20    1.24
   8  -8  -2    1.75    1.22
  -8  -8   2    0.49    1.05
   8  -8  -2    1.94    0.91
  -8   8   2    0.20    0.78
  -8   8   2    1.63    1.00
   8   8  -2    4.60    1.49
   8  -8  -4    1.08    1.06
  -8  -8   4    0.44    0.98
  -8  -8   4   -0.12    0.79
  -8  -8   4   -0.24    0.48
   8  -8  -4    0.16    0.95
  -8   8   4   -0.05    0.82
   8   8  -4    0.13    0.86
  -8   8   4    0.01    0.70
  -8  -8   6    6.45    1.68
  -8  -8   6    7.44    0.79
  -8  -8   6    6.68    1.80
   8  -8  -6    7.49    1.83
  -8   8   6    5.01    1.55
   8   8  -6    3.64    1.40
  -8   8   6    3.49    1.03
  -8  -8   8   10.71    2.24
   8  -8  -8   12.75    2.39
  -8  -8   8   15.43    2.39
  -8   8   8   13.33    2.27
  -8   8   8   10.52    1.31
   8   8  -8    8.57    2.09
  -8  -8  10    4.70    1.62
   8  -8 -10    4.96    1.95
  -8   8  10    5.69    1.80
   8   8 -10    5.13    1.70
  -8  -8  12    1.13    1.33
   8  -8 -12    3.20    1.79
  -8   8  12    0.15    1.24
   8   8 -12    1.48    1.43
   8  -8 -14    1.45    1.44
  -8  -8  14    0.80    1.33
  -8   8  14   -0.11    1.10
   8   8 -14    1.31    1.34
  -8  -8  16    0.24    1.06
   8  -8 -16   -0.02    1.38
  -8   8  16    2.26    1.60
   8   8 -16   -0.68    1.23
   8  -9   9    1.29    1.16
  -8  -9  -9    5.19    2.09
   8  -9   9    1.68    1.59
  -8   9  -9    0.93    1.42
   8   9   9    2.30    1.35
  -8  -9  -7    6.74    1.90
   8  -9   7    4.85    1.64
   8  -9   7    6.40    2.02
  -8  -9  -7    7.21    2.32
  -8   9  -7    6.66    2.19
   8   9   7    7.64    1.98
  -8  -9  -5    7.34    2.03
   8  -9   5    7.88    2.16
  -8  -9  -5    5.55    1.69
   8  -9   5    5.61    1.63
  -8   9  -5    4.16    1.60
  -8  -9  -3    5.59    1.62
   8  -9   3    6.09    1.97
   8  -9   3    7.19    1.82
  -8  -9  -3    7.95    2.17
  -8   9  -3    5.14    1.76
  -8   9  -3    6.39    1.83
   8  -9   1    7.34    1.96
  -8  -9  -1    3.33    1.57
  -8  -9  -1    4.93    1.43
  -8   9  -1    2.97    1.34
   8   9   1    3.37    1.36
  -8  -9   1    1.48    0.87
  -8  -9   1    0.30    1.26
  -8  -9   1    1.44    1.18
   8   9  -1    0.76    1.08
  -8   9   1   -0.38    0.83
  -8  -9   3    6.14    1.24
  -8  -9   3    5.36    1.74
   8  -9  -3    4.40    1.64
  -8  -9   3    5.10    1.63
  -8   9   3    4.69    1.43
  -8   9   3    4.09    1.47
   8   9  -3    5.83    1.79
  -8  -9   5    9.47    2.01
   8  -9  -5    7.57    1.96
  -8  -9   5    7.82    1.97
  -8  -9   5    7.01    1.14
   8   9  -5    7.19    1.86
  -8   9   5    8.65    1.66
  -8   9   5    7.73    1.91
  -8  -9   7    9.77    2.09
  -8  -9   7   10.80    2.13
   8  -9  -7   13.17    2.63
  -8   9   7    5.59    1.24
  -8   9   7    9.70    2.10
   8   9  -7    7.44    1.94
   8  -9  -9    4.97    1.89
  -8  -9   9    4.05    1.60
  -8   9   9    3.13    1.44
  -8   9   9    4.42    0.89
   8   9  -9    6.87    1.86
   8  -9 -11   -0.18    1.21
  -8  -9  11    0.06    1.18
   8   9 -11    2.24    1.33
  -8   9  11    2.00    1.44
  -8  -9  13    3.14    1.73
   8  -9 -13    3.34    1.88
  -8   9  13    0.77    1.49
   8  -9 -15    1.02    1.63
  -8  -9  15    0.69    1.34
   8   9 -15   -1.49    1.07
  -8   9  15    1.44    1.50
   8 -10   8    1.81    1.65
  -8 -10  -8    0.55    1.39
   8 -10   8    1.66    1.23
  -8  10  -8   -1.00    1.24
   8  10   8   -0.18    1.20
   8 -10   6    5.58    1.70
   8 -10   6    0.25    1.15
  -8 -10  -6    1.85    1.34
  -8 -10  -6    0.63    1.49
  -8  10  -6    3.32    1.59
   8  10   6    1.44    1.28
  -8 -10  -4    3.95    1.78
  -8 -10  -4    6.68    1.81
   8 -10   4    4.67    1.68
   8 -10   4    2.79    1.35
  -8  10  -4    4.14    1.74
  -8  10  -4    2.29    1.55
   8 -10   2    2.91    1.58
   8 -10   2    2.12    1.35
  -8 -10  -2    1.12    1.09
  -8 -10  -2    1.72    1.40
  -8  10  -2    1.72    1.47
  -8 -10   0    3.19    1.19
  -8 -10   0    1.77    1.44
  -8  10   0    5.95    1.80
  -8 -10   2    0.71    0.77
  -8 -10   2   -0.58    0.77
  -8 -10   2    1.84    1.39
  -8  10   2   -0.27    1.04
   8  10  -2    1.22    1.14
  -8 -10   4   -0.66    0.97
  -8 -10   4    0.03    0.59
  -8 -10   4    0.10    1.10
   8 -10  -4   -0.02    1.11
  -8  10   4   -0.82    0.79
  -8  10   4    0.03    1.02
   8  10  -4    1.27    1.13
  -8 -10   6    1.05    0.56
  -8 -10   6    2.18    1.46
   8 -10  -6    1.82    1.47
  -8 -10   6    0.82    1.29
   8  10  -6    2.24    1.28
  -8  10   6    0.80    1.18
  -8  10   6    1.29    0.89
  -8 -10   8    0.98    1.17
   8 -10  -8    1.49    1.43
   8  10  -8    2.91    1.51
  -8  10   8   -1.29    0.82
  -8  10   8    3.48    1.05
  -8 -10  10    1.65    1.46
   8 -10 -10    2.98    1.57
  -8  10  10    1.30    1.35
   8  10 -10    0.73    1.15
  -8  10  10    4.69    0.83
   8 -10 -12   -0.13    1.63
  -8 -10  12    0.33    1.31
   8  10 -12    1.27    1.18
  -8 -10  14   -0.08    1.34
   8 -10 -14   -0.35    1.40
   8  10 -14    0.01    0.95
  -8 -11  -5    5.93    2.19
  -8 -11  -5    5.58    1.75
   8 -11   5    3.91    1.66
   8 -11   5    1.58    1.57
  -8  11  -5    1.04    1.29
  -8 -11  -3    0.55    1.03
  -8 -11  -3    0.74    1.26
   8 -11   3    0.14    1.30
  -8  11  -3    1.72    1.59
  -8 -11  -1    3.32    1.35
  -8 -11  -1    1.67    1.55
  -8  11  -1    3.82    1.75
  -8 -11   1    1.89    1.09
  -8 -11   1    0.65    1.18
  -8  11   1    0.59    1.37
  -8 -11   3    0.55    0.74
  -8 -11   3    0.42    1.48
   8  11  -3   -0.31    1.28
  -8  11   3    1.51    1.23
  -8 -11   5    0.79    0.64
  -8 -11   5   -0.63    0.98
  -8 -11   5    0.09    1.19
  -8  11   5   -1.17    0.81
   8  11  -5   -0.03    1.09
  -8 -11   7    7.24    2.22
   8 -11  -7    8.49    2.30
   8  11  -7    4.34    1.77
  -8  11   7    6.68    1.51
  -8 -11   9    2.11    1.74
   8 -11  -9    1.49    1.76
  -8  11   9    2.62    1.03
   8  11  -9    2.85    1.68
   8 -11 -11   -1.91    1.37
  -8 -11  11    1.16    1.47
   8  11 -11    3.32    1.78
  -8 -12  -2    3.20    1.79
  -8 -12  -2   -0.06    1.05
   8 -12   2    0.28    1.27
  -8 -12   0    2.75    1.84
  -8 -12   0    0.40    0.96
  -8  12   0    1.34    1.49
  -8 -12   2    0.72    1.39
  -8 -12   2    0.98    0.83
  -8  12   2   -0.64    1.14
  -8 -12   4   -0.13    0.69
  -8 -12   4    0.30    1.18
  -8  12   4    0.02    1.07
  -8 -12   6    0.68    0.58
  -8 -12   6    0.17    1.46
  -8  12   6    0.81    1.10
   8  12  -6    0.00    1.15
   9   0  15   -0.73    0.69
   9   0  15    0.07    1.29
   9   0  13    0.21    1.01
   9   0  13    0.90    0.96
   9   0  11   -0.15    1.05
  -9   0 -11    0.13    0.91
   9   0  11    0.23    0.81
   9   0   9   -0.03    0.70
   9   0   9    1.54    0.83
   9   0   9    0.56    1.25
   9   0   7   -0.14    0.70
   9   0   7    0.08    1.08
  -9   0  -7    0.78    0.71
   9   0   7    0.31    0.91
  -9   0  -7    0.60    0.93
  -9   0  -5    0.77    0.83
   9   0   5   -0.09    1.28
   9   0   5    0.03    0.78
  -9   0  -5    0.47    0.72
   9   0   5   -0.13    0.78
  -9   0  -3   -0.72    0.56
  -9   0  -3   -0.71    0.64
   9   0   3   -0.16    0.77
   9   0   3    0.27    0.76
   9   0   3    0.38    1.01
   9   0   3    0.43    0.74
  -9   0  -1    0.20    0.64
   9   0   1    0.33    0.73
   9   0   1   -0.65    0.46
   9   0   1    1.03    0.94
  -9   0  -1   -0.24    0.54
   9   0   1    0.01    0.57
   9   0  -1    1.16    0.89
   9   0  -1   -0.19    0.76
   9   0  -1    0.09    0.56
  -9   0   1   -0.61    0.50
  -9   0   1    0.79    0.58
   9   0  -1   -0.50    0.50
  -9   0   3   -0.08    0.58
  -9   0   3    0.28    0.41
   9   0  -3   -0.64    0.48
   9   0  -3   -0.31    0.68
  -9   0   3   -0.08    0.57
   9   0  -3   -0.36    0.77
  -9   0   5   -0.36    0.58
   9   0  -5   -0.01    0.63
  -9   0   5   -0.04    0.51
   9   0  -5   -0.12    0.71
   9   0  -5   -0.06    0.59
   9   0  -7    0.68    0.83
   9   0  -7    1.05    0.64
   9   0  -7   -0.90    0.50
  -9   0   7    0.08    0.63
  -9   0   9   -0.91    0.61
   9   0  -9    0.02    0.83
   9   0  -9   -0.96    0.45
   9   0  -9    0.25    0.76
  -9   0   9   -0.94    0.68
   9   0 -11   -0.23    0.74
  -9   0  11    1.39    0.83
   9   0 -11   -0.08    0.46
   9   0 -11    0.85    0.93
  -9   0  11    0.11    0.70
  -9   0  13   -1.29    0.54
  -9   0  13    0.93    0.94
   9   0 -13    0.36    0.78
   9   0 -13   -0.46    0.42
   9   0 -13   -0.15    0.79
   9   0 -13    1.56    0.99
   9   0 -15   -0.11    0.92
  -9   0  15    0.04    1.04
   9   0 -15    0.21    0.81
   9   0 -15   -0.15    0.40
  -9   0  15   -0.67    0.70
   9   0 -17    0.48    0.32
   9   0 -17    1.45    1.18
  -9   0  17   -0.52    0.98
   9   0 -19   -0.44    0.93
  -9   0  19   -1.11    0.96
   9  -1  14    5.59    1.94
   9  -1  14    4.84    1.29
   9   1  14    4.03    1.41
   9   1  14    3.93    1.29
  -9   1 -14    3.43    1.56
   9  -1  12    5.56    1.50
   9  -1  12    4.50    1.58
   9   1  12    5.13    1.68
   9   1  12    4.88    1.39
  -9   1 -12    7.41    1.74
   9  -1  10    3.95    1.71
   9  -1  10    4.25    1.42
   9   1  10    4.42    1.30
  -9   1 -10    5.43    1.50
   9   1  10    2.39    1.43
   9   1  10    4.91    1.09
   9  -1   8    9.26    2.09
   9  -1   8    8.28    1.66
  -9  -1  -8    9.56    1.83
  -9  -1  -8   11.15    1.88
   9  -1   8   11.41    1.65
   9   1   8    9.81    2.02
  -9   1  -8   12.00    1.86
   9   1   8    8.52    1.73
   9   1   8   12.60    1.82
  -9  -1  -6   30.20    2.91
  -9  -1  -6   27.34    2.80
   9  -1   6   27.85    2.35
   9  -1   6   27.11    2.85
   9  -1   6   28.59    3.44
  -9   1  -6   24.61    2.41
   9   1   6   24.71    2.98
  -9   1  -6   23.68    2.35
   9   1   6   27.25    2.35
  -9   1  -6   31.44    3.04
   9   1   6   23.79    2.65
   9  -1   4   25.53    2.59
   9  -1   4   21.81    2.33
   9  -1   4   28.57    3.27
  -9  -1  -4   23.18    2.51
   9  -1   4   22.45    2.69
  -9  -1  -4   23.03    2.50
   9   1   4   29.37    3.24
  -9   1  -4   24.44    2.21
  -9   1  -4   19.17    2.31
  -9   1  -4   27.34    2.58
   9   1   4   22.63    2.93
   9   1   4   24.35    2.62
   9  -1   2   26.68    2.61
   9  -1   2   23.94    2.44
   9  -1   2   21.24    2.84
   9  -1   2   21.34    2.76
  -9  -1  -2   23.58    2.30
  -9  -1  -2   22.34    2.46
   9  -1   2   25.09    2.69
   9   1   2   23.98    3.01
  -9   1  -2   24.03    1.82
  -9   1  -2   24.37    2.42
  -9   1  -2   21.46    2.23
   9   1   2   26.75    2.55
   9   1   2   24.80    2.81
  -9  -1   0   13.56    1.67
  -9  -1   0   10.39    1.63
   9  -1   0   11.57    1.79
  -9  -1   0   14.24    1.98
   9  -1   0   16.85    1.94
   9  -1   0   14.81    2.34
   9  -1   0   15.14    2.21
   9   1   0   16.26    2.24
   9   1   0   12.73    1.68
   9   1   0   11.30    2.09
   9   1   0   15.83    1.85
  -9   1   0   13.34    1.64
  -9   1   0   13.83    1.87
  -9  -1   2    9.45    1.48
   9  -1  -2   11.51    1.76
   9  -1  -2    8.96    1.71
   9  -1  -2   10.47    1.82
  -9  -1   2    9.52    1.67
  -9  -1   2   10.41    1.27
   9   1  -2   10.07    1.79
   9   1  -2   13.58    2.03
   9   1  -2   11.34    1.47
   9   1  -2   10.55    1.38
  -9   1   2    9.57    1.62
  -9   1   2   13.67    1.48
  -9  -1   4   56.68    2.18
   9  -1  -4   59.80    3.47
   9  -1  -4   55.55    3.42
  -9  -1   4   62.10    3.54
   9  -1  -4   56.26    3.43
  -9   1   4   55.87    3.42
   9   1  -4   53.84    3.41
   9   1  -4   58.79    3.08
   9   1  -4   54.50    3.39
  -9   1   4   59.37    2.33
  -9  -1   6   19.77    2.38
   9  -1  -6   22.56    2.50
   9  -1  -6   22.17    2.47
   9  -1  -6   24.54    2.06
  -9  -1   6   20.28    2.33
   9   1  -6   22.15    2.48
  -9   1   6   20.65    2.31
   9   1  -6   19.86    2.19
   9   1  -6   19.06    2.02
   9  -1  -8   30.79    2.49
  -9  -1   8   30.34    2.52
  -9  -1   8   27.86    2.90
   9  -1  -8   32.56    2.61
   9  -1  -8   31.69    2.31
   9   1  -8   26.79    2.20
   9   1  -8   24.38    2.68
  -9   1   8   30.69    2.55
   9   1  -8   31.43    2.27
   9  -1 -10   24.47    2.61
  -9  -1  10   22.06    2.63
   9  -1 -10   21.21    1.78
  -9  -1  10   18.59    2.37
   9  -1 -10   19.92    2.54
   9   1 -10   22.33    2.63
   9   1 -10   20.58    1.74
  -9   1  10   19.50    2.44
  -9   1  10   22.42    2.53
   9  -1 -12    6.73    1.08
   9  -1 -12    4.29    1.31
   9  -1 -12    5.29    1.44
  -9  -1  12    4.28    1.32
   9  -1 -12    4.52    1.43
  -9  -1  12    3.30    1.24
  -9   1  12    5.02    1.34
   9   1 -12    5.49    0.99
   9   1 -12    4.27    1.43
  -9   1  12    6.37    1.53
  -9  -1  14   16.42    2.41
   9  -1 -14   12.99    2.35
   9  -1 -14   12.90    2.06
  -9  -1  14   12.80    2.19
   9  -1 -14   14.40    1.51
  -9   1  14   10.57    2.02
   9   1 -14   16.70    2.46
  -9   1  14   14.92    2.17
   9   1 -14   15.64    1.24
  -9  -1  16   19.69    2.80
   9  -1 -16   16.33    2.61
  -9  -1  16   15.51    2.41
   9  -1 -16   15.74    1.25
   9   1 -16   14.17    2.38
   9   1 -16   11.65    2.20
  -9   1  16   12.32    2.37
   9  -1 -18   11.13    2.35
  -9  -1  18   10.68    2.31
  -9   1  18   18.08    3.02
   9   1 -18   14.27    2.46
   9  -1 -20    7.76    2.14
  -9   1  20    9.85    2.40
   9  -2  15    1.03    1.32
   9  -2  15    1.56    0.95
   9   2  15    1.94    1.11
  -9   2 -15    1.09    1.29
   9  -2  13    0.41    0.87
   9  -2  13    2.32    1.43
   9   2  13    0.87    0.94
  -9   2 -13   -0.76    0.82
   9  -2  11    4.40    1.38
   9  -2  11    3.91    1.64
   9   2  11    6.26    1.78
   9   2  11    3.17    1.33
  -9   2 -11    4.05    1.41
  -9  -2  -9    7.74    1.63
   9  -2   9    9.20    1.42
   9  -2   9    9.01    1.69
   9  -2   9    7.62    2.04
  -9   2  -9    9.10    1.79
   9   2   9    6.55    1.43
   9   2   9    5.34    1.57
   9   2   9    6.87    1.55
   9  -2   7    2.57    1.16
   9  -2   7    0.37    0.75
  -9  -2  -7    0.73    0.89
  -9  -2  -7    0.53    0.94
   9  -2   7    1.58    1.38
   9   2   7    1.17    1.04
   9   2   7    1.95    0.93
   9   2   7    0.33    1.15
  -9   2  -7    0.74    0.96
  -9   2  -7    1.82    1.14
  -9  -2  -5    3.59    1.21
   9  -2   5    3.79    1.31
   9  -2   5    4.44    1.21
   9  -2   5    4.32    1.59
  -9  -2  -5    3.29    1.26
  -9   2  -5    1.10    0.91
  -9   2  -5    3.14    0.99
  -9   2  -5    3.77    1.27
   9   2   5    2.85    1.46
   9   2   5    4.69    1.35
   9  -2   3    1.63    1.21
   9  -2   3    1.73    1.07
  -9  -2  -3    1.19    0.88
   9  -2   3    0.77    0.92
  -9  -2  -3    0.87    0.87
   9  -2   3    3.08    1.17
   9  -2   3    2.50    1.40
   9   2   3    3.68    1.36
  -9   2  -3    2.71    0.93
   9   2   3    2.42    1.13
  -9   2  -3    1.71    0.88
  -9   2  -3    2.63    1.01
   9   2   3    2.77    1.37
  -9  -2  -1   10.88    1.57
  -9  -2  -1   10.47    1.67
   9  -2   1   10.22    1.84
   9  -2   1   14.54    2.05
   9  -2   1   10.27    2.02
   9  -2   1   14.52    2.35
   9  -2   1   12.04    1.71
   9  -2   1   10.50    1.70
  -9   2  -1    7.87    1.42
   9   2   1   11.35    1.89
  -9   2  -1   12.06    1.57
   9   2   1    8.22    1.44
  -9   2  -1   11.79    1.63
  -9  -2   1   17.82    2.24
  -9  -2   1   21.23    1.65
   9  -2  -1   17.07    2.28
   9  -2  -1   16.24    2.29
   9  -2  -1   23.70    2.76
   9   2  -1   20.00    2.56
   9   2  -1   19.71    1.73
  -9   2   1   24.41    2.46
   9   2  -1   17.23    1.56
  -9   2   1   20.00    1.99
   9   2  -1   17.80    2.33
  -9  -2   3   22.96    1.47
  -9  -2   3   19.79    2.40
   9  -2  -3   20.87    2.53
   9  -2  -3   22.70    2.53
   9  -2  -3   20.65    2.42
  -9   2   3   26.74    2.59
   9   2  -3   24.10    2.64
  -9   2   3   21.90    1.54
   9   2  -3   18.76    2.33
   9  -2  -5    0.90    0.81
   9  -2  -5    0.86    0.77
  -9  -2   5    0.92    0.80
   9  -2  -5   -0.24    0.73
  -9  -2   5    0.45    0.70
  -9   2   5    1.38    0.41
   9   2  -5    0.85    0.87
  -9   2   5    0.00    0.67
   9   2  -5    1.11    0.80
   9  -2  -7   -0.13    0.60
   9  -2  -7   -1.81    0.59
  -9  -2   7    1.14    0.86
   9  -2  -7    0.59    0.94
  -9  -2   7    1.46    0.81
   9   2  -7    0.71    0.66
  -9   2   7    1.05    0.91
   9   2  -7    0.91    0.90
   9  -2  -9    8.29    1.83
  -9  -2   9    3.57    1.17
  -9  -2   9    2.90    1.15
   9  -2  -9    7.18    1.31
   9  -2  -9    9.92    1.75
   9   2  -9    5.38    1.42
  -9   2   9    8.67    1.70
   9   2  -9    7.40    1.29
  -9  -2  11   17.32    2.40
   9  -2 -11   25.86    3.00
  -9  -2  11   24.54    2.77
   9  -2 -11   22.47    1.88
   9  -2 -11   21.72    2.37
   9   2 -11   21.09    1.74
  -9   2  11   17.05    2.43
   9   2 -11   17.82    2.53
  -9  -2  13   15.75    2.36
  -9  -2  13   14.92    2.28
   9  -2 -13   11.07    2.09
   9   2 -13    8.74    1.82
   9   2 -13   11.61    1.35
  -9   2  13   11.32    2.12
  -9  -2  15    5.55    1.54
   9  -2 -15    2.07    1.22
  -9  -2  15    4.66    1.49
   9   2 -15    2.64    0.64
  -9   2  15    1.34    1.12
   9   2 -15    3.31    1.32
   9  -2 -17   -0.55    0.96
  -9  -2  17    1.04    1.19
  -9  -2  17    0.58    1.04
   9   2 -17    0.08    0.93
   9   2 -17    0.51    1.04
  -9   2  17   -0.61    0.91
   9  -2 -19    1.65    1.27
  -9  -2  19    1.22    1.04
   9   2 -19    2.61    1.41
  -9   2  19    1.17    1.23
   9  -2 -21    1.03    1.33
  -9   2  21    1.96    1.42
   9  -3  14    5.67    1.38
   9  -3  14    7.22    2.07
   9   3  14    6.19    1.67
  -9   3 -14    3.73    1.58
   9  -3  12    7.75    1.75
   9  -3  12    7.51    2.23
   9   3  12    8.26    1.79
  -9   3 -12    6.92    1.78
   9  -3  10    8.72    1.80
  -9  -3 -10   11.12    2.04
   9  -3  10   14.26    2.63
   9   3  10   12.18    2.10
  -9   3 -10    9.99    1.96
   9   3  10    7.47    1.89
   9  -3   8   26.33    3.47
   9  -3   8   31.40    3.16
  -9  -3  -8   27.69    3.01
   9  -3   8   21.71    2.26
  -9  -3  -8   24.06    2.89
   9   3   8   30.94    3.22
  -9   3  -8   24.81    2.79
   9  -3   6    4.33    1.22
   9  -3   6    5.51    1.39
  -9  -3  -6    2.44    1.18
  -9  -3  -6    3.40    1.24
   9  -3   6    3.59    1.54
   9   3   6    1.92    1.33
  -9   3  -6    3.11    1.30
   9   3   6    6.93    1.57
  -9   3  -6    4.50    1.39
  -9  -3  -4   11.39    1.96
   9  -3   4   11.87    2.25
   9  -3   4    9.38    1.70
  -9  -3  -4   11.26    1.82
   9  -3   4    8.22    1.58
   9   3   4    9.97    1.93
   9   3   4   13.40    2.08
  -9   3  -4    6.63    1.50
  -9   3  -4    8.47    1.61
   9  -3   2   19.38    2.31
  -9  -3  -2   17.25    2.04
   9  -3   2   12.15    2.28
   9  -3   2   17.31    2.14
   9  -3   2   18.42    2.58
  -9  -3  -2   16.88    2.33
   9   3   2   16.33    2.60
   9   3   2   18.90    2.49
  -9   3  -2   18.30    2.09
  -9   3  -2   15.58    2.02
  -9   3  -2   21.23    2.36
   9  -3   0   18.17    2.03
   9  -3   0   18.91    2.53
   9  -3   0   22.98    2.33
  -9  -3   0   16.79    1.85
  -9  -3   0   20.89    2.50
   9  -3   0   22.39    2.75
  -9   3   0   25.29    2.43
   9   3   0   21.23    1.92
  -9   3   0   19.99    2.07
  -9   3   0   19.51    2.19
   9   3   0   19.58    2.68
   9   3   0   18.62    2.42
  -9  -3   2   68.88    3.92
   9  -3  -2   72.77    4.30
   9  -3  -2   65.27    3.87
   9  -3  -2   63.04    3.51
   9  -3  -2   70.70    4.22
  -9  -3   2   67.28    3.01
   9   3  -2   63.82    3.84
   9   3  -2   73.40    3.51
  -9   3   2   67.98    3.71
   9   3  -2   65.09    4.12
  -9   3   2   69.83    3.22
   9  -3  -4   16.65    2.35
   9  -3  -4   16.68    2.20
  -9  -3   4   17.65    1.16
  -9  -3   4   13.95    2.11
   9  -3  -4   17.37    2.27
  -9  -3   4   15.36    2.16
  -9   3   4   17.27    1.57
   9   3  -4   18.81    2.39
   9   3  -4   16.58    2.26
  -9   3   4   14.16    1.93
  -9  -3   6   22.71    2.66
  -9  -3   6   25.56    2.80
   9  -3  -6   23.37    2.89
   9  -3  -6   26.63    2.79
   9  -3  -6   29.99    2.46
  -9   3   6   28.78    2.85
  -9   3   6   28.14    1.07
  -9   3   6   26.57    1.04
   9   3  -6   30.04    2.46
   9   3  -6   26.29    2.90
  -9  -3   8   11.94    2.05
   9  -3  -8   16.93    2.43
   9  -3  -8    9.58    1.80
  -9  -3   8   15.10    2.26
   9  -3  -8   14.48    1.99
   9  -3  -8   13.91    1.96
   9   3  -8   17.18    2.11
  -9   3   8   16.86    2.31
   9   3  -8   17.74    2.43
  -9  -3  10   17.80    2.39
   9  -3 -10   19.69    2.64
   9  -3 -10   14.97    2.00
  -9  -3  10   21.28    2.71
   9   3 -10   15.63    2.40
  -9   3  10   18.16    2.57
   9   3 -10   17.12    1.96
  -9  -3  12    5.18    1.48
   9  -3 -12    4.94    1.59
  -9  -3  12    6.25    1.54
   9   3 -12    5.68    1.13
  -9   3  12    4.02    1.53
   9   3 -12    5.73    1.63
   9  -3 -14   19.85    2.99
  -9  -3  14   17.00    2.65
  -9  -3  14   13.47    2.28
  -9   3  14   15.09    2.58
   9   3 -14   19.10    2.79
   9   3 -14   15.89    1.64
  -9  -3  16   16.06    2.55
  -9  -3  16   21.72    2.86
   9  -3 -16   20.50    3.08
  -9   3  16   18.73    2.91
   9   3 -16    9.67    2.10
  -9  -3  18    3.62    1.53
   9  -3 -18    3.44    1.62
   9   3 -18    4.30    1.69
  -9   3  18    4.91    1.93
  -9  -3  20    3.82    1.67
   9  -3 -20    0.77    1.40
  -9   3  20    1.37    1.50
   9   3 -20    1.58    1.36
   9  -4  13    1.76    1.05
   9  -4  13    2.47    1.65
   9   4  13    1.70    1.14
  -9   4 -13    1.87    1.34
   9  -4  11    6.76    2.17
  -9  -4 -11    6.00    1.78
   9   4  11    6.10    1.64
  -9   4 -11    6.80    1.99
   9  -4   9    0.21    1.22
   9  -4   9    2.42    1.22
  -9  -4  -9    2.20    1.16
   9  -4   9    0.27    0.72
   9   4   9    0.89    1.19
  -9   4  -9    0.95    1.12
   9   4   9    2.27    1.16
  -9  -4  -7   13.07    2.20
   9  -4   7   13.12    2.07
  -9  -4  -7   14.61    2.30
   9  -4   7   12.94    2.59
   9   4   7   11.51    2.08
  -9   4  -7   12.41    2.12
  -9   4  -7   14.46    2.25
   9  -4   5    3.93    1.35
  -9  -4  -5    3.51    1.19
  -9  -4  -5    6.14    1.60
   9  -4   5    2.43    1.43
   9  -4   5    2.96    1.08
   9   4   5    5.06    1.40
   9   4   5    4.27    1.45
  -9   4  -5    5.25    1.40
  -9   4  -5    3.30    1.34
   9  -4   3    6.19    1.79
  -9  -4  -3    1.69    0.98
   9  -4   3    2.17    1.15
   9  -4   3    4.05    1.27
  -9  -4  -3    3.78    1.29
   9   4   3    2.66    1.38
   9   4   3    5.27    1.54
  -9   4  -3    2.45    1.15
  -9   4  -3    2.77    1.22
   9   4   3    3.70    1.21
   9  -4   1    6.48    1.49
   9  -4   1   12.06    2.23
  -9  -4  -1   11.13    1.92
   9  -4   1    8.14    2.03
   9  -4   1    9.36    1.82
  -9  -4  -1    8.19    1.48
  -9   4  -1    9.45    1.55
  -9   4  -1    9.25    1.60
   9   4   1    8.75    1.91
   9   4   1    6.07    1.54
  -9   4  -1   10.50    1.76
  -9  -4   1   23.93    2.76
   9  -4  -1   22.07    2.41
   9  -4  -1   32.37    3.28
  -9  -4   1   26.09    1.96
   9  -4  -1   19.82    2.76
  -9   4   1   29.82    2.17
  -9   4   1   22.19    2.32
   9   4  -1   25.32    3.07
   9   4  -1   27.70    2.94
   9   4  -1   23.17    2.06
   9  -4  -3    4.20    1.20
  -9  -4   3    1.42    1.03
  -9  -4   3    3.52    0.80
   9  -4  -3    4.28    1.43
   9  -4  -3    6.47    1.53
  -9  -4   3    1.90    1.05
   9   4  -3    4.19    1.37
  -9   4   3    3.24    0.87
  -9   4   3    3.31    1.12
   9   4  -3    6.38    1.59
  -9  -4   5    6.24    1.59
   9  -4  -5    6.54    1.55
   9  -4  -5    4.76    1.33
  -9  -4   5    7.23    1.60
   9  -4  -5    6.11    1.49
   9   4  -5    6.79    1.61
   9   4  -5    7.24    1.61
  -9   4   5    6.26    1.43
  -9   4   5    7.82    1.03
  -9  -4   7    1.26    0.95
   9  -4  -7    0.01    0.91
  -9  -4   7   -0.89    0.68
   9  -4  -7   -0.05    0.93
   9  -4  -7   -0.12    0.70
   9   4  -7    0.10    0.72
  -9   4   7   -0.70    0.77
   9   4  -7    1.01    1.00
   9  -4  -9    5.67    1.59
  -9  -4   9    3.81    1.34
  -9  -4   9    4.34    1.31
   9   4  -9    2.42    1.15
  -9   4   9    3.34    1.27
   9   4  -9    4.07    1.17
  -9  -4  11    6.36    1.58
  -9  -4  11    2.77    1.26
   9  -4 -11    9.42    2.01
  -9   4  11    5.03    1.58
   9   4 -11    4.53    1.46
   9   4 -11    4.98    1.16
  -9  -4  13    7.98    1.90
  -9  -4  13    8.18    1.77
   9  -4 -13    7.37    2.03
   9   4 -13    6.31    1.89
  -9   4  13    9.56    2.15
  -9  -4  15    2.86    1.36
  -9  -4  15    1.24    1.12
   9  -4 -15    1.47    1.43
  -9   4  15    1.61    1.36
   9   4 -15    1.52    1.34
   9  -4 -17    6.58    2.19
  -9  -4  17    4.57    1.70
  -9   4  17    4.51    1.79
   9   4 -17    2.15    1.42
  -9  -4  19    0.66    1.18
   9  -4 -19   -0.80    0.83
  -9   4  19    3.41    1.54
   9   4 -19   -0.59    1.06
   9  -5  14   -1.50    1.15
   9  -5  14    1.44    1.02
  -9   5 -14   -0.39    1.19
   9   5  14   -0.61    0.96
   9  -5  12    3.32    1.29
  -9  -5 -12    0.86    1.21
   9  -5  12    3.16    1.70
   9   5  12    4.15    1.46
  -9   5 -12    2.71    1.42
   9  -5  10   10.49    2.46
   9  -5  10    6.60    1.65
  -9  -5 -10    8.59    2.04
   9   5  10    5.89    1.61
  -9   5 -10    6.50    1.85
  -9  -5  -8   12.64    2.30
  -9  -5  -8   11.21    2.09
   9  -5   8   11.58    2.58
   9  -5   8   14.99    2.30
  -9   5  -8   14.73    2.41
   9   5   8   14.96    2.38
   9  -5   6    6.30    1.95
  -9  -5  -6    4.41    1.48
   9  -5   6    5.86    1.54
  -9  -5  -6    5.17    1.64
  -9   5  -6    5.95    1.67
   9   5   6    3.78    1.40
  -9   5  -6    5.21    1.51
   9   5   6    6.85    1.62
   9  -5   4    0.72    0.92
  -9  -5  -4   -0.21    0.86
   9  -5   4   -0.75    0.77
   9  -5   4    1.56    1.17
  -9  -5  -4    0.14    0.84
   9   5   4   -0.27    0.78
  -9   5  -4   -0.28    0.73
  -9   5  -4   -1.01    0.65
   9   5   4    0.12    0.94
   9  -5   2    0.68    0.92
   9  -5   2    0.33    1.02
   9  -5   2    0.39    0.86
  -9  -5  -2    0.91    0.86
  -9  -5  -2    0.18    0.88
   9   5   2    0.50    1.09
  -9   5  -2    0.33    0.80
   9   5   2   -1.27    0.80
  -9   5  -2    0.88    0.90
   9  -5   0   36.73    3.33
  -9  -5   0   31.98    2.39
   9  -5   0   37.55    3.74
  -9  -5   0   41.40    3.87
   9  -5   0   38.49    2.93
   9  -5   0   36.03    2.67
   9   5   0   41.65    3.49
  -9   5   0   35.54    2.83
  -9   5   0   36.26    2.67
   9   5   0   32.54    3.29
  -9   5   0   35.00    2.55
  -9  -5   2    4.04    1.37
   9  -5  -2    6.04    1.54
   9  -5  -2    2.29    1.27
   9  -5  -2    4.00    1.37
  -9  -5   2    5.57    1.60
   9  -5  -2    7.38    1.46
  -9  -5   2    5.40    1.08
   9   5  -2    3.73    1.33
   9   5  -2    3.37    1.33
  -9   5   2    6.36    1.29
  -9   5   2    5.73    1.38
  -9  -5   4   33.60    1.83
  -9  -5   4   38.49    3.06
  -9  -5   4   30.49    3.14
   9  -5  -4   35.85    2.65
   9  -5  -4   34.98    2.87
   9  -5  -4   32.35    3.14
   9  -5  -4   22.79    2.86
   9   5  -4   29.56    3.29
   9   5  -4   31.63    3.37
  -9   5   4   33.75    2.14
  -9   5   4   32.90    3.12
   9  -5  -6    5.07    1.41
  -9  -5   6    8.30    1.85
   9  -5  -6    7.02    1.65
  -9  -5   6    5.55    1.49
  -9   5   6    6.43    1.55
   9   5  -6    9.51    1.92
   9   5  -6    8.21    1.66
  -9   5   6   10.39    1.16
   9  -5  -8    6.50    1.56
  -9  -5   8    8.27    1.79
  -9  -5   8    6.05    1.56
   9   5  -8    8.32    1.83
  -9   5   8   11.41    2.06
   9   5  -8    8.35    1.69
  -9  -5  10    8.51    1.98
   9  -5 -10    4.48    1.54
  -9  -5  10    8.62    1.79
  -9   5  10    4.87    1.59
   9   5 -10    4.78    1.61
  -9  -5  12   12.04    2.32
   9  -5 -12   12.93    2.48
  -9  -5  12   14.29    2.24
   9   5 -12   11.43    2.31
  -9   5  12    7.93    2.01
  -9  -5  14   21.38    2.68
   9  -5 -14   16.73    2.88
  -9  -5  14   20.49    3.08
  -9   5  14   14.66    2.76
   9   5 -14   14.58    2.75
   9  -5 -16    5.84    2.08
  -9  -5  16    7.60    2.12
  -9   5  16    5.78    1.91
   9   5 -16    4.47    1.76
   9  -5 -18    2.61    1.72
  -9  -5  18    4.27    1.65
  -9   5  18    5.27    1.86
   9   5 -18    2.67    1.51
   9  -6  13   -0.36    1.04
   9  -6  13    0.22    0.86
  -9  -6 -13    0.66    1.33
   9   6  13    0.60    1.23
  -9   6 -13    0.38    1.34
   9  -6  11    1.91    1.43
  -9  -6 -11    0.56    1.27
   9  -6  11    0.26    1.06
   9   6  11    2.38    1.32
  -9   6 -11    2.56    1.41
   9  -6   9    4.57    2.03
   9  -6   9    4.27    1.41
  -9  -6  -9    4.66    1.78
  -9   6  -9    5.49    1.81
   9   6   9    5.56    1.70
  -9  -6  -7    0.55    1.10
  -9  -6  -7    1.72    1.28
   9  -6   7    2.30    1.34
   9  -6   7    2.30    1.66
  -9   6  -7    2.57    1.42
   9   6   7    1.02    1.12
  -9  -6  -5    6.79    1.70
   9  -6   5    9.61    1.94
  -9  -6  -5    9.30    2.10
   9  -6   5   10.54    2.25
   9   6   5    6.75    1.65
  -9   6  -5    7.90    1.81
   9   6   5    4.20    1.32
  -9   6  -5    8.04    1.90
   9  -6   3    2.37    1.42
   9  -6   3    6.28    1.60
  -9  -6  -3    6.38    1.77
  -9  -6  -3    6.92    1.53
   9   6   3    6.23    1.54
  -9   6  -3    3.93    1.36
  -9   6  -3    6.92    1.80
  -9  -6  -1    3.07    1.09
  -9  -6  -1    3.68    1.45
   9  -6   1    6.91    1.85
   9  -6   1    4.63    1.42
  -9   6  -1    3.96    1.42
   9   6   1    4.32    1.42
  -9   6  -1    3.88    1.37
   9   6   1    5.80    1.84
   9  -6  -1    6.68    1.77
   9  -6  -1    6.14    1.42
   9  -6  -1    3.76    1.40
  -9  -6   1    6.15    1.60
  -9  -6   1    3.18    1.32
  -9  -6   1    2.44    0.94
   9  -6  -1    6.81    1.60
   9   6  -1    5.80    1.59
   9   6  -1    5.88    1.72
  -9   6   1    4.89    1.30
  -9   6   1    4.49    1.26
   9  -6  -3   10.96    2.10
  -9  -6   3   17.58    2.63
  -9  -6   3   15.45    1.71
   9  -6  -3   19.36    2.38
   9  -6  -3   18.10    2.34
   9  -6  -3   15.55    2.28
  -9  -6   3   14.82    2.41
   9   6  -3   15.40    2.51
  -9   6   3   16.46    2.25
  -9   6   3   17.00    1.94
   9   6  -3   21.45    2.94
  -9  -6   5    0.22    0.36
  -9  -6   5    0.90    1.00
   9  -6  -5   -0.18    0.91
   9  -6  -5    1.56    1.16
  -9  -6   5    0.39    0.88
  -9   6   5    0.59    0.60
   9   6  -5   -0.41    0.90
  -9   6   5    0.80    0.94
   9   6  -5    1.36    1.18
   9  -6  -7   10.96    2.08
  -9  -6   7   12.45    2.22
  -9  -6   7    7.72    1.80
   9   6  -7   10.10    1.93
   9   6  -7    8.34    1.92
  -9   6   7    7.20    0.97
  -9   6   7    9.70    1.99
  -9  -6   9    3.94    1.50
  -9  -6   9    6.41    1.65
   9  -6  -9    3.35    1.52
   9   6  -9    5.06    1.56
  -9   6   9    4.46    1.55
   9  -6 -11    7.17    1.98
  -9  -6  11   10.20    2.22
  -9  -6  11    8.65    1.88
  -9   6  11    6.45    1.83
   9   6 -11    6.06    1.87
   9  -6 -13    4.55    1.70
  -9  -6  13    1.84    1.37
   9   6 -13    1.86    1.32
  -9   6  13    3.78    1.75
  -9  -6  15    4.08    1.64
   9  -6 -15    0.86    1.39
   9   6 -15    2.16    1.44
  -9   6  15    1.12    1.37
  -9  -6  17    0.87    1.25
   9  -6 -17    4.14    2.08
  -9   6  17    4.24    1.72
   9   6 -17    3.69    1.65
  -9  -6  19   -0.41    1.07
   9  -6 -19    0.17    1.59
  -9   6  19   -1.05    1.21
   9   6 -19    0.07    1.14
  -9  -7 -12    1.82    1.43
   9  -7  12    1.13    1.48
   9  -7  12   -0.80    0.86
   9   7  12   -1.04    1.01
  -9   7 -12   -0.22    1.17
   9  -7  10    1.27    1.08
   9  -7  10    1.00    1.30
  -9  -7 -10    3.60    1.76
  -9   7 -10    4.24    1.66
   9   7  10    1.51    1.17
  -9  -7  -8    7.36    2.14
  -9  -7  -8    5.85    1.72
   9  -7   8    5.73    1.70
   9  -7   8    5.57    1.96
  -9   7  -8    3.81    1.72
   9   7   8    5.41    1.70
  -9  -7  -6    2.84    1.37
  -9  -7  -6    3.18    1.52
   9  -7   6    4.58    1.52
   9  -7   6    3.14    1.56
  -9   7  -6    5.98    1.94
   9   7   6    8.32    1.90
   9  -7   4    1.48    1.21
  -9  -7  -4    4.62    1.76
   9  -7   4    6.42    1.92
  -9  -7  -4    6.35    1.66
  -9   7  -4    6.40    1.90
   9   7   4    3.38    1.25
  -9   7  -4    3.57    1.46
  -9  -7  -2    7.33    1.85
   9  -7   2    9.94    2.00
   9  -7   2    7.83    1.93
  -9  -7  -2    8.41    1.65
  -9   7  -2    7.33    1.90
  -9   7  -2   11.02    2.02
   9   7   2    8.27    1.78
  -9  -7   0    9.06    2.07
  -9  -7   0    6.37    1.36
   9  -7   0   10.01    2.05
   9   7   0    3.97    1.39
   9   7   0    1.96    1.10
  -9   7   0    3.91    1.35
  -9  -7   2   15.52    1.90
  -9  -7   2   18.05    2.67
  -9  -7   2   15.53    2.48
   9  -7  -2   15.27    2.29
   9  -7  -2    9.85    2.14
   9  -7  -2   10.23    2.07
   9  -7  -2   11.95    2.03
  -9   7   2   12.62    1.91
   9   7  -2   12.27    2.48
   9   7  -2   12.21    2.08
  -9   7   2   17.90    2.39
   9  -7  -4    3.39    1.30
   9  -7  -4    2.42    1.24
  -9  -7   4    0.58    0.95
  -9  -7   4    2.39    1.23
  -9  -7   4    0.50    0.57
  -9   7   4    0.91    0.71
   9   7  -4    1.04    1.01
  -9   7   4    1.16    1.02
  -9  -7   6    9.73    2.07
   9  -7  -6    6.98    1.69
  -9  -7   6    8.73    1.96
  -9   7   6    6.03    1.64
  -9   7   6    7.54    1.20
   9   7  -6    5.58    1.62
  -9  -7   8    4.47    1.59
  -9  -7   8    8.69    1.95
   9  -7  -8    8.90    2.05
  -9   7   8    8.00    1.99
  -9   7   8    7.38    0.90
   9   7  -8    4.68    1.55
   9  -7 -10    1.63    1.30
  -9  -7  10    4.39    1.53
  -9  -7  10    1.75    1.27
   9   7 -10    0.41    1.04
  -9   7  10    2.91    1.44
   9  -7 -12    3.63    1.57
  -9  -7  12    1.55    1.19
   9   7 -12    0.74    1.20
  -9   7  12    2.28    1.40
  -9  -7  14    5.07    1.78
   9  -7 -14    6.47    2.25
  -9   7  14    4.25    1.70
   9   7 -14    2.41    1.57
  -9  -7  16    0.07    1.01
   9  -7 -16   -0.58    1.21
  -9   7  16    0.77    1.32
   9   7 -16   -0.14    1.09
  -9  -7  18    1.56    1.59
  -9   7  18    2.02    1.60
   9   7 -18    3.74    1.78
   9  -8  11    2.35    1.83
  -9  -8 -11    0.67    1.34
  -9   8 -11    1.00    1.48
   9   8  11    0.56    1.16
  -9  -8  -9    0.12    1.21
   9  -8   9    5.55    2.08
   9  -8   9    1.13    1.16
  -9   8  -9    1.56    1.37
   9   8   9    0.87    1.21
  -9  -8  -7    2.63    1.29
  -9  -8  -7    5.29    1.81
   9  -8   7    4.00    1.81
   9  -8   7    3.64    1.51
   9   8   7    4.17    1.60
  -9   8  -7    0.45    1.11
   9  -8   5   10.17    2.11
  -9  -8  -5   12.86    2.55
   9  -8   5    8.96    2.22
  -9  -8  -5    7.86    1.93
  -9   8  -5    7.00    2.03
  -9   8  -5   10.91    2.26
  -9  -8  -3    8.70    1.79
   9  -8   3   11.34    2.53
  -9  -8  -3    7.85    2.09
   9  -8   3   10.17    2.08
  -9   8  -3    8.84    2.06
  -9   8  -3   12.82    2.47
  -9  -8  -1    9.85    1.77
  -9  -8  -1   10.29    2.30
   9  -8   1   15.66    2.61
   9   8   1    8.26    1.63
  -9   8  -1    9.07    1.87
  -9  -8   1   12.80    2.39
  -9  -8   1   12.42    2.39
   9  -8  -1   15.88    2.52
  -9  -8   1   15.48    2.04
  -9   8   1   10.86    1.96
   9   8  -1   13.50    2.15
  -9  -8   3    1.15    1.23
  -9  -8   3   -0.29    0.57
  -9  -8   3   -0.70    0.84
   9  -8  -3    0.48    1.07
  -9   8   3    0.82    0.91
   9   8  -3    1.40    1.20
  -9   8   3   -1.35    0.87
  -9  -8   5    2.92    0.74
   9  -8  -5    2.06    1.25
  -9  -8   5    0.90    1.24
  -9  -8   5    1.52    1.25
   9  -8  -5    1.25    1.20
   9   8  -5    1.88    1.28
  -9   8   5    3.05    1.06
  -9   8   5    1.60    1.17
   9  -8  -7   11.35    2.26
  -9  -8   7   15.72    2.66
  -9  -8   7   13.40    2.35
   9   8  -7   13.23    2.61
  -9   8   7   10.67    1.44
  -9   8   7   13.08    2.39
  -9  -8   9   11.41    2.22
  -9  -8   9   11.41    2.34
   9  -8  -9    8.53    2.18
  -9   8   9   12.06    2.32
   9   8  -9   10.04    2.27
  -9   8   9   10.08    0.90
   9  -8 -11    3.98    1.86
  -9  -8  11    7.97    2.08
  -9   8  11    5.34    1.88
   9   8 -11    5.31    1.86
  -9  -8  13    0.96    1.30
   9  -8 -13    0.67    1.34
  -9   8  13   -0.08    1.23
   9   8 -13    1.35    1.18
   9  -8 -15    1.01    1.52
  -9  -8  15   -0.30    1.14
  -9   8  15    1.71    1.66
   9   8 -15    5.48    2.06
  -9  -9  -8    2.23    1.73
   9  -9   8    0.41    1.11
   9  -9   8    2.10    1.59
   9   9   8   -1.23    1.10
  -9   9  -8    1.77    1.44
  -9  -9  -6    2.41    1.63
   9  -9   6    1.71    1.29
   9  -9   6    3.58    1.88
  -9  -9  -6    2.40    1.48
  -9   9  -6    3.95    1.80
   9   9   6    4.16    1.73
   9  -9   4    8.27    2.11
  -9  -9  -4   12.98    2.33
   9  -9   4    6.16    2.03
  -9  -9  -4    6.05    2.05
  -9   9  -4    7.16    2.05
  -9   9  -4    9.98    2.19
  -9  -9  -2    5.39    2.00
   9  -9   2    2.63    1.60
  -9  -9  -2    5.40    1.50
  -9   9  -2    3.57    1.46
  -9  -9   0    7.40    2.10
   9  -9   0    5.04    1.73
  -9  -9   0    5.28    1.42
  -9  -9   0    5.68    1.85
  -9   9   0   12.17    2.17
   9   9   0    2.55    1.20
  -9  -9   2    0.76    1.24
  -9  -9   2    2.29    1.18
  -9  -9   2    3.47    1.06
  -9   9   2    1.13    1.02
   9   9  -2    3.06    1.35
  -9  -9   4    1.51    1.33
  -9  -9   4    0.69    1.18
   9  -9  -4   -0.77    1.04
  -9  -9   4    1.58    0.73
   9   9  -4    0.67    1.16
  -9   9   4   -0.95    0.77
  -9   9   4    1.42    0.96
   9  -9  -6    9.81    2.29
  -9  -9   6    6.62    0.70
  -9  -9   6    6.28    1.92
  -9  -9   6    6.08    1.75
  -9   9   6    8.72    2.10
  -9   9   6    4.94    1.22
   9   9  -6    6.43    1.91
  -9  -9   8    5.05    1.89
   9  -9  -8    3.05    1.70
  -9  -9   8    4.65    1.73
   9   9  -8    4.72    1.80
  -9   9   8    5.28    1.07
  -9   9   8    4.64    1.81
  -9  -9  10    4.55    1.70
   9  -9 -10    2.98    1.71
   9   9 -10    2.87    1.43
  -9   9  10    3.14    1.70
  -9  -9  12   -0.23    1.27
   9  -9 -12    1.61    1.61
   9   9 -12    0.47    1.18
  -9   9  12    2.98    1.69
  -9  -9  14    0.29    1.08
   9  -9 -14   -1.38    1.29
  -9   9  14    0.81    1.55
   9   9 -14   -0.20    1.14
   9 -10   7    1.02    1.44
  -9 -10  -7    2.26    1.43
  -9 -10  -7    2.14    1.68
   9 -10   7    2.81    1.67
   9  10   7    2.84    1.67
  -9  10  -7    0.14    1.44
  -9 -10  -5    4.40    1.63
   9 -10   5    2.10    1.39
   9 -10   5    5.05    1.94
  -9 -10  -5    5.38    2.02
  -9  10  -5    5.64    2.04
   9 -10   3    2.88    1.43
   9 -10   3    3.06    1.53
  -9 -10  -3    1.83    1.57
  -9 -10  -3    3.79    1.49
  -9  10  -3    5.66    1.83
  -9 -10  -1    2.44    1.55
  -9 -10  -1   -0.02    0.88
  -9  10  -1    4.80    1.73
  -9 -10   1    4.22    1.75
  -9 -10   1    4.72    1.31
  -9 -10   1    0.92    1.40
  -9  10   1    2.17    1.25
   9  10  -1    2.10    1.23
  -9 -10   3    4.90    1.71
  -9 -10   3    1.46    0.86
  -9 -10   3    0.26    1.41
  -9  10   3    0.72    1.02
   9  10  -3    3.36    1.54
  -9 -10   5    2.30    1.67
  -9 -10   5    4.69    1.76
  -9 -10   5    3.24    0.80
   9 -10  -5    3.25    1.60
  -9  10   5    1.48    1.00
   9  10  -5    2.40    1.63
   9 -10  -7    3.83    1.79
  -9 -10   7    3.65    1.65
  -9 -10   7    4.95    1.74
  -9  10   7    5.35    1.85
  -9  10   7    6.14    1.41
   9  10  -7    4.64    1.69
  -9 -10   9    5.88    2.14
   9 -10  -9    6.11    2.02
  -9  10   9    6.15    2.00
   9  10  -9    3.84    1.81
  -9  10   9    2.74    0.80
   9 -10 -11   -0.19    1.44
  -9 -10  11    2.28    1.47
  -9  10  11    1.02    1.48
   9  10 -11    1.30    1.49
  -9 -10  13    2.22    1.60
   9  10 -13    0.63    1.24
   9 -11   4    2.41    1.59
  -9 -11  -4    1.93    1.59
   9 -11   4    1.97    1.36
  -9 -11  -4    0.70    1.17
  -9 -11  -2    0.75    1.09
  -9 -11  -2    0.17    1.37
  -9  11  -2    0.74    1.45
  -9 -11   0    0.99    1.03
  -9 -11   0    3.23    1.69
  -9  11   0    2.31    1.57
  -9 -11   2    2.87    1.63
  -9 -11   2    4.14    1.15
  -9  11   2    0.90    1.21
  -9 -11   4    0.38    1.18
  -9 -11   4    0.46    0.68
  -9 -11   4    0.56    1.36
  -9  11   4   -0.71    0.87
   9  11  -4   -1.04    1.09
  -9 -11   6    0.94    1.43
   9 -11  -6   -1.44    1.29
  -9 -11   6   -0.09    1.19
  -9  11   6    0.69    0.87
   9  11  -6    0.56    1.07
   9 -11  -8    0.97    1.72
  -9 -11   8    1.62    1.58
   9  11  -8    0.01    1.13
  -9  11   8    1.99    0.93
   9  11 -10    0.88    1.20
  10   0  14   -0.42    0.85
  10   0  14    0.68    1.24
  10   0  12    3.86    1.74
  10   0  12    5.08    1.45
  10   0  10    1.34    1.09
  10   0  10    2.23    1.41
  10   0   8   22.02    2.70
  10   0   8   22.86    3.23
 -10   0  -8   15.39    2.38
  10   0   6    7.88    1.76
  10   0   6    9.85    2.19
 -10   0  -6    8.17    1.67
 -10   0  -6    8.69    1.73
  10   0   4    9.36    1.88
 -10   0  -4    6.95    1.49
 -10   0  -4    5.55    1.38
  10   0   4    5.87    1.80
  10   0   4    9.08    1.68
 -10   0  -2    9.37    1.70
  10   0   2    7.87    1.61
  10   0   2   10.64    2.09
  10   0   2    5.94    1.76
 -10   0  -2    6.62    1.37
 -10   0   0   13.17    1.67
  10   0   0   10.50    1.60
  10   0   0   10.31    2.00
 -10   0   0   12.59    1.94
  10   0   0   10.92    1.72
  10   0   0   13.90    2.24
  10   0  -2   10.44    2.03
  10   0  -2    7.15    1.71
 -10   0   2   11.30    1.81
  10   0  -2    6.71    1.24
 -10   0   2   11.63    1.43
  10   0  -2    6.24    1.39
  10   0  -4    7.00    1.43
 -10   0   4    8.14    1.60
  10   0  -4   10.61    1.85
 -10   0   4   13.02    1.19
  10   0  -4   14.91    2.31
 -10   0   6   28.31    2.91
  10   0  -6   26.48    2.90
  10   0  -6   23.97    2.56
  10   0  -6   25.87    2.38
  10   0  -8   63.99    3.81
  10   0  -8   61.21    3.59
 -10   0   8   60.70    3.78
  10   0 -10   16.93    2.28
 -10   0  10   11.11    1.91
 -10   0  10   10.09    1.90
  10   0 -10   11.56    1.68
  10   0 -12    9.74    1.94
 -10   0  12   11.88    2.11
 -10   0  12    7.61    1.74
  10   0 -12    7.33    1.27
  10   0 -14   27.31    3.17
 -10   0  14   35.94    3.54
 -10   0  14   32.00    3.44
  10   0 -14   30.97    2.05
  10   0 -14   30.37    3.42
  10   0 -16   10.20    2.21
 -10   0  16    8.02    1.95
  10   0 -16    5.43    0.91
  10   0 -18    9.14    2.20
 -10   0  18    8.75    2.29
 -10   0  20    9.48    2.33
  10  -1  13   -1.02    1.11
  10  -1  13    0.29    0.85
  10   1  13    0.78    1.06
  10   1  13    0.40    1.20
  10  -1  11    1.47    1.45
  10  -1  11    2.15    1.16
  10   1  11    2.41    1.26
  10   1  11    1.86    1.27
  10  -1   9    2.35    1.60
  10  -1   9    2.82    1.25
  10   1   9    2.06    1.34
  10   1   9    1.14    0.99
  10  -1   7    1.96    1.13
 -10  -1  -7    0.30    0.93
 -10  -1  -7    2.03    1.03
  10  -1   7    0.50    1.27
  10   1   7    1.63    1.11
 -10   1  -7    1.07    1.03
  10   1   7   -0.15    0.98
 -10  -1  -5   12.40    1.95
  10  -1   5   13.04    2.05
  10  -1   5    9.81    1.70
 -10  -1  -5   13.44    2.08
  10  -1   5   12.14    2.47
 -10   1  -5   16.30    2.19
  10   1   5   16.49    2.33
  10   1   5   15.18    2.14
  10   1   5   13.97    2.41
 -10   1  -5   11.48    1.95
  10  -1   3    0.11    0.86
 -10  -1  -3    0.56    0.79
  10  -1   3   -0.42    0.83
  10  -1   3    0.62    1.08
 -10  -1  -3   -0.04    0.74
  10  -1   3    0.89    1.21
  10   1   3    2.39    1.37
 -10   1  -3    0.06    0.81
  10   1   3    1.52    1.16
  10   1   3    1.08    0.98
 -10   1  -3    0.26    0.75
  10  -1   1    0.61    1.11
 -10  -1  -1    1.84    0.94
  10  -1   1    0.88    1.16
  10  -1   1    2.15    1.04
 -10  -1  -1    1.34    0.89
 -10   1  -1    1.36    0.89
  10   1   1    0.94    0.77
 -10   1  -1    3.11    1.01
  10   1   1    1.04    0.74
  10   1   1    1.41    1.19
 -10  -1   1    3.58    0.94
 -10  -1   1    2.85    1.22
  10  -1  -1    3.18    1.01
  10  -1  -1    4.10    1.34
  10  -1  -1    2.70    1.11
  10  -1  -1    4.99    1.59
  10   1  -1    2.34    0.96
  10   1  -1    3.26    1.33
 -10   1   1    7.30    1.51
  10   1  -1    4.13    1.08
  10   1  -1    3.81    1.39
 -10   1   1    4.16    1.01
  10  -1  -3    8.88    1.69
 -10  -1   3    7.02    1.51
  10  -1  -3   10.47    1.96
  10  -1  -3    8.04    1.73
 -10  -1   3   10.04    1.20
  10   1  -3    7.84    1.49
  10   1  -3   12.33    2.06
 -10   1   3   10.93    1.76
 -10   1   3    8.93    1.24
  10   1  -3   10.17    1.95
 -10  -1   5   12.43    2.01
  10  -1  -5    8.37    1.70
  10  -1  -5   10.49    1.88
  10  -1  -5    9.67    1.86
 -10   1   5    9.88    0.75
  10   1  -5   10.71    2.00
 -10   1   5   10.98    1.86
  10   1  -5   11.52    1.92
  10  -1  -7    3.03    1.02
  10  -1  -7    2.67    1.17
 -10  -1   7    3.60    1.26
 -10  -1   7    4.70    1.37
  10  -1  -7    1.37    1.27
 -10   1   7    1.08    0.92
  10   1  -7    3.15    1.38
  10   1  -7    2.03    1.02
 -10  -1   9    6.35    1.58
 -10  -1   9    7.86    1.67
  10  -1  -9   10.01    1.80
  10  -1  -9    8.11    1.71
  10  -1  -9    9.70    1.60
 -10   1   9   11.20    1.92
  10   1  -9    8.94    1.50
  10   1  -9    8.35    1.73
  10  -1 -11    4.72    1.43
 -10  -1  11    7.04    1.67
  10  -1 -11    6.95    1.29
 -10  -1  11    8.48    1.83
  10  -1 -11    7.85    1.71
  10   1 -11    5.96    1.21
  10   1 -11    9.04    1.95
 -10  -1  13    5.00    1.48
 -10  -1  13    4.55    1.45
  10  -1 -13    6.41    1.20
  10  -1 -13    6.62    1.74
  10  -1 -13    6.47    1.56
  10   1 -13    4.87    1.06
 -10   1  13    2.91    1.24
  10   1 -13    8.15    1.86
 -10   1  13    6.14    1.68
 -10  -1  15    3.35    1.50
  10  -1 -15    2.95    0.85
 -10  -1  15    4.07    1.53
  10  -1 -15    2.00    1.30
  10   1 -15    1.50    0.63
  10   1 -15    0.79    1.09
 -10   1  15    2.02    1.21
  10   1 -15    1.93    1.15
 -10  -1  17    0.66    1.05
 -10  -1  17    0.14    1.02
  10  -1 -17   -0.53    0.93
 -10   1  17    1.10    1.28
  10   1 -17    0.68    1.06
  10   1 -17   -0.26    1.02
  10   1 -17    0.82    0.43
 -10  -1  19    2.56    1.58
  10  -1 -19    1.38    1.28
 -10   1  19    2.31    1.45
  10   1 -19    1.77    1.25
  10  -2  14    4.02    1.29
  10  -2  14    4.18    1.81
  10   2  14    7.52    1.76
  10  -2  12    0.15    1.19
  10  -2  12    1.49    1.02
  10   2  12    2.01    1.25
  10   2  12    3.24    1.42
  10  -2  10   17.60    2.93
  10  -2  10   16.20    2.33
  10   2  10    8.19    1.91
  10   2  10   12.43    2.17
  10  -2   8    3.62    1.28
 -10  -2  -8    4.39    1.56
  10  -2   8    2.99    1.65
 -10  -2  -8    1.38    1.13
  10   2   8    2.30    1.34
  10   2   8    1.52    1.12
  10  -2   6   14.58    2.65
  10  -2   6   17.29    2.45
 -10  -2  -6   13.66    2.13
 -10  -2  -6   18.65    2.36
  10   2   6   18.13    2.76
  10   2   6   20.13    2.48
 -10   2  -6   14.72    2.27
  10  -2   4   10.38    1.77
 -10  -2  -4    9.83    1.80
  10  -2   4   10.19    2.22
  10  -2   4   10.99    1.90
 -10  -2  -4    9.95    1.89
  10   2   4   12.54    2.33
  10   2   4    9.70    1.84
 -10   2  -4   11.23    1.86
 -10   2  -4   15.05    1.98
 -10  -2  -2   14.79    2.01
 -10  -2  -2   19.09    2.43
  10  -2   2   17.50    2.78
  10  -2   2   14.37    2.04
  10  -2   2   15.16    2.45
  10   2   2   19.79    2.75
  10   2   2   16.77    2.71
 -10   2  -2   18.38    2.22
 -10   2  -2   14.84    2.03
  10  -2   0   18.27    2.47
  10  -2   0   23.87    2.96
 -10  -2   0   19.58    2.47
  10  -2   0   23.51    2.50
 -10  -2   0   22.16    2.24
 -10   2   0   22.86    2.31
 -10   2   0   22.59    2.45
  10   2   0   27.05    3.12
  10   2   0   19.22    2.68
 -10  -2   2   18.41    1.80
 -10  -2   2   20.60    2.57
  10  -2  -2   20.83    2.61
  10  -2  -2   18.25    2.62
  10  -2  -2   19.91    2.59
  10   2  -2   19.35    2.67
 -10   2   2   18.58    1.82
  10   2  -2   20.68    2.71
 -10   2   2   24.13    2.60
  10   2  -2   14.92    1.99
 -10  -2   4   13.78    1.19
  10  -2  -4    9.92    1.84
  10  -2  -4   10.85    2.09
  10  -2  -4    9.83    1.75
 -10  -2   4    9.79    1.90
 -10   2   4   12.12    1.93
 -10   2   4   13.66    1.34
  10   2  -4   11.12    1.96
  10   2  -4   11.31    1.94
  10  -2  -6   22.75    2.72
  10  -2  -6   20.63    2.65
 -10  -2   6   18.55    2.48
  10  -2  -6   21.34    2.60
 -10  -2   6   25.89    2.93
  10   2  -6   17.78    2.53
  10   2  -6   27.32    2.86
 -10   2   6   31.78    3.16
 -10  -2   8   22.42    2.76
 -10  -2   8   24.27    2.80
  10  -2  -8   31.01    3.10
  10  -2  -8   24.73    2.29
  10  -2  -8   23.69    2.89
  10   2  -8   22.04    2.46
 -10   2   8   25.40    2.88
  10   2  -8   24.46    2.88
 -10  -2  10   23.51    2.84
  10  -2 -10   25.67    2.90
  10  -2 -10   24.71    2.16
 -10  -2  10   24.22    3.02
 -10   2  10   25.35    2.93
  10   2 -10   24.45    3.03
  10   2 -10   24.72    2.12
  10  -2 -12   15.74    2.24
  10  -2 -12   14.43    1.84
 -10  -2  12   17.58    2.54
 -10  -2  12   10.85    2.09
  10  -2 -12   18.19    2.74
 -10   2  12   12.51    2.26
  10   2 -12   16.34    1.86
  10   2 -12   14.05    2.46
 -10  -2  14   12.49    2.28
 -10  -2  14   11.08    2.11
  10  -2 -14    9.99    2.17
  10  -2 -14    9.56    1.47
  10   2 -14    9.56    2.05
 -10   2  14   13.11    2.38
  10   2 -14   10.05    1.34
 -10  -2  16   13.80    2.44
  10  -2 -16    9.63    2.25
 -10  -2  16   12.34    2.27
  10   2 -16   10.50    2.05
  10   2 -16    8.95    1.10
 -10   2  16    8.67    2.08
  10   2 -16    8.32    2.09
 -10  -2  18    4.33    1.48
 -10  -2  18    8.40    2.13
  10  -2 -18   10.01    2.27
  10   2 -18    4.80    1.63
  10   2 -18    8.59    2.14
 -10   2  18    4.84    1.83
  10  -2 -20    2.27    1.43
 -10   2  20    2.17    1.49
  10  -3  13    0.43    1.44
  10  -3  13    2.60    1.14
  10   3  13    3.60    1.39
 -10   3 -13    3.22    1.56
  10  -3  11   -0.35    0.80
  10  -3  11    0.61    1.33
  10   3  11    0.84    1.19
  10   3  11    0.64    1.01
 -10   3 -11    0.80    1.10
  10  -3   9   14.47    2.76
 -10  -3  -9    8.33    1.83
  10  -3   9    9.48    1.98
 -10   3  -9    9.58    2.00
  10   3   9    8.90    1.89
 -10  -3  -7   -0.72    0.75
 -10  -3  -7    0.56    0.98
  10  -3   7   -0.12    1.20
  10  -3   7    0.38    1.02
 -10   3  -7    0.64    0.94
 -10   3  -7   -0.61    0.80
  10   3   7    0.55    0.93
  10   3   7   -0.03    1.00
  10  -3   5    5.61    1.87
 -10  -3  -5    1.75    1.12
 -10  -3  -5    3.08    1.32
  10  -3   5    6.03    1.65
 -10   3  -5    2.85    1.11
 -10   3  -5    5.34    1.47
  10   3   5    4.58    1.70
  10   3   5    4.76    1.42
  10  -3   3   -0.26    0.82
  10  -3   3    0.90    1.35
 -10  -3  -3    1.68    1.04
  10  -3   3   -0.57    0.86
 -10  -3  -3    0.28    0.84
 -10   3  -3    0.37    0.81
 -10   3  -3    1.19    0.83
  10   3   3   -0.11    1.06
 -10   3  -3    1.54    0.97
 -10  -3  -1    9.42    1.60
  10  -3   1   10.25    2.23
  10  -3   1    7.89    1.57
 -10  -3  -1    9.56    1.86
 -10   3  -1   10.50    1.71
 -10   3  -1    9.92    1.67
 -10   3  -1    7.69    1.48
  10   3   1   14.25    2.36
  10  -3  -1   24.20    2.98
 -10  -3   1   23.41    2.20
  10  -3  -1   25.21    3.05
  10  -3  -1   22.40    2.46
 -10  -3   1   21.92    2.62
  10   3  -1   23.72    2.92
 -10   3   1   22.41    2.43
  10   3  -1   24.39    2.20
 -10   3   1   25.48    2.40
  10   3  -1   21.96    2.85
  10  -3  -3    8.01    1.77
  10  -3  -3    7.34    1.47
 -10  -3   3    1.96    1.20
  10  -3  -3    9.59    2.03
 -10  -3   3    5.53    0.96
  10   3  -3    6.56    1.68
  10   3  -3    5.45    1.56
 -10   3   3    4.70    1.31
 -10   3   3    5.42    1.10
  10  -3  -5    3.09    1.17
  10  -3  -5    5.08    1.57
 -10  -3   5    3.92    1.46
 -10  -3   5    2.15    1.00
  10   3  -5    4.69    1.36
 -10   3   5    5.05    0.81
 -10   3   5    3.45    1.17
  10   3  -5    5.52    1.53
 -10  -3   7    2.14    1.19
 -10  -3   7    4.08    1.33
  10  -3  -7    2.94    1.13
  10  -3  -7    1.24    1.18
 -10   3   7    3.14    1.23
  10   3  -7    2.22    1.03
  10   3  -7    3.16    1.30
  10  -3  -9    0.55    0.75
  10  -3  -9    0.57    1.03
 -10  -3   9    0.32    0.81
  10  -3  -9    2.55    1.16
 -10  -3   9    0.37    0.98
  10   3  -9    0.38    0.69
  10   3  -9    0.91    0.98
 -10   3   9   -1.43    0.56
 -10  -3  11    2.73    1.35
  10  -3 -11    3.67    1.40
  10  -3 -11    4.83    1.29
 -10  -3  11    3.33    1.32
 -10   3  11    3.57    1.34
  10   3 -11    3.15    1.40
  10   3 -11    4.57    1.16
  10  -3 -13   13.03    2.43
 -10  -3  13   13.24    2.38
 -10  -3  13   12.16    2.27
  10  -3 -13   10.95    1.73
  10   3 -13   13.91    2.52
 -10   3  13   14.58    2.54
  10   3 -13   14.44    1.79
 -10  -3  15    2.57    1.28
 -10  -3  15    3.44    1.37
  10  -3 -15    4.02    1.72
 -10   3  15    4.20    1.64
  10   3 -15    1.64    1.14
  10   3 -15    4.30    0.99
 -10  -3  17   -0.38    0.77
  10  -3 -17    0.52    1.17
 -10  -3  17    0.48    1.12
 -10   3  17   -0.65    0.90
  10   3 -17   -0.09    0.86
  10   3 -17   -0.09    0.89
 -10  -3  19    2.04    1.54
  10  -3 -19    2.18    1.56
  10   3 -19    2.73    1.50
 -10   3  19    1.14    1.35
  10  -4  12    4.36    1.46
  10  -4  12    1.44    1.59
  10   4  12    2.98    1.40
 -10   4 -12    3.11    1.62
  10  -4  10    3.81    1.44
  10  -4  10    4.47    1.82
 -10  -4 -10    1.97    1.25
  10   4  10    2.36    1.28
 -10   4 -10    4.38    1.58
 -10  -4  -8   16.82    2.55
  10  -4   8   13.20    2.60
  10  -4   8   15.86    2.45
 -10  -4  -8   16.17    2.55
 -10   4  -8   14.88    2.43
  10   4   8   15.17    2.38
  10  -4   6   14.54    2.74
 -10  -4  -6   14.27    2.36
 -10  -4  -6   17.02    2.56
  10  -4   6   19.36    2.55
  10   4   6   14.26    2.28
  10   4   6   12.48    2.26
 -10   4  -6   15.85    2.32
 -10   4  -6   13.47    2.31
 -10  -4  -4    1.15    0.90
 -10  -4  -4    1.97    1.10
  10  -4   4    0.63    0.95
  10  -4   4    0.73    1.29
 -10   4  -4    1.11    1.07
 -10   4  -4    0.60    0.97
  10   4   4    1.41    1.23
  10  -4   2    6.41    1.54
 -10  -4  -2   10.43    2.02
  10  -4   2    9.25    2.08
 -10  -4  -2   10.16    1.67
  10   4   2    8.76    1.95
 -10   4  -2   10.29    1.74
  10   4   2   10.87    2.25
 -10   4  -2    9.17    1.67
 -10   4  -2    9.82    1.81
 -10  -4   0    4.81    1.55
  10  -4   0    5.58    1.76
  10  -4   0    5.38    1.73
  10  -4   0    6.67    1.56
 -10  -4   0    6.04    1.27
  10   4   0    4.69    1.58
 -10   4   0    6.63    1.45
 -10   4   0    3.39    1.11
  10   4   0    9.40    2.01
 -10   4   0    5.97    1.38
  10  -4  -2   18.80    2.30
  10  -4  -2   15.73    2.49
 -10  -4   2   20.59    2.76
 -10  -4   2   14.71    1.66
  10  -4  -2   19.37    2.78
 -10   4   2   20.04    2.43
 -10   4   2   19.99    2.06
  10   4  -2   16.30    2.46
  10   4  -2   14.50    2.42
 -10  -4   4   16.64    1.25
  10  -4  -4   17.27    2.56
 -10  -4   4   13.39    2.24
  10  -4  -4   13.16    2.14
 -10  -4   4   17.74    2.50
 -10   4   4    8.56    1.77
  10   4  -4   15.63    2.40
  10   4  -4   14.98    2.34
 -10   4   4   20.33    1.86
  10  -4  -6   16.08    2.39
 -10  -4   6   11.71    2.23
 -10  -4   6   14.09    2.24
  10  -4  -6   14.62    2.32
  10  -4  -6   19.71    2.61
 -10   4   6   13.07    2.18
  10   4  -6   16.46    2.58
  10   4  -6   15.50    2.28
 -10   4   6   14.09    1.03
  10  -4  -8   16.59    2.24
 -10  -4   8   16.23    2.48
  10  -4  -8   14.06    2.38
  10  -4  -8   20.14    2.55
 -10  -4   8   18.92    2.57
  10   4  -8   17.96    2.37
 -10   4   8   20.24    2.70
  10   4  -8   20.50    2.75
 -10  -4  10    0.86    0.86
  10  -4 -10    0.75    0.89
 -10  -4  10    1.22    1.16
  10  -4 -10    2.48    1.28
  10   4 -10    1.44    0.95
  10   4 -10    1.06    1.25
 -10   4  10   -0.27    0.93
  10  -4 -12    2.96    1.36
 -10  -4  12    7.14    1.84
 -10  -4  12    4.76    1.58
  10   4 -12    4.73    1.21
 -10   4  12    4.65    1.56
  10   4 -12    3.46    1.54
 -10  -4  14   19.77    2.78
  10  -4 -14   15.54    2.70
 -10  -4  14   19.21    2.89
 -10   4  14   10.63    2.29
  10   4 -14   13.21    2.43
 -10  -4  16    7.17    2.07
  10  -4 -16   11.07    2.50
 -10  -4  16   10.37    2.36
 -10   4  16   11.89    2.35
  10   4 -16   10.94    2.50
  10  -4 -18    4.50    1.71
 -10  -4  18    4.52    1.81
 -10   4  18    4.89    1.99
  10   4 -18    3.89    1.72
  10  -5  11    2.03    1.26
  10  -5  11    2.55    1.65
 -10  -5 -11    0.94    1.22
 -10   5 -11    2.86    1.65
  10   5  11    1.62    1.24
 -10  -5  -9    0.75    1.18
  10  -5   9    1.39    1.40
  10  -5   9    3.16    1.35
 -10   5  -9    2.81    1.55
  10   5   9    0.68    1.17
 -10  -5  -7    4.07    1.54
  10  -5   7    7.75    1.85
 -10  -5  -7    1.56    1.23
  10  -5   7    2.96    1.58
  10   5   7    1.35    1.22
  10   5   7    4.72    1.54
 -10   5  -7    3.90    1.45
 -10  -5  -5    3.00    1.56
  10  -5   5    2.49    1.25
 -10  -5  -5    3.05    1.28
  10  -5   5    1.70    1.44
 -10   5  -5    2.36    1.36
  10   5   5    2.58    1.26
 -10   5  -5    1.43    1.22
  10   5   5    4.67    1.53
 -10  -5  -3    1.75    1.34
  10  -5   3    5.97    1.85
  10  -5   3    3.13    1.22
 -10  -5  -3    4.09    1.32
 -10   5  -3    0.59    1.04
 -10   5  -3    2.13    1.12
  10   5   3    2.66    1.25
 -10  -5  -1   11.60    1.73
 -10  -5  -1    6.16    1.64
  10  -5   1    7.97    1.76
  10  -5   1   11.34    2.33
  10   5   1   11.34    2.14
 -10   5  -1   13.56    2.12
  10   5   1    9.38    2.17
 -10   5  -1    9.95    1.79
  10  -5  -1    8.79    1.97
  10  -5  -1    1.51    0.83
  10  -5  -1    5.51    1.36
  10  -5  -1    3.22    1.31
 -10  -5   1    5.11    1.12
 -10  -5   1    4.23    1.44
 -10   5   1    4.91    1.23
 -10   5   1    3.90    1.22
  10   5  -1    5.02    1.60
  10   5  -1    5.39    1.66
 -10  -5   3    9.37    1.97
  10  -5  -3   11.92    2.02
  10  -5  -3   14.83    2.44
 -10  -5   3   12.86    2.13
  10  -5  -3   13.03    2.00
 -10  -5   3    8.87    1.25
  10  -5  -3    9.84    2.07
 -10   5   3   12.48    1.66
  10   5  -3   10.11    1.99
  10   5  -3    8.78    2.00
 -10   5   3   14.23    2.12
  10  -5  -5    3.48    1.38
 -10  -5   5    2.58    0.45
  10  -5  -5    2.77    1.31
 -10  -5   5    2.96    1.35
 -10  -5   5    2.14    1.24
  10  -5  -5    4.46    1.51
 -10   5   5    2.00    1.19
  10   5  -5    1.88    1.16
  10   5  -5    2.85    1.31
 -10   5   5    3.44    0.86
 -10  -5   7    8.79    2.03
  10  -5  -7    7.95    1.78
  10  -5  -7    6.44    1.63
  10  -5  -7    9.10    1.89
 -10  -5   7    9.54    2.03
  10   5  -7    8.12    1.76
 -10   5   7    6.60    1.71
  10   5  -7    7.01    1.77
 -10   5   7    6.65    0.68
 -10  -5   9    1.16    0.99
 -10  -5   9   -0.36    0.92
  10  -5  -9    0.54    1.01
  10   5  -9    1.14    1.14
 -10   5   9    0.49    1.09
  10   5  -9    2.30    1.05
  10  -5 -11    3.53    1.43
 -10  -5  11    1.30    1.09
 -10  -5  11    3.58    1.37
 -10   5  11    5.22    1.69
  10   5 -11    3.35    1.24
  10   5 -11    2.16    1.27
  10  -5 -13    1.97    1.40
 -10  -5  13    4.59    1.59
 -10  -5  13    5.70    1.80
  10   5 -13    3.48    1.53
  10  -5 -15    5.19    2.01
 -10  -5  15    3.04    1.44
 -10   5  15    2.62    1.56
  10   5 -15    6.22    1.84
  10  -5 -17    1.25    1.44
 -10  -5  17    1.83    1.45
  10   5 -17    0.34    1.36
 -10   5  17    1.51    1.31
  10  -5 -19    1.83    1.70
 -10  -5  19    1.46    1.34
 -10   5  19    2.35    1.64
  10   5 -19    0.89    1.35
  10  -6  12   -0.22    1.21
  10  -6  10    1.82    1.20
  10  -6  10   -0.05    1.28
 -10  -6 -10    2.13    1.51
 -10   6 -10    2.37    1.57
  10   6  10    3.98    1.47
  10  -6   8    4.68    1.95
  10  -6   8    6.18    1.70
 -10  -6  -8    3.10    1.38
 -10  -6  -8    4.10    1.61
  10   6   8    5.66    1.71
 -10   6  -8    3.32    1.57
  10  -6   6    2.96    1.40
 -10  -6  -6    2.44    1.33
 -10  -6  -6    3.08    1.36
  10  -6   6    1.74    1.44
 -10   6  -6    0.60    1.17
 -10   6  -6    1.93    1.27
  10   6   6    0.21    1.16
  10   6   6    1.60    1.18
  10  -6   4    6.78    1.96
  10  -6   4    9.89    2.05
 -10  -6  -4    6.89    1.94
 -10  -6  -4    8.45    1.80
 -10   6  -4    8.92    1.92
 -10   6  -4    7.92    2.00
  10   6   4    5.43    1.52
  10  -6   2    2.63    1.41
 -10  -6  -2    1.85    1.28
 -10  -6  -2    2.06    1.04
  10   6   2    1.14    1.15
 -10   6  -2    3.25    1.44
 -10   6  -2    2.18    1.18
 -10  -6   0    6.23    1.35
  10  -6   0    5.79    1.82
  10  -6   0    7.78    1.76
 -10  -6   0    6.88    1.76
  10   6   0    6.12    1.93
 -10   6   0    4.38    1.34
  10   6   0    7.66    1.70
  10  -6  -2    9.96    2.02
 -10  -6   2   13.12    1.67
  10  -6  -2   10.91    1.90
  10  -6  -2   14.28    2.15
  10  -6  -2    5.25    1.71
 -10  -6   2   11.74    2.22
 -10  -6   2   13.76    2.42
 -10   6   2    9.30    1.75
  10   6  -2    8.81    1.90
 -10   6   2    9.98    1.68
  10   6  -2   10.02    2.20
 -10  -6   4    1.17    0.61
 -10  -6   4   -0.13    0.87
  10  -6  -4    0.22    0.88
 -10  -6   4    0.19    1.05
  10  -6  -4   -0.26    0.82
  10  -6  -4    3.11    1.37
  10  -6  -4    1.51    1.09
 -10   6   4    0.37    0.65
 -10   6   4    1.43    1.11
  10   6  -4   -0.30    0.85
  10   6  -4    1.98    1.29
 -10  -6   6    9.98    2.11
  10  -6  -6    5.53    1.69
  10  -6  -6    5.02    1.51
 -10  -6   6    4.36    1.64
  10   6  -6    6.27    1.66
  10   6  -6    9.12    2.10
 -10   6   6    6.54    1.66
 -10   6   6    6.83    1.06
 -10  -6   8    3.15    1.47
  10  -6  -8    6.99    1.78
 -10  -6   8    8.09    1.79
  10   6  -8    8.48    1.82
 -10   6   8    5.28    1.66
  10   6  -8    6.63    1.92
 -10  -6  10    3.99    1.44
 -10  -6  10    4.81    1.55
  10  -6 -10    1.85    1.25
 -10   6  10    4.68    1.65
  10   6 -10    0.94    1.09
  10  -6 -12    4.50    1.63
 -10  -6  12    2.19    1.45
 -10  -6  12    8.84    2.03
  10   6 -12    3.90    1.63
 -10   6  12    3.37    1.56
  10  -6 -14    3.33    1.59
 -10  -6  14    4.66    1.76
  10   6 -14    2.33    1.44
 -10   6  14    3.05    1.56
  10  -6 -16    9.83    2.65
 -10  -6  16    4.86    1.81
 -10   6  16    4.21    1.90
  10   6 -16    3.74    1.92
  10  -6 -18    0.06    1.65
 -10  -6  18    0.73    1.38
  10   6 -18    2.32    1.61
 -10   6  18   -0.05    1.33
  10  -7   9    0.27    1.33
  10  -7   9    1.69    1.27
 -10  -7  -9   -0.89    1.25
 -10   7  -9    0.90    1.33
  10   7   9    2.82    1.45
 -10  -7  -7   -0.90    1.04
  10  -7   7    0.97    1.11
  10  -7   7    0.97    1.51
 -10  -7  -7   -0.51    1.18
  10   7   7   -0.11    0.99
 -10   7  -7    0.24    1.15
  10  -7   5    4.01    1.53
 -10  -7  -5    3.12    1.50
  10  -7   5    3.96    1.60
 -10  -7  -5    2.31    1.31
 -10   7  -5    4.77    1.66
 -10   7  -5    0.18    1.19
 -10  -7  -3   13.21    2.57
  10  -7   3   11.95    2.21
 -10  -7  -3   13.53    2.16
  10  -7   3   12.06    2.48
 -10   7  -3   16.10    2.75
 -10   7  -3   10.39    2.07
 -10  -7  -1   15.64    2.55
 -10  -7  -1   12.64    1.98
  10  -7   1   11.58    2.32
  10   7   1    9.45    1.93
 -10   7  -1   11.61    2.06
 -10  -7   1    4.24    1.14
  10  -7  -1    5.00    1.77
 -10  -7   1    6.76    1.78
  10   7  -1    5.76    1.94
 -10   7   1    5.93    1.52
  10   7  -1    8.14    1.77
 -10  -7   3    1.46    1.31
  10  -7  -3   -0.02    1.07
 -10  -7   3    1.86    1.17
  10  -7  -3    3.73    1.48
  10  -7  -3    0.90    1.02
  10  -7  -3    0.97    1.27
 -10  -7   3    0.03    0.56
  10   7  -3   -0.07    0.95
  10   7  -3    0.43    0.99
 -10   7   3    1.64    1.03
 -10   7   3    0.39    0.79
  10  -7  -5    4.05    1.55
  10  -7  -5    1.06    1.18
 -10  -7   5    2.17    1.42
 -10  -7   5    0.01    0.94
 -10  -7   5    2.71    0.60
 -10   7   5    1.07    1.15
 -10   7   5    2.33    0.87
  10   7  -5    1.41    1.33
  10   7  -5    3.46    1.58
  10  -7  -7    7.49    1.89
 -10  -7   7    5.65    1.80
 -10  -7   7    4.89    1.73
  10   7  -7    7.30    1.99
 -10   7   7    5.51    0.97
 -10   7   7    7.52    1.87
  10  -7  -9   13.90    2.57
 -10  -7   9   17.25    2.68
 -10  -7   9   10.11    2.21
  10   7  -9   11.98    2.41
 -10   7   9   12.57    2.42
 -10  -7  11    9.64    2.07
 -10  -7  11    5.15    1.85
  10  -7 -11    6.69    1.97
 -10   7  11    8.36    2.14
  10   7 -11    8.50    2.11
 -10  -7  13   -0.17    0.96
  10  -7 -13    0.26    1.27
  10   7 -13    1.34    1.25
 -10   7  13    0.20    1.17
  10  -7 -15    0.56    1.29
 -10  -7  15    0.71    1.20
  10   7 -15   -0.26    1.24
 -10   7  15    1.11    1.32
 -10  -7  17    3.80    1.70
  10  -7 -17    5.46    2.28
  10   7 -17    0.95    1.50
 -10   7  17    2.43    1.78
  10  -8   8    0.96    1.28
 -10  -8  -8    1.50    1.54
 -10  -8  -8    1.57    1.39
  10  -8   8    6.92    2.22
 -10   8  -8    1.88    1.45
  10   8   8    0.01    1.28
 -10  -8  -6    2.78    1.65
  10  -8   6    1.34    1.29
 -10  -8  -6    2.04    1.47
  10  -8   6    3.31    1.87
 -10   8  -6    1.43    1.55
 -10  -8  -4    6.24    1.91
 -10  -8  -4    6.63    1.81
  10  -8   4    5.62    1.77
  10  -8   4    7.69    2.18
 -10   8  -4    7.60    2.14
 -10   8  -4    9.02    2.17
 -10  -8  -2    8.77    2.13
 -10  -8  -2    6.11    1.57
  10  -8   2   12.12    2.42
 -10   8  -2   11.38    2.17
  10   8   2    1.85    1.25
  10  -8   0    3.56    1.57
 -10  -8   0    2.44    1.33
 -10  -8   0    5.41    1.33
 -10   8   0    2.23    1.28
  10   8   0    3.14    1.31
 -10  -8   2    3.47    1.54
 -10  -8   2    3.31    1.46
 -10  -8   2    3.12    1.02
 -10   8   2    4.07    1.29
  10   8  -2    2.36    1.29
 -10  -8   4    1.48    1.33
 -10  -8   4    1.36    0.66
  10  -8  -4    2.28    1.57
  10  -8  -4   -0.69    0.98
 -10  -8   4    2.85    1.48
 -10   8   4    1.99    1.06
 -10   8   4    2.20    1.32
  10   8  -4    1.12    1.23
 -10  -8   6   10.81    2.30
  10  -8  -6    8.31    2.04
 -10  -8   6   11.01    2.31
  10   8  -6   12.38    2.51
 -10   8   6   11.49    2.31
 -10   8   6    7.09    1.30
 -10  -8   8    3.83    1.77
 -10  -8   8    7.79    1.99
  10  -8  -8    5.53    1.96
  10   8  -8    5.18    1.90
 -10   8   8    3.73    1.54
 -10   8   8    5.65    0.89
  10  -8 -10    1.91    1.37
 -10  -8  10    2.38    1.43
 -10  -8  10    7.42    2.00
  10   8 -10    2.76    1.40
 -10   8  10    2.93    1.49
  10  -8 -12    2.80    1.47
 -10  -8  12   -0.34    1.05
 -10   8  12    0.73    1.17
  10   8 -12    0.83    1.11
  10  -8 -14    0.94    1.48
 -10  -8  14    0.54    1.21
  10   8 -14    1.08    1.28
 -10   8  14    0.91    1.39
 -10  -9  -7    3.20    1.65
 -10  -9  -7    2.00    1.35
  10  -9   7    0.74    1.42
  10  -9   7    0.04    1.24
  10   9   7   -0.20    1.15
 -10   9  -7    1.55    1.64
  10  -9   5    7.00    2.15
 -10  -9  -5    5.98    1.73
 -10  -9  -5    4.12    1.73
  10  -9   5    3.99    1.64
 -10   9  -5    3.09    1.60
 -10   9  -5    4.54    1.99
 -10  -9  -3    6.02    1.93
  10  -9   3    8.89    2.30
 -10  -9  -3    4.44    1.44
 -10   9  -3    4.67    1.70
 -10  -9  -1    4.40    1.73
  10  -9   1    4.72    1.70
 -10  -9  -1    3.34    1.27
 -10   9  -1    4.29    1.60
 -10  -9   1    5.47    1.40
 -10  -9   1    7.69    2.10
 -10  -9   1    6.59    1.99
 -10   9   1    6.04    1.68
  10   9  -1    7.68    1.79
 -10  -9   3    1.08    1.29
 -10  -9   3    1.42    1.34
 -10  -9   3    1.73    0.85
 -10   9   3   -0.09    0.97
  10   9  -3    0.22    0.97
 -10  -9   5    1.80    0.65
  10  -9  -5    0.71    1.37
 -10  -9   5    1.48    1.32
 -10  -9   5    1.41    1.20
 -10   9   5    1.41    0.94
  10   9  -5    2.46    1.34
 -10   9   5    3.50    1.44
  10  -9  -7    4.64    1.88
 -10  -9   7    2.87    1.77
 -10  -9   7    6.86    1.96
 -10   9   7    3.18    0.94
 -10   9   7    4.57    1.57
  10   9  -7    4.25    1.97
 -10  -9   9    5.66    1.94
 -10  -9   9    6.68    1.90
  10  -9  -9    4.28    1.85
  10   9  -9    5.71    2.06
 -10   9   9    2.91    0.62
 -10   9   9    7.12    2.17
  10  -9 -11    4.56    2.03
 -10  -9  11    4.62    1.76
  10   9 -11    3.22    1.60
 -10   9  11    2.68    1.81
  10  -9 -13    1.62    1.72
 -10  -9  13    1.38    1.45
 -10   9  13   -1.51    1.21
  10   9 -13    1.14    1.25
  10 -10   4    3.47    1.67
  10 -10   4   -0.02    1.14
 -10 -10  -4   -0.46    1.05
 -10 -10  -4    0.96    1.16
 -10  10  -4    1.42    1.40
 -10 -10  -2    3.52    1.79
 -10 -10  -2    3.67    1.43
  10 -10   2    3.72    1.91
 -10  10  -2    4.13    1.69
 -10 -10   0    2.83    1.24
 -10 -10   0    0.70    1.22
 -10  10   0    1.49    1.30
 -10 -10   2    1.72    0.90
 -10 -10   2    2.40    1.62
 -10 -10   2    1.13    1.35
  10  10  -2    0.42    1.12
 -10  10   2    2.94    1.36
 -10 -10   4    0.66    1.39
 -10 -10   4    2.61    1.45
 -10 -10   4    0.93    0.71
 -10  10   4   -0.85    0.81
  10  10  -4   -0.21    1.25
 -10 -10   6    3.70    1.67
 -10 -10   6    0.52    1.46
  10 -10  -6   -0.24    1.45
 -10  10   6   -1.13    1.13
 -10  10   6   -0.30    0.76
  10  10  -6   -0.57    1.24
 -10 -10   8    0.84    1.39
 -10 -10   8    1.53    1.30
  10 -10  -8    2.58    1.61
 -10  10   8    2.47    1.49
 -10  10   8    1.36    0.74
  10  10  -8    2.27    1.53
  10 -10 -10    0.88    1.48
 -10 -10  10    0.17    1.18
 -10  10  10    2.24    1.60
  10  10 -10   -0.20    0.99
 -10 -11   1    3.49    1.62
 -10 -11   1    1.35    1.03
 -10  11   1    5.73    1.88
 -10 -11   3    3.78    1.87
 -10 -11   3    2.85    1.81
 -10 -11   3    3.06    1.05
  10  11  -3    1.77    1.33
 -10  11   3    2.09    1.29
 -10 -11   5    2.83    1.74
 -10 -11   5    0.79    1.60
 -10 -11   5    1.34    0.60
  10  11  -5   -0.01    1.18
 -10  11   5    0.92    0.91
 -10 -11   7    2.85    1.57
 -10 -11   7   -2.42    1.22
  10  11  -7   -0.73    1.22
  11   0  13    0.83    1.12
  11   0  13    1.12    1.38
  11   0  11    0.09    1.06
  11   0  11   -1.43    0.99
  11   0   9   -0.50    1.34
  11   0   9    0.19    1.03
  11   0   7    0.30    0.92
 -11   0  -7    0.10    1.00
  11   0   7    0.43    1.20
  11   0   5   -0.71    0.99
  11   0   5    0.76    1.16
 -11   0  -5    0.17    0.85
 -11   0  -5   -0.04    0.90
 -11   0  -3    0.49    0.77
  11   0   3   -0.69    1.07
 -11   0  -3    0.48    0.77
  11   0   3    0.63    0.98
  11   0   1   -0.70    0.82
 -11   0  -1   -0.42    0.80
 -11   0  -1   -0.27    0.66
  11   0   1   -0.64    0.58
  11   0   1    0.28    1.21
 -11   0   1   -0.38    0.64
  11   0  -1    0.12    0.85
  11   0  -1   -0.42    0.74
  11   0  -1    0.59    1.16
 -11   0   1    0.40    0.67
 -11   0   3    0.98    0.97
  11   0  -3    0.12    0.83
 -11   0   3    0.21    0.49
  11   0  -3    0.05    1.09
  11   0  -5    1.23    1.13
 -11   0   5    0.52    0.83
 -11   0   5   -0.13    0.22
  11   0  -5    0.57    0.88
 -11   0   7   -0.30    0.88
  11   0  -7   -0.50    0.89
  11   0  -7    0.87    0.78
  11   0  -9    1.35    1.07
  11   0  -9    0.01    0.72
 -11   0   9   -0.97    0.69
  11   0 -11    2.18    1.20
  11   0 -11    0.23    0.70
 -11   0  11   -0.46    0.82
 -11   0  11    0.61    0.95
  11   0 -13    0.42    0.66
 -11   0  13   -0.77    0.72
  11   0 -13   -0.24    1.00
 -11   0  13   -0.18    0.82
 -11   0  15   -0.73    0.88
  11   0 -15   -0.12    0.99
  11   0 -15    0.14    0.93
 -11   0  15    0.44    1.08
  11   0 -17   -1.04    0.93
 -11   0  17   -0.94    0.93
  11   0 -19    0.14    1.11
 -11   0  19   -1.19    1.12
  11  -1  12    0.84    1.40
  11  -1  12    0.73    1.10
  11   1  12    4.43    1.57
  11   1  12    3.76    1.79
  11  -1  10    2.07    1.69
  11  -1  10    5.65    1.63
  11   1  10    3.87    1.73
  11   1  10    3.68    1.46
 -11  -1  -8    7.08    1.79
  11  -1   8    9.63    1.93
  11  -1   8   10.05    2.45
 -11   1  -8    6.87    1.79
  11   1   8    6.13    1.93
  11   1   8    8.29    1.82
  11  -1   6    1.74    1.52
 -11  -1  -6    2.31    1.19
  11  -1   6    2.06    1.21
 -11  -1  -6    3.23    1.30
  11   1   6    4.14    1.43
 -11   1  -6    4.11    1.40
  11   1   6    4.83    1.83
 -11  -1  -4    9.05    1.79
  11  -1   4    6.84    2.05
 -11  -1  -4    7.43    1.63
  11  -1   4    7.84    1.72
  11   1   4    7.09    2.13
 -11   1  -4    6.00    1.59
 -11   1  -4    9.01    1.73
 -11  -1  -2   11.06    1.79
 -11  -1  -2   10.70    1.88
  11  -1   2   21.72    3.08
  11  -1   2   11.28    1.92
  11  -1   2   16.75    2.81
  11   1   2   13.32    2.51
 -11   1  -2    9.99    1.77
 -11   1  -2   12.09    1.96
  11   1   2   10.28    2.18
 -11  -1   0   14.79    2.23
  11  -1   0   11.71    2.19
 -11  -1   0   12.00    1.71
  11  -1   0   14.32    2.61
 -11   1   0   15.30    1.88
 -11   1   0   12.20    1.97
  11   1   0   14.57    2.46
  11   1   0   13.08    2.37
  11  -1  -2   21.26    2.62
  11  -1  -2   25.29    3.16
 -11  -1   2   25.93    1.88
 -11  -1   2   26.66    2.96
  11  -1  -2   28.45    3.21
 -11   1   2   29.54    2.01
 -11   1   2   28.99    2.92
  11   1  -2   26.99    3.36
  11   1  -2   23.70    2.94
 -11  -1   4    2.86    0.66
  11  -1  -4    1.80    1.05
 -11  -1   4    2.55    1.25
  11  -1  -4    1.84    1.04
  11  -1  -4    2.90    1.44
 -11   1   4    3.39    1.29
 -11   1   4    2.56    0.69
  11   1  -4    4.59    1.63
  11   1  -4    2.35    1.16
  11  -1  -6   11.10    2.01
  11  -1  -6   12.29    2.22
  11  -1  -6    9.83    1.85
 -11  -1   6    9.77    1.89
 -11   1   6    9.39    1.84
  11   1  -6   13.34    2.23
  11   1  -6   13.93    2.18
 -11  -1   8   13.74    2.35
  11  -1  -8   14.22    2.18
  11  -1  -8   13.08    2.14
  11  -1  -8   12.80    2.10
  11   1  -8   14.18    2.29
 -11   1   8   11.35    2.04
  11   1  -8   10.26    1.84
 -11  -1  10    9.56    1.88
  11  -1 -10    4.31    1.27
  11  -1 -10   10.27    2.01
 -11  -1  10    9.25    1.99
  11   1 -10    9.15    1.71
 -11   1  10   10.59    2.07
  11   1 -10    7.32    1.87
  11  -1 -12    6.59    1.33
 -11  -1  12    7.31    1.80
  11  -1 -12    8.57    1.86
 -11  -1  12    7.07    1.83
 -11   1  12    7.72    1.78
  11   1 -12    7.67    1.47
  11   1 -12    6.86    1.85
 -11  -1  14   22.68    2.98
  11  -1 -14   16.83    1.97
  11  -1 -14   19.76    2.94
 -11  -1  14   16.28    2.59
  11   1 -14   17.83    1.94
 -11   1  14   22.76    2.79
  11   1 -14   19.99    2.86
 -11   1  14   18.21    2.77
 -11  -1  16    6.92    1.86
  11  -1 -16    6.85    1.96
 -11  -1  16   12.38    2.41
  11   1 -16    8.29    1.92
  11   1 -16    6.34    1.92
 -11   1  16    6.51    1.92
 -11  -1  18    2.80    1.56
  11  -1 -18    6.98    1.96
  11   1 -18    4.81    1.71
 -11   1  18    7.19    1.99
 -11  -1  20    1.38    1.55
  11  -1 -20    1.00    1.29
 -11   1  20    2.96    1.70
  11  -2  13    2.60    1.69
  11  -2  11   -0.82    0.92
  11  -2  11    0.22    1.39
  11   2  11    1.05    1.43
  11   2  11    1.23    1.16
  11  -2   9    2.34    1.55
  11  -2   9    2.09    1.24
  11   2   9    1.02    1.33
  11   2   9    1.06    1.10
  11  -2   7    1.66    1.27
  11  -2   7    0.39    1.18
 -11  -2  -7    0.71    1.04
 -11  -2  -7    1.68    1.12
 -11   2  -7    0.56    1.09
  11   2   7    0.90    1.10
  11   2   7    1.78    1.50
  11  -2   5    2.88    1.63
 -11  -2  -5    1.80    1.11
 -11  -2  -5    4.48    1.43
  11  -2   5    1.92    1.20
  11   2   5    1.34    1.55
  11   2   5    2.83    1.28
 -11   2  -5    4.25    1.38
 -11  -2  -3    3.84    1.26
  11  -2   3    3.26    1.58
 -11  -2  -3    2.52    1.18
  11   2   3    4.96    1.73
 -11   2  -3    2.69    1.19
 -11   2  -3    2.93    1.15
 -11  -2  -1    1.97    0.98
  11  -2   1    2.83    1.45
 -11  -2  -1    3.26    1.25
  11  -2   1    4.25    1.27
  11  -2   1    0.27    1.32
 -11   2  -1    2.03    1.01
 -11   2  -1    1.75    1.03
  11   2   1    0.18    1.05
  11   2   1    0.09    0.66
 -11  -2   1    7.86    1.85
 -11  -2   1    7.91    1.34
  11  -2  -1    6.03    1.79
  11  -2  -1    7.81    1.99
  11  -2  -1    7.72    1.60
  11   2  -1   10.74    2.20
  11   2  -1    9.04    2.09
 -11   2   1    8.27    1.75
 -11   2   1    9.77    1.56
  11  -2  -3    4.28    1.54
 -11  -2   3    6.15    1.04
  11  -2  -3    4.17    1.55
 -11  -2   3    4.33    1.37
 -11   2   3    6.37    1.45
  11   2  -3    6.82    1.82
 -11   2   3    6.26    1.10
  11   2  -3    6.37    1.80
  11  -2  -5    8.62    1.90
 -11  -2   5    9.78    2.00
  11  -2  -5    7.22    1.63
 -11   2   5   12.21    2.13
 -11   2   5    9.81    1.01
  11   2  -5    9.44    1.83
  11   2  -5    9.66    1.94
 -11  -2   7    1.80    1.16
  11  -2  -7    1.19    0.96
  11  -2  -7    1.60    1.24
 -11  -2   7    0.60    0.99
  11   2  -7    2.29    1.04
  11   2  -7   11.54    2.19
 -11   2   7    2.53    1.24
 -11  -2   9    2.97    1.28
 -11  -2   9    1.91    1.21
  11  -2  -9    2.15    1.05
  11  -2  -9    3.78    1.38
  11   2  -9    2.39    1.07
 -11   2   9    4.15    1.41
  11   2  -9    1.66    1.17
  11  -2 -11    2.97    1.30
 -11  -2  11    0.63    0.86
  11  -2 -11    0.83    0.99
 -11  -2  11    1.32    1.11
  11  -2 -11    1.62    0.89
 -11   2  11    1.81    1.07
  11   2 -11    2.39    1.30
  11   2 -11    1.16    0.86
  11  -2 -13    0.96    1.16
  11  -2 -13    2.02    0.94
 -11  -2  13    1.26    1.06
 -11  -2  13    6.16    1.83
  11   2 -13    0.94    1.06
  11   2 -13    2.52    0.98
 -11   2  13    0.93    1.14
 -11  -2  15    2.74    1.36
  11  -2 -15    5.41    1.77
 -11  -2  15    2.53    1.37
 -11   2  15    2.02    1.27
  11   2 -15    2.29    1.52
  11  -2 -17    2.53    1.54
 -11  -2  17    3.21    1.45
 -11  -2  17    1.10    1.23
  11   2 -17    0.02    0.92
 -11   2  17    0.84    1.28
  11   2 -17    2.45    1.48
  11  -2 -19    3.77    1.61
 -11   2  19    2.26    1.53
  11  -3  12    6.76    1.75
  11  -3  12    7.10    2.29
  11   3  12    4.09    1.57
  11  -3  10   -0.25    1.30
  11  -3  10   -0.03    1.04
  11   3  10    1.19    1.24
  11   3  10   -0.44    0.95
 -11  -3  -8    6.32    1.83
  11  -3   8    4.27    1.58
  11  -3   8    5.98    1.94
 -11  -3  -8    6.02    1.84
  11   3   8    3.72    1.39
  11   3   8    4.38    1.68
  11  -3   6    5.69    1.94
  11  -3   6    6.92    1.70
 -11  -3  -6    8.97    2.02
 -11  -3  -6    6.86    1.73
 -11   3  -6   10.90    2.03
  11   3   6    5.63    1.75
  11   3   6    6.87    1.79
  11  -3   4    4.06    1.69
 -11  -3  -4    5.83    1.59
  11  -3   4    5.24    1.60
 -11  -3  -4    8.92    2.05
  11   3   4    9.82    2.20
 -11   3  -4    6.73    1.68
 -11  -3  -2    4.81    1.34
  11  -3   2    5.59    1.54
  11  -3   2    6.57    1.99
 -11  -3  -2    5.70    1.57
  11   3   2    6.74    2.07
 -11   3  -2    3.93    1.24
 -11   3  -2    3.84    1.27
  11   3   2   11.64    2.21
 -11  -3   0   24.04    2.34
 -11  -3   0   25.05    2.99
  11  -3   0   25.60    3.26
  11  -3   0   30.19    2.98
  11  -3   0   13.06    2.49
  11   3   0   28.84    3.59
 -11   3   0   26.67    2.59
  11   3   0   28.34    3.27
 -11   3   0   24.55    2.66
  11  -3  -2   12.39    2.37
 -11  -3   2    8.34    1.83
  11  -3  -2   11.00    1.84
 -11  -3   2    8.54    1.35
  11  -3  -2   11.04    2.24
 -11   3   2    7.83    1.65
 -11   3   2    9.54    1.49
  11   3  -2    7.53    1.83
  11   3  -2    8.66    1.98
 -11  -3   4   11.52    2.14
 -11  -3   4   17.32    1.24
  11  -3  -4   12.94    2.21
  11  -3  -4   17.26    2.58
  11   3  -4   11.94    2.28
 -11   3   4   13.42    1.49
 -11   3   4   16.06    2.47
  11   3  -4   13.83    2.30
 -11  -3   6   11.76    2.18
 -11  -3   6   11.10    2.10
  11  -3  -6   16.94    2.47
  11  -3  -6   16.21    2.46
 -11   3   6   12.90    0.71
 -11   3   6   10.22    1.99
  11   3  -6   14.38    2.38
  11   3  -6   17.63    2.42
  11  -3  -8   29.96    3.18
 -11  -3   8   25.86    3.20
  11  -3  -8   30.07    2.72
 -11  -3   8   25.49    3.11
  11   3  -8   26.86    3.23
 -11   3   8   25.74    3.01
  11   3  -8   30.44    2.68
  11  -3 -10    4.92    1.28
  11  -3 -10    6.71    1.69
 -11  -3  10    7.73    1.89
  11  -3 -10    6.43    1.71
 -11  -3  10    9.54    1.97
 -11   3  10    4.85    1.52
  11   3 -10    7.77    1.58
  11   3 -10    7.77    2.00
 -11  -3  12   10.15    2.09
  11  -3 -12    7.05    1.88
  11  -3 -12    9.98    1.72
 -11  -3  12   11.59    2.21
 -11   3  12    7.59    1.91
  11   3 -12   12.52    1.88
  11   3 -12    8.54    1.96
 -11  -3  14    9.20    2.04
 -11  -3  14    8.77    2.17
  11  -3 -14    5.42    1.96
 -11   3  14    9.89    2.35
  11   3 -14   11.60    2.44
 -11  -3  16   12.26    2.38
  11  -3 -16    9.90    2.37
 -11  -3  16    7.79    2.21
 -11   3  16    7.67    2.12
  11   3 -16    8.59    2.32
 -11  -3  18   -0.14    1.04
  11  -3 -18    1.64    1.60
 -11   3  18   -0.28    1.21
  11   3 -18    2.72    1.47
  11  -4  11    0.95    1.15
  11  -4  11    4.68    2.00
  11   4  11    0.48    1.14
  11  -4   9    2.80    1.61
 -11  -4  -9    2.65    1.28
  11  -4   9    4.94    1.66
  11   4   9    2.52    1.52
  11   4   9    4.74    1.66
  11  -4   7    3.97    1.42
  11  -4   7    5.78    2.07
 -11  -4  -7    6.92    1.95
 -11  -4  -7    7.63    1.90
 -11   4  -7    3.79    1.47
  11   4   7    6.02    1.69
  11   4   7    3.63    1.62
 -11  -4  -5    2.01    1.20
  11  -4   5   -0.33    0.98
 -11  -4  -5    0.77    1.14
  11  -4   5    0.88    1.23
 -11   4  -5    1.44    1.06
  11   4   5   -0.20    1.05
 -11  -4  -3    2.37    1.08
  11  -4   3   -0.71    1.07
 -11  -4  -3    2.87    1.36
 -11   4  -3    1.22    1.05
  11   4   3    1.90    1.43
  11  -4   1    2.83    1.33
 -11  -4  -1    6.41    1.44
 -11  -4  -1    6.89    1.83
  11  -4   1    5.50    1.78
 -11   4  -1    5.92    1.42
  11   4   1    2.35    1.14
 -11   4  -1    5.52    1.34
  11   4   1    4.52    1.62
 -11  -4   1    7.31    1.30
 -11  -4   1    7.47    1.79
  11  -4  -1    7.59    1.61
  11  -4  -1    6.83    1.95
  11  -4  -1    6.50    1.96
 -11   4   1    7.54    1.60
 -11   4   1    8.26    1.52
  11   4  -1   11.12    2.16
  11   4  -1    7.49    2.04
  11  -4  -3    5.90    1.47
  11  -4  -3    8.09    2.03
 -11  -4   3    5.87    1.62
 -11  -4   3    8.46    1.22
  11  -4  -3    6.20    1.78
  11   4  -3    6.94    1.77
 -11   4   3    7.41    1.30
 -11   4   3    7.49    1.67
  11   4  -3    6.89    1.79
  11  -4  -5    7.85    1.89
 -11  -4   5    8.07    1.95
  11  -4  -5    7.88    1.89
 -11  -4   5    6.14    1.73
  11   4  -5    7.01    1.72
  11   4  -5    6.82    1.82
 -11   4   5    7.00    1.66
 -11   4   5    8.34    1.11
 -11  -4   7    9.01    1.95
 -11  -4   7    7.94    1.91
  11  -4  -7   14.22    2.41
  11  -4  -7   12.34    2.19
  11  -4  -7    9.32    1.90
  11   4  -7   10.36    1.95
  11   4  -7   10.17    2.17
 -11   4   7    8.79    1.82
 -11  -4   9    1.05    1.02
  11  -4  -9    0.68    0.85
 -11  -4   9    0.45    1.00
  11  -4  -9    2.85    1.37
 -11   4   9    1.72    1.18
  11   4  -9    2.78    1.16
  11   4  -9    2.97    1.35
 -11  -4  11    0.42    1.06
  11  -4 -11    1.48    0.96
  11  -4 -11    2.02    1.15
 -11  -4  11    2.23    1.30
  11   4 -11    1.93    1.39
  11   4 -11    0.75    0.93
 -11   4  11    0.58    0.94
  11  -4 -13    5.43    1.79
 -11  -4  13    3.40    1.51
 -11  -4  13    6.00    1.77
 -11   4  13    3.37    1.57
  11   4 -13    2.41    1.52
 -11  -4  15    7.69    2.03
  11  -4 -15    5.80    2.04
 -11  -4  15    6.83    1.86
 -11   4  15    5.64    1.86
  11   4 -15    4.06    1.63
  11  -4 -17    1.08    1.32
 -11  -4  17    1.05    1.21
 -11   4  17    0.46    1.01
  11   4 -17   -0.63    0.93
 -11  -4  19    0.75    1.31
  11   4 -19    2.26    1.69
 -11  -5 -10    2.70    1.40
  11  -5  10    5.12    2.08
  11  -5  10    2.57    1.40
 -11   5 -10    1.16    1.38
  11   5  10    2.77    1.35
 -11  -5  -8    3.69    1.65
  11  -5   8    2.77    1.50
 -11  -5  -8    0.60    1.28
  11  -5   8    5.48    2.00
  11   5   8    2.33    1.36
 -11   5  -8    4.95    1.70
  11  -5   6    5.23    1.73
 -11  -5  -6    3.96    1.47
  11  -5   6    4.81    1.85
 -11  -5  -6    1.57    1.24
  11   5   6    3.30    1.39
 -11   5  -6    4.10    1.57
 -11   5  -6    7.20    1.83
  11  -5   4    5.59    2.01
 -11  -5  -4    7.48    1.76
 -11  -5  -4    5.82    1.78
  11  -5   4    5.58    1.66
  11   5   4    4.89    1.68
 -11   5  -4    3.72    1.44
 -11   5  -4    6.36    1.72
  11  -5   2    9.99    2.34
 -11  -5  -2    8.64    1.65
 -11  -5  -2    9.50    2.14
  11   5   2    4.77    1.60
 -11   5  -2    6.90    1.76
 -11   5  -2    5.30    1.54
 -11  -5   0    1.81    0.91
  11  -5   0    1.51    1.30
 -11  -5   0    0.97    1.29
 -11   5   0    0.53    0.84
  11   5   0   -0.77    1.03
  11   5   0    1.54    1.30
 -11   5   0    2.88    1.10
 -11  -5   2   13.22    1.65
  11  -5  -2   11.90    2.00
  11  -5  -2    8.56    2.09
  11  -5  -2   13.49    2.47
  11  -5  -2    9.50    1.87
 -11  -5   2    7.87    1.84
 -11   5   2   10.53    1.61
 -11   5   2   12.63    2.04
  11   5  -2    9.81    2.16
  11   5  -2    8.70    1.99
  11  -5  -4    3.97    1.68
  11  -5  -4    1.95    1.13
 -11  -5   4    3.38    1.56
  11  -5  -4    3.46    1.47
 -11  -5   4    4.24    1.49
 -11  -5   4    2.03    0.66
  11   5  -4    2.17    1.37
  11   5  -4    4.37    1.58
 -11   5   4    4.06    0.97
 -11   5   4    2.46    1.18
 -11  -5   6   10.89    2.29
  11  -5  -6   16.47    2.55
  11  -5  -6    9.34    2.03
  11  -5  -6    8.14    1.97
 -11  -5   6   13.17    2.41
 -11   5   6   12.97    1.26
  11   5  -6   10.93    2.17
 -11   5   6    8.59    1.91
  11   5  -6    9.26    2.16
 -11  -5   8    2.79    1.39
  11  -5  -8    4.26    1.49
 -11  -5   8    6.07    1.77
  11  -5  -8    2.94    1.24
 -11   5   8    4.89    1.57
  11   5  -8    3.01    1.44
  11   5  -8    2.97    1.24
  11  -5 -10    4.34    1.55
 -11  -5  10    2.74    1.34
 -11  -5  10    5.67    1.68
  11  -5 -10    5.54    1.57
 -11   5  10    3.82    1.47
  11   5 -10    3.79    1.60
 -11  -5  12    4.33    1.63
  11  -5 -12    3.97    1.66
 -11  -5  12    2.72    1.50
  11   5 -12    4.00    1.66
 -11   5  12    2.18    1.46
 -11  -5  14    2.15    1.47
 -11  -5  14    3.16    1.40
  11  -5 -14    3.55    1.78
 -11   5  14    3.70    1.67
  11   5 -14    2.70    1.63
 -11  -5  16    0.17    1.06
  11  -5 -16    2.80    1.78
  11   5 -16    1.52    1.31
 -11   5  16    2.40    1.56
  11  -5 -18    2.21    1.91
 -11  -5  18    3.29    1.54
  11   5 -18    2.05    1.39
 -11   5  18    5.41    2.19
  11  -6   9   -0.79    1.03
  11  -6   9   -0.14    1.40
 -11  -6  -9    0.38    1.24
 -11   6  -9    0.69    1.40
  11   6   9   -0.63    1.09
 -11  -6  -7    1.24    1.31
 -11  -6  -7    3.37    1.46
  11  -6   7    1.27    1.29
  11  -6   7    0.84    1.40
  11   6   7    2.66    1.43
 -11   6  -7    3.37    1.67
 -11  -6  -5    2.88    1.48
  11  -6   5    4.37    1.83
  11  -6   5    2.93    1.41
 -11  -6  -5    3.34    1.35
 -11   6  -5    1.88    1.29
  11   6   5    1.34    1.26
 -11   6  -5    0.64    1.25
 -11  -6  -3    4.96    1.40
  11  -6   3    7.63    2.15
 -11  -6  -3    4.85    1.74
 -11   6  -3    5.12    1.57
  11   6   3    4.81    1.59
 -11   6  -3    7.71    2.07
  11  -6   1    7.23    2.07
 -11  -6  -1    4.19    1.57
 -11  -6  -1    3.75    1.27
 -11   6  -1    4.48    1.43
  11   6   1    3.14    1.48
  11  -6  -1    6.57    1.61
  11  -6  -1    7.60    1.98
 -11  -6   1    5.51    1.79
 -11  -6   1    7.63    1.35
  11   6  -1    9.61    2.41
 -11   6   1    6.05    1.44
  11   6  -1    8.71    2.06
 -11  -6   3    0.08    0.94
  11  -6  -3    0.46    0.95
  11  -6  -3    1.45    1.07
 -11  -6   3   -0.60    0.94
 -11  -6   3    0.77    0.63
  11  -6  -3    1.57    1.27
  11  -6  -3    0.74    1.24
  11   6  -3   -1.62    0.73
  11   6  -3    0.30    1.00
 -11   6   3    1.25    0.87
 -11   6   3   -0.40    0.83
 -11  -6   5    5.31    1.80
 -11  -6   5    1.40    1.22
  11  -6  -5    3.93    1.59
  11  -6  -5    5.08    1.60
  11  -6  -5    0.55    1.30
 -11  -6   5    2.91    0.46
 -11   6   5    1.65    1.21
  11   6  -5    2.05    1.32
 -11   6   5    2.61    0.85
  11   6  -5    2.00    1.38
  11  -6  -7    1.99    1.21
  11  -6  -7    2.99    1.32
 -11  -6   7    4.74    1.64
 -11  -6   7    6.17    1.90
 -11   6   7    2.19    0.55
  11   6  -7    4.14    1.67
 -11   6   7    2.59    1.35
  11   6  -7    3.12    1.33
 -11  -6   9    6.04    1.88
  11  -6  -9    6.93    1.82
 -11  -6   9   11.03    2.31
 -11   6   9    8.85    2.09
  11   6  -9    9.54    2.21
 -11  -6  11    0.94    1.18
 -11  -6  11    0.80    1.22
  11  -6 -11    1.68    1.48
 -11   6  11    4.22    1.74
  11   6 -11    1.34    1.38
 -11  -6  13    3.73    1.65
 -11  -6  13    0.86    1.09
  11  -6 -13    1.72    1.43
 -11   6  13    2.07    1.35
  11   6 -13    3.27    1.63
  11  -6 -15   -0.23    1.29
 -11  -6  15    1.25    1.27
  11   6 -15    1.36    1.28
 -11   6  15   -0.83    1.19
  11  -6 -17    2.50    1.77
 -11  -6  17    1.10    1.41
 -11   6  17   -1.22    0.98
  11   6 -17    4.89    1.92
 -11  -7  -8   -1.45    1.11
 -11  -7  -8    1.69    1.44
  11  -7   8   -0.39    1.17
  11  -7   8    1.81    1.28
  11   7   8   -0.17    1.13
 -11   7  -8    1.88    1.59
 -11  -7  -6    2.18    1.37
 -11  -7  -6    4.97    1.79
  11  -7   6    3.74    1.58
  11  -7   6    1.59    1.66
 -11   7  -6    4.54    1.89
 -11   7  -6    3.72    1.60
  11  -7   4    3.52    1.74
 -11  -7  -4    4.28    1.80
  11  -7   4    0.76    1.38
 -11  -7  -4    2.54    1.43
 -11   7  -4    4.00    1.55
 -11   7  -4    2.77    1.52
  11   7   4    6.01    1.74
 -11  -7  -2    4.96    1.42
  11  -7   2    5.02    1.90
 -11  -7  -2    5.07    1.78
 -11   7  -2    3.36    1.49
 -11   7  -2    5.83    1.75
  11   7   2    4.24    1.59
 -11  -7   0    4.93    1.77
 -11  -7   0    4.33    1.26
  11  -7   0    7.14    1.96
 -11   7   0    7.43    1.66
  11   7   0    6.06    1.71
 -11  -7   2    2.03    0.89
 -11  -7   2    3.36    1.56
  11  -7  -2   -0.47    1.17
 -11   7   2    1.61    0.99
  11   7  -2   -0.27    1.09
  11   7  -2    0.46    1.26
 -11  -7   4    1.40    0.64
  11  -7  -4    1.24    1.09
 -11  -7   4    0.20    0.95
  11  -7  -4    0.29    1.12
 -11  -7   4    0.20    1.10
 -11   7   4    1.01    1.21
  11   7  -4   -0.17    1.09
 -11   7   4   -0.29    0.57
  11   7  -4   -0.06    1.07
  11  -7  -6    2.79    1.40
  11  -7  -6    2.98    1.40
 -11  -7   6    9.43    2.34
 -11  -7   6    5.38    1.71
 -11   7   6    5.50    1.64
  11   7  -6    4.29    1.79
 -11  -7   8    7.64    2.06
  11  -7  -8    6.05    1.89
 -11  -7   8    8.18    2.06
 -11   7   8    6.63    1.97
  11   7  -8    3.26    1.62
  11  -7 -10    4.01    1.59
 -11  -7  10    2.64    1.47
 -11  -7  10    5.36    1.82
 -11   7  10    3.39    1.47
  11   7 -10    1.89    1.43
 -11  -7  12    3.36    1.62
  11  -7 -12    1.90    1.37
 -11  -7  12    6.94    2.00
  11   7 -12    1.41    1.43
 -11   7  12    5.14    1.83
 -11  -7  14    1.23    1.33
  11  -7 -14   -2.06    1.13
  11   7 -14    0.70    1.22
 -11   7  14   -2.23    0.91
 -11  -7  16    3.43    1.66
  11   7 -16    2.39    1.66
 -11   7  16    2.11    1.54
  11  -8   7    0.50    1.30
 -11  -8  -7   -1.43    0.99
 -11  -8  -7   -0.50    1.16
  11  -8   7   -2.86    0.98
 -11   8  -7    0.65    1.48
 -11  -8  -5    3.67    1.83
  11  -8   5    3.67    1.98
 -11  -8  -5    3.94    1.57
  11  -8   5    0.96    1.43
 -11   8  -5    2.47    1.68
 -11   8  -5    0.55    1.33
  11  -8   3    4.22    1.84
 -11  -8  -3    1.70    1.19
 -11  -8  -3    1.96    1.46
 -11   8  -3    0.83    1.30
 -11   8  -3    2.59    1.48
 -11  -8  -1   10.82    1.88
 -11  -8  -1   10.90    2.49
  11  -8   1   19.45    3.12
 -11   8  -1   11.69    2.17
  11   8   1   11.72    2.20
 -11  -8   1    1.96    0.91
  11  -8  -1    4.06    1.64
 -11  -8   1    2.60    1.54
 -11   8   1    6.86    1.65
  11   8  -1    3.18    1.26
 -11  -8   3   -0.26    1.11
 -11  -8   3   -1.34    0.89
 -11  -8   3   -0.64    0.53
 -11   8   3    0.22    0.74
  11   8  -3    0.40    1.01
  11  -8  -5    5.33    1.77
 -11  -8   5    2.28    1.59
  11  -8  -5    3.97    1.60
 -11  -8   5    3.08    0.60
 -11  -8   5    3.17    1.66
 -11   8   5    3.20    1.48
  11   8  -5    3.58    1.58
 -11   8   5    3.66    1.09
 -11  -8   7    2.58    1.59
  11  -8  -7    6.88    1.90
 -11  -8   7    2.26    1.32
 -11   8   7    5.33    1.79
 -11   8   7    5.12    1.03
  11   8  -7    4.25    1.76
  11  -8  -9    5.70    2.01
 -11  -8   9    4.29    2.02
 -11  -8   9    5.33    1.73
 -11   8   9    4.63    1.82
  11   8  -9    0.80    1.42
 -11  -8  11    4.82    1.92
  11  -8 -11    5.69    2.26
 -11  -8  11    7.29    2.09
 -11   8  11    4.51    1.81
  11   8 -11    6.27    1.92
 -11  -8  13    0.60    1.17
  11   8 -13    0.10    1.08
 -11   8  13   -0.22    1.24
 -11  -9  -4    2.98    1.86
  11  -9   4    2.79    1.96
 -11  -9  -4    3.17    1.48
 -11   9  -4    2.35    1.65
 -11   9  -4    3.75    1.68
 -11  -9  -2    5.05    1.57
 -11  -9  -2    6.53    2.10
  11  -9   2    5.00    1.88
 -11   9  -2    5.36    1.79
 -11  -9   0    1.77    1.00
 -11  -9   0    2.53    1.71
  11  -9   0   -0.61    1.26
  11   9   0    0.55    1.24
 -11   9   0    2.47    1.39
 -11  -9   2    4.62    1.85
 -11  -9   2    1.08    0.85
 -11  -9   2    2.91    1.66
 -11   9   2    1.54    1.13
  11   9  -2   -0.01    1.04
 -11  -9   4    2.41    1.59
 -11  -9   4    2.05    0.76
 -11  -9   4    3.23    1.61
 -11   9   4    3.71    1.26
  11   9  -4    1.79    1.42
 -11  -9   6    1.44    1.36
 -11  -9   6    3.92    1.78
  11  -9  -6    4.09    1.72
 -11   9   6    3.02    1.00
  11   9  -6    1.03    1.39
 -11   9   6    3.26    1.56
 -11  -9   8    1.76    1.42
 -11  -9   8    2.75    1.53
  11  -9  -8    2.84    1.60
 -11   9   8    3.18    1.51
 -11   9   8    3.38    0.78
  11   9  -8    4.39    1.83
  11  -9 -10   -0.21    1.47
 -11  -9  10    0.87    1.31
 -11  -9  10   -0.50    1.27
  11   9 -10    1.28    1.48
 -11   9  10    1.28    1.48
 -11  -9  12    0.37    1.19
  11  -9 -12   -0.63    1.40
 -11   9  12    0.03    1.15
  11   9 -12   -0.93    1.01
 -11 -10  -1    2.44    1.28
 -11 -10  -1    5.57    1.95
 -11  10  -1    3.82    1.67
 -11 -10   1    0.82    0.87
 -11 -10   1    2.61    1.64
 -11  10   1    3.93    1.55
  11  10  -1    1.39    1.21
 -11 -10   3    7.61    2.21
 -11 -10   3    7.05    2.15
 -11 -10   3    6.79    1.29
  11  10  -3    3.96    1.50
 -11  10   3    6.94    1.70
 -11 -10   5    0.94    1.35
 -11 -10   5    0.71    1.66
  11  10  -5    1.00    1.32
 -11  10   5    0.32    0.84
 -11 -10   7    2.75    1.79
 -11 -10   7   -0.32    1.24
  11 -10  -7    1.79    1.86
  11  10  -7    3.17    1.68
 -11  10   7    1.90    1.63
 -11  10   7    1.00    0.81
 -11 -10   9    4.26    2.03
  11  10  -9    0.31    1.37
  12   0  10    4.44    1.92
  12   0  10    8.30    2.00
  12   0   8   10.61    2.51
  12   0   8   10.55    2.16
 -12   0  -8    8.26    2.00
  12   0   6    3.17    1.62
  12   0   6    2.97    1.30
 -12   0  -6    3.83    1.47
 -12   0  -4   -0.46    0.73
  12   0   4    0.05    1.15
 -12   0  -4   -0.74    0.82
 -12   0  -2   10.83    1.97
  12   0   2   13.39    2.53
 -12   0  -2   12.41    1.94
 -12   0   0   12.70    2.11
  12   0   0   10.69    2.31
 -12   0   0   15.42    2.03
  12   0   0   17.57    2.95
  12   0  -2   24.35    3.27
 -12   0   2   25.04    1.94
  12   0  -2   21.10    3.08
 -12   0   2   22.72    2.91
 -12   0   4   14.47    1.39
 -12   0   4   13.66    2.37
  12   0  -4   10.30    2.20
  12   0  -4   11.39    2.18
 -12   0   6    6.29    1.71
  12   0  -6    4.15    1.59
  12   0  -6    8.48    1.89
 -12   0   8    0.42    0.96
  12   0  -8    1.68    1.03
  12   0  -8    1.95    1.31
  12   0 -10    5.36    1.75
 -12   0  10    2.49    1.25
  12   0 -10    3.23    1.27
 -12   0  12   23.16    3.16
  12   0 -12   21.99    2.99
  12   0 -14    8.54    2.02
 -12   0  14   17.80    2.80
 -12   0  14   15.03    2.50
 -12   0  16   11.45    2.41
  12   0 -16    9.30    2.28
  12   0 -18    2.37    1.51
 -12   0  18    3.16    1.66
  12  -1  11   -0.56    1.47
  12  -1  11   -0.35    1.05
  12   1  11    0.14    1.05
  12   1  11    0.03    1.50
  12  -1   9    1.63    1.48
  12  -1   9    1.12    1.26
  12   1   9    0.53    1.39
  12   1   9    0.57    1.14
 -12  -1  -7    2.16    1.26
  12  -1   7    4.76    1.99
  12  -1   7    2.71    1.48
  12   1   7    5.09    1.70
 -12   1  -7    1.15    1.25
  12   1   7    6.47    2.08
  12  -1   5    0.44    1.27
 -12  -1  -5   -0.64    0.85
 -12  -1  -5   -0.19    0.87
 -12   1  -5    0.74    1.14
  12   1   5    0.58    1.51
  12  -1   3    2.89    1.75
 -12  -1  -3    5.62    1.66
 -12  -1  -3    3.89    1.28
  12   1   3    5.27    1.79
 -12   1  -3    3.09    1.19
 -12   1  -3    2.88    1.19
 -12  -1  -1   -0.33    0.69
  12  -1   1    1.36    1.23
  12  -1   1   -1.23    0.98
 -12  -1  -1   -0.12    0.81
  12  -1   1   -0.10    0.90
 -12   1  -1   -1.08    0.61
  12   1   1    1.42    1.05
 -12   1  -1   -0.04    0.84
  12   1   1    0.77    1.34
  12  -1  -1    2.68    1.46
 -12  -1   1    1.74    1.19
  12  -1  -1    1.89    1.37
 -12  -1   1    2.79    0.94
  12   1  -1    2.04    1.31
 -12   1   1    0.97    0.74
  12   1  -1    1.82    1.23
 -12   1   1    1.99    1.13
  12  -1  -3    2.86    1.32
 -12  -1   3    1.30    0.65
  12  -1  -3    2.24    1.41
 -12  -1   3    2.50    1.23
 -12   1   3    0.84    0.95
 -12   1   3    1.53    0.68
  12   1  -3    3.86    1.50
  12   1  -3    0.64    1.16
 -12  -1   5    2.58    1.34
  12  -1  -5    3.44    1.36
  12  -1  -5    3.59    1.58
  12   1  -5    3.04    1.41
 -12   1   5    4.01    0.61
 -12   1   5    4.00    1.45
  12   1  -5    5.58    1.81
  12  -1  -7   14.92    2.37
  12  -1  -7   18.60    2.76
 -12  -1   7   23.28    3.03
 -12   1   7   18.56    2.64
  12   1  -7   19.88    2.63
  12   1  -7   20.07    2.96
  12  -1  -9    4.79    1.44
  12  -1  -9    4.16    1.62
 -12  -1   9    2.53    1.30
 -12   1   9    5.88    1.66
  12   1  -9    5.06    1.37
  12   1  -9    3.32    1.46
 -12  -1  11    1.42    1.11
  12  -1 -11    1.68    1.05
  12  -1 -11    1.17    1.13
 -12  -1  11    2.01    1.15
  12   1 -11    1.05    0.89
  12   1 -11    0.56    1.04
 -12   1  11    0.68    1.01
  12  -1 -13    1.65    1.24
 -12  -1  13    1.28    1.13
 -12  -1  13   -0.99    0.81
  12  -1 -13    1.98    1.31
 -12   1  13    1.38    1.09
  12   1 -13    0.25    0.98
  12  -1 -15   -0.32    0.98
 -12  -1  15    1.38    1.28
 -12  -1  15    0.23    1.10
  12   1 -15   -0.91    1.00
 -12   1  15    0.19    1.13
  12  -1 -17   -0.15    0.96
 -12  -1  17    2.89    1.55
 -12  -1  17    1.23    1.33
 -12   1  17    0.75    1.07
  12   1 -17    0.16    1.06
  12   1 -17   -1.01    1.07
 -12  -1  19    2.09    1.46
  12  -1 -19    1.64    1.49
 -12   1  19    0.30    1.49
  12   1 -19    1.14    1.35
  12  -2  10    2.10    1.79
  12  -2  10    2.07    1.30
  12   2  10    5.84    1.71
  12   2  10    3.26    1.68
  12  -2   8    1.62    1.44
 -12  -2  -8    2.64    1.44
  12  -2   8    2.16    1.35
 -12   2  -8    0.03    1.20
  12   2   8    4.85    1.67
  12   2   8    1.49    1.46
 -12  -2  -6    2.25    1.35
  12  -2   6    4.06    1.55
  12  -2   6    3.78    1.74
 -12  -2  -6    3.04    1.27
 -12   2  -6    0.16    1.00
  12   2   6    4.87    1.81
  12  -2   4    3.59    1.76
 -12  -2  -4    4.29    1.44
 -12  -2  -4    5.81    1.65
 -12   2  -4    5.87    1.58
  12   2   4    5.86    1.91
 -12  -2  -2    2.76    1.33
  12  -2   2    4.66    1.78
 -12  -2  -2    2.40    1.11
 -12   2  -2    2.59    1.15
  12   2   2    2.18    1.46
 -12   2  -2    3.37    1.25
 -12  -2   0   14.50    2.42
 -12  -2   0   16.99    2.06
  12  -2   0   14.56    2.77
  12  -2   0   14.52    2.19
  12   2   0    8.11    2.06
 -12   2   0   14.70    2.35
 -12   2   0   13.71    1.93
  12   2   0   10.62    2.34
  12  -2  -2   11.85    2.44
  12  -2  -2   11.98    2.38
 -12  -2   2   10.52    1.45
 -12  -2   2   11.25    2.15
  12   2  -2    9.54    2.14
  12   2  -2    8.05    1.98
 -12   2   2   14.02    2.31
 -12   2   2    6.74    1.27
 -12  -2   4    5.80    1.63
  12  -2  -4    5.55    1.85
  12  -2  -4    4.52    1.65
 -12  -2   4    4.27    0.79
  12   2  -4    3.54    1.64
  12   2  -4    3.74    1.46
 -12   2   4    2.60    1.17
 -12   2   4    4.85    0.93
  12  -2  -6    6.26    1.92
 -12  -2   6    7.08    1.77
  12   2  -6    7.65    1.80
 -12   2   6    5.68    1.67
  12   2  -6    6.00    1.76
  12  -2  -8   11.50    1.98
  12  -2  -8   11.36    2.20
 -12  -2   8   12.06    2.26
  12   2  -8   10.02    1.98
 -12   2   8   13.60    2.32
  12   2  -8   11.21    2.18
 -12  -2  10    4.38    1.57
  12  -2 -10    4.43    1.27
  12  -2 -10    4.66    1.71
 -12  -2  10    4.06    1.56
  12   2 -10    4.34    1.68
 -12   2  10    5.71    1.71
  12   2 -10    4.13    1.28
  12  -2 -12    8.72    2.03
  12  -2 -12    7.81    2.09
 -12  -2  12    8.01    2.00
 -12  -2  12    6.73    1.77
 -12   2  12   10.32    2.24
  12   2 -12    6.41    1.83
 -12  -2  14    9.35    2.10
 -12  -2  14    8.65    2.14
  12  -2 -14    7.56    2.08
  12   2 -14    5.99    1.91
 -12   2  14    7.20    1.95
 -12  -2  16    2.87    1.51
 -12  -2  16    5.38    1.84
  12  -2 -16    3.83    1.72
 -12   2  16    6.21    1.90
  12   2 -16    4.22    1.65
  12  -2 -18    0.01    1.25
 -12  -2  18    1.42    1.50
 -12  -2  18   -1.36    0.99
  12   2 -18    1.70    1.33
  12   2 -18    1.12    1.43
 -12   2  18    1.83    1.53
  12  -3   9   -1.20    1.30
  12  -3   9    0.83    1.28
  12   3   9   -0.01    1.14
  12   3   9   -0.06    1.40
  12  -3   7    5.07    1.74
  12  -3   7    5.46    1.74
 -12  -3  -7    6.33    1.83
 -12  -3  -7    5.83    1.74
 -12   3  -7    1.01    1.11
  12   3   7    2.30    1.28
  12   3   7    2.25    1.60
 -12  -3  -5    0.12    1.03
  12  -3   5    0.83    1.32
 -12  -3  -5    2.01    1.21
 -12   3  -5   -0.76    0.75
  12   3   5    3.61    1.55
  12  -3   3    0.09    1.21
 -12  -3  -3    1.61    1.02
 -12  -3  -3    0.04    0.94
 -12   3  -3    1.02    0.92
  12   3   3   -0.13    1.25
 -12  -3  -1    2.51    1.08
  12  -3   1    3.61    1.69
 -12  -3  -1    0.85    1.12
  12   3   1    3.49    1.56
  12   3   1    1.17    1.13
 -12   3  -1    5.31    1.41
 -12   3  -1    4.85    1.37
 -12  -3   1    2.78    0.96
  12  -3  -1    0.17    1.04
 -12  -3   1    3.59    1.46
  12  -3  -1    1.96    1.33
  12  -3  -1    3.44    1.65
 -12   3   1    2.87    1.37
 -12   3   1    2.96    1.05
  12   3  -1    4.37    1.65
  12   3  -1    2.61    1.49
 -12  -3   3    4.47    0.95
  12  -3  -3    5.45    1.74
  12  -3  -3    6.18    1.93
 -12  -3   3    4.61    1.62
  12   3  -3    1.93    1.33
 -12   3   3    6.10    1.16
 -12   3   3    4.02    1.35
  12   3  -3    4.37    1.76
  12  -3  -5    2.95    1.31
 -12  -3   5    6.82    1.73
  12  -3  -5    5.97    1.84
  12   3  -5    7.00    1.89
 -12   3   5    6.51    0.94
 -12   3   5    7.00    1.72
  12   3  -5    4.48    1.58
 -12  -3   7    1.96    1.18
  12  -3  -7    4.59    1.68
  12  -3  -7    3.01    1.36
  12   3  -7    3.46    1.31
  12   3  -7    4.82    1.70
 -12   3   7    2.62    1.21
  12  -3  -9    3.76    1.58
 -12  -3   9    5.94    1.68
  12  -3  -9    1.21    1.05
 -12  -3   9    1.59    1.27
  12  -3  -9    4.84    1.59
  12   3  -9    1.87    1.39
 -12   3   9    3.98    1.57
  12   3  -9    2.96    1.26
 -12  -3  11    0.45    0.97
  12  -3 -11    1.53    1.20
 -12  -3  11    1.48    1.22
 -12   3  11    0.99    1.06
  12   3 -11    0.24    1.16
 -12  -3  13    1.05    1.12
 -12  -3  13    0.79    1.19
  12  -3 -13    2.60    1.46
 -12   3  13    0.87    1.14
  12   3 -13    0.93    1.29
 -12  -3  15    2.91    1.63
  12  -3 -15    3.08    1.70
 -12  -3  15    2.82    1.49
 -12   3  15    2.35    1.41
  12   3 -15    5.83    1.94
 -12  -3  17    0.17    1.11
  12  -3 -17    1.11    1.31
 -12  -3  17    1.08    1.37
 -12   3  17    0.25    1.15
  12   3 -17    0.95    1.48
 -12  -4 -10    5.24    1.95
  12  -4  10   -0.49    1.23
  12  -4  10    2.24    1.49
  12   4  10    0.74    1.20
 -12  -4  -8    0.99    1.24
  12  -4   8    0.89    1.31
 -12  -4  -8   -0.85    1.01
  12  -4   8    2.20    1.67
  12   4   8    1.57    1.42
  12   4   8   -0.15    1.06
 -12  -4  -6    4.64    1.71
  12  -4   6    5.73    1.67
 -12  -4  -6    6.46    1.79
  12  -4   6    7.46    2.28
  12   4   6    3.95    1.64
 -12   4  -6    5.64    1.67
 -12  -4  -4    3.28    1.58
 -12  -4  -4    5.59    1.51
  12  -4   4    5.38    1.95
  12   4   4    2.57    1.50
 -12   4  -4    4.55    1.51
 -12  -4  -2    8.13    1.69
  12  -4   2    4.62    1.76
 -12  -4  -2    5.25    1.61
  12   4   2    4.51    1.68
 -12   4  -2    6.26    1.60
  12  -4   0    1.16    1.50
 -12  -4   0    3.57    1.49
 -12  -4   0    3.98    1.10
  12   4   0    1.90    1.35
 -12   4   0    4.02    1.29
 -12   4   0    3.32    1.21
  12   4   0    2.71    1.50
  12  -4  -2    4.59    1.69
 -12  -4   2    4.87    1.04
  12  -4  -2    4.90    1.57
  12  -4  -2    6.30    2.04
 -12  -4   2    4.52    1.47
 -12   4   2    4.38    1.15
 -12   4   2    4.91    1.51
  12   4  -2    5.17    1.74
  12   4  -2    4.62    1.65
  12  -4  -4    4.00    1.64
 -12  -4   4    4.72    1.60
 -12  -4   4    4.82    0.83
  12  -4  -4    3.96    1.57
 -12   4   4    6.33    1.75
  12   4  -4    6.51    1.82
  12   4  -4    6.37    1.87
 -12   4   4    6.04    1.08
  12  -4  -6    6.43    1.98
  12  -4  -6    7.74    1.98
 -12  -4   6    6.62    1.82
  12  -4  -6    3.76    1.53
 -12   4   6    6.16    1.72
  12   4  -6    6.05    1.71
 -12   4   6    7.65    0.83
  12   4  -6    7.05    1.95
  12  -4  -8    5.13    1.58
  12  -4  -8    3.01    1.36
 -12  -4   8    4.96    1.66
  12  -4  -8    6.89    1.94
 -12  -4   8    2.70    1.48
  12   4  -8    5.19    1.51
  12   4  -8    4.90    1.73
 -12   4   8    5.28    1.71
 -12  -4  10    4.92    1.60
  12  -4 -10    2.46    1.52
 -12  -4  10    2.35    1.30
 -12   4  10    2.61    1.36
  12   4 -10    2.65    1.55
 -12  -4  12    1.66    1.34
 -12  -4  12    2.87    1.46
  12  -4 -12    3.30    1.67
 -12   4  12    1.12    1.13
  12   4 -12    2.09    1.36
 -12  -4  14    2.07    1.29
  12  -4 -14    6.70    2.00
 -12  -4  14    4.47    1.69
 -12   4  14    6.26    1.94
  12   4 -14    4.11    1.64
 -12  -4  16    5.50    2.04
  12  -4 -16    2.92    1.72
 -12  -4  16    3.25    1.56
 -12   4  16    1.13    1.21
  12   4 -16    1.68    1.54
 -12  -5  -9    3.97    1.68
  12  -5   9    6.34    1.89
  12  -5   9    3.64    1.82
  12   5   9    1.86    1.32
 -12  -5  -7    6.07    1.71
 -12  -5  -7    2.79    1.61
  12  -5   7    2.36    1.76
  12  -5   7    1.15    1.20
  12   5   7    1.77    1.45
 -12   5  -7    2.07    1.35
  12  -5   5    8.34    2.20
 -12  -5  -5    4.60    1.54
  12  -5   5    8.19    2.28
 -12  -5  -5    6.03    2.02
  12   5   5    3.80    1.70
 -12   5  -5    3.78    1.56
  12  -5   3    2.93    1.73
 -12  -5  -3    1.16    1.33
 -12  -5  -3    1.95    1.12
  12   5   3    0.39    1.27
 -12   5  -3    3.63    1.47
 -12  -5  -1    2.58    1.34
  12  -5   1    2.06    1.63
 -12  -5  -1    1.69    0.93
 -12   5  -1    1.57    1.12
  12   5   1    2.38    1.47
  12  -5  -1    9.08    2.23
 -12  -5   1    8.23    2.09
 -12  -5   1    5.63    1.23
  12  -5  -1   11.11    2.03
  12   5  -1    3.45    1.63
  12   5  -1    8.73    2.13
 -12   5   1    5.21    1.51
 -12   5   1    4.43    1.34
 -12  -5   3    1.56    0.67
  12  -5  -3    0.75    1.18
 -12  -5   3    2.46    1.46
  12  -5  -3    5.08    1.70
  12  -5  -3    0.90    1.13
  12   5  -3    0.71    1.15
  12   5  -3    0.88    1.28
 -12   5   3    1.07    0.82
 -12   5   3    2.03    1.14
 -12  -5   5    2.84    1.39
  12  -5  -5    3.39    1.46
  12  -5  -5    4.64    1.67
  12  -5  -5    2.02    1.19
 -12   5   5    4.48    0.93
  12   5  -5    1.16    1.27
 -12   5   5    4.62    1.48
  12   5  -5    5.65    1.79
  12  -5  -7    9.41    2.11
  12  -5  -7    5.34    1.68
 -12  -5   7    8.13    1.98
  12  -5  -7    6.39    1.93
 -12  -5   7    3.20    1.56
 -12   5   7    6.74    1.80
  12   5  -7    6.30    1.90
  12  -5  -9    6.03    1.83
 -12  -5   9    3.93    1.43
 -12  -5   9    3.17    1.54
  12   5  -9    4.35    1.83
 -12   5   9    2.00    1.37
  12  -5 -11    2.79    1.60
 -12  -5  11    0.04    1.13
 -12  -5  11    2.59    1.41
 -12   5  11    1.39    1.39
  12   5 -11    0.35    1.18
 -12  -5  13    0.68    1.06
  12  -5 -13    1.57    1.31
 -12  -5  13    0.85    1.44
  12   5 -13   -0.06    1.24
 -12   5  13    1.42    1.24
  12  -5 -15    2.11    1.50
 -12  -5  15    2.20    1.45
 -12  -5  15    1.73    1.53
  12   5 -15    3.81    1.86
 -12   5  15    0.38    1.24
 -12  -5  17    1.15    1.46
 -12   5  17    2.33    1.53
  12   5 -17    2.73    1.69
 -12  -6  -8    1.50    1.37
  12  -6   8    0.85    1.34
  12  -6   8   -1.26    1.40
 -12  -6  -8    4.65    1.80
  12   6   8   -1.28    0.92
 -12  -6  -6    1.19    1.26
 -12  -6  -6    1.38    1.27
  12  -6   6    0.31    1.13
  12  -6   6    1.01    1.51
 -12   6  -6    0.56    1.25
  12  -6   4    4.47    1.98
 -12  -6  -4    9.58    1.89
 -12  -6  -4    6.30    2.01
 -12   6  -4    9.30    2.07
  12   6   4    5.10    1.70
  12  -6   2    3.13    1.75
 -12  -6  -2    2.15    1.36
 -12  -6  -2    2.21    1.12
  12   6   2   -0.20    1.07
 -12   6  -2    1.65    1.18
  12  -6   0   10.81    2.51
 -12  -6   0   10.87    2.38
 -12  -6   0    6.08    1.43
  12   6   0    7.13    1.93
 -12   6   0    8.39    1.73
  12  -6  -2   -0.74    0.84
 -12  -6   2   -0.15    0.89
 -12  -6   2    2.38    0.87
  12  -6  -2    2.05    1.44
  12   6  -2    0.72    1.25
 -12   6   2    0.38    1.01
 -12   6   2    1.62    0.97
  12   6  -2    0.67    1.23
  12  -6  -4    2.27    1.31
 -12  -6   4    1.45    0.66
  12  -6  -4    1.96    1.32
  12  -6  -4   -0.89    0.96
 -12  -6   4    3.79    1.48
  12   6  -4    4.43    1.75
 -12   6   4    0.93    1.03
 -12   6   4    2.73    0.94
  12   6  -4    2.04    1.31
  12  -6  -6    3.81    1.57
 -12  -6   6    4.01    1.64
 -12  -6   6    3.29    1.43
  12  -6  -6    4.75    1.63
 -12   6   6    3.19    0.79
  12   6  -6    2.36    1.47
 -12   6   6    2.08    1.36
 -12  -6   8    0.97    1.20
 -12  -6   8    3.90    1.61
  12  -6  -8    2.60    1.50
 -12   6   8    4.43    1.69
  12   6  -8    1.44    1.25
 -12  -6  10    3.42    1.65
 -12  -6  10   12.63    2.56
  12  -6 -10    9.85    2.20
 -12   6  10    7.19    2.04
  12   6 -10   10.29    2.38
 -12  -6  12    4.34    1.81
  12  -6 -12    3.03    1.66
 -12  -6  12    2.54    1.64
 -12   6  12    2.00    1.53
  12   6 -12    2.39    1.54
 -12  -6  14    0.72    1.38
 -12  -6  14    0.10    1.21
  12  -6 -14   -0.94    1.11
 -12   6  14    0.63    1.18
  12   6 -14    0.05    1.28
 -12  -6  16    0.02    1.28
  12   6 -16    0.40    1.32
  12  -7   7   -0.82    1.40
  12  -7   5    0.17    1.49
 -12  -7  -5    2.89    1.43
  12  -7   5    1.95    1.76
 -12  -7  -5    4.74    1.87
 -12   7  -5    5.91    1.93
 -12   7  -5    2.82    1.50
 -12  -7  -3    3.68    1.42
 -12  -7  -3    5.83    2.12
  12  -7   3    3.10    1.86
 -12   7  -3    3.67    1.53
  12   7   3    1.83    1.38
 -12   7  -3    5.46    1.75
  12  -7   1    7.09    2.31
 -12  -7  -1    4.52    1.70
 -12  -7  -1    7.15    1.57
 -12   7  -1    8.13    1.81
  12   7   1    3.54    1.50
  12  -7  -1    0.68    1.42
 -12  -7   1    0.88    1.12
 -12  -7   1    1.16    0.85
 -12   7   1    1.53    1.09
  12   7  -1    0.44    1.27
  12  -7  -3   -0.19    0.98
  12  -7  -3   -0.54    1.23
 -12  -7   3   -0.10    0.53
 -12  -7   3    0.34    1.04
 -12   7   3   -0.08    0.74
  12   7  -3    0.54    1.17
 -12  -7   5    1.82    1.45
 -12  -7   5    1.73    1.33
  12  -7  -5    0.96    1.19
 -12   7   5    1.97    0.84
  12   7  -5    5.13    1.89
 -12   7   5    2.16    1.36
  12  -7  -7    6.93    1.94
 -12  -7   7    3.98    1.79
 -12  -7   7    5.79    1.96
  12   7  -7    7.52    2.18
 -12   7   7    3.68    1.66
 -12   7   7    5.27    0.85
  12  -7  -9    6.71    1.86
 -12  -7   9    2.50    1.57
 -12  -7   9    5.39    1.96
  12   7  -9    6.39    2.01
 -12   7   9    4.56    1.65
 -12  -7  11    2.59    1.48
  12  -7 -11    5.02    1.93
 -12  -7  11    5.02    1.80
 -12   7  11    0.94    1.36
  12   7 -11    4.37    1.80
 -12  -7  13   -0.10    1.25
 -12  -7  13    0.39    1.26
  12  -7 -13   -0.93    1.18
  12   7 -13   -1.14    1.27
 -12   7  13   -0.44    1.31
 -12  -8  -4    0.67    1.18
 -12  -8  -4    3.41    1.68
  12  -8   4    4.11    1.95
 -12   8  -4    1.93    1.52
 -12   8  -4    3.13    1.71
  12  -8   2    0.05    1.49
 -12  -8  -2    1.13    1.12
 -12  -8  -2    2.45    1.58
  12   8   2    3.24    1.56
 -12   8  -2    1.41    1.31
 -12  -8   0    0.76    0.88
  12  -8   0    0.27    1.41
 -12  -8   0    0.68    1.28
  12   8   0   -2.20    0.91
 -12   8   0    0.90    1.06
 -12  -8   2   -0.05    1.27
 -12  -8   2    0.89    0.78
  12   8  -2    0.09    1.23
 -12   8   2    2.14    1.12
 -12  -8   4    1.80    1.44
 -12  -8   4    2.91    0.80
 -12  -8   4    4.99    1.92
 -12   8   4    5.25    1.38
  12   8  -4    5.15    1.92
 -12  -8   6   -0.03    1.33
 -12  -8   6    0.16    1.20
  12  -8  -6    2.06    1.40
 -12   8   6    1.64    0.79
 -12   8   6    1.46    1.26
  12   8  -6    1.13    1.38
 -12  -8   8    2.91    1.49
  12  -8  -8    3.62    1.51
 -12  -8   8    2.49    1.60
  12   8  -8    1.03    1.33
 -12   8   8    3.29    1.76
 -12  -8  10    1.11    1.36
  12  -8 -10    3.51    1.86
 -12  -8  10    4.27    1.80
 -12   8  10    2.38    1.59
  12   8 -10   -0.05    1.25
 -12  -8  12    0.86    1.48
  12  -8 -12   -1.40    1.48
 -12  -8  12    0.29    1.24
 -12   8  12    0.38    1.41
  12   8 -12   -0.18    1.28
 -12  -9  -1    2.65    1.65
 -12  -9  -1    1.13    1.04
  12  -9   1    1.20    1.82
 -12   9  -1    0.72    1.23
 -12  -9   1    0.99    0.92
 -12  -9   1    4.05    1.77
  12   9  -1    3.11    1.58
 -12   9   1    2.53    1.37
 -12  -9   3    3.88    1.76
 -12  -9   3    3.44    0.98
 -12   9   3    2.86    1.30
  12   9  -3    2.55    1.39
 -12  -9   5    3.02    1.65
 -12  -9   5    5.84    2.13
  12   9  -5    2.30    1.63
 -12   9   5    2.13    0.96
 -12  -9   7    0.04    1.13
  12  -9  -7    0.96    1.67
 -12  -9   7    0.16    1.43
  12   9  -7    1.79    1.57
 -12   9   7    1.03    0.70
 -12   9   7   -0.34    1.21
 -12  -9   9    3.12    1.77
  12  -9  -9    3.67    1.74
 -12  -9   9    2.37    1.60
  12   9  -9    3.37    1.66
 -12   9   9    2.18    1.52
  13   0   9    2.00    1.42
  13   0   9    0.80    1.49
  13   0   7    0.59    1.20
  13   0   7    0.72    1.41
 -13   0  -7    0.16    1.15
 -13   0  -5   -0.77    0.91
  13   0   5   -0.19    1.46
  13   0   3    1.76    1.51
 -13   0  -3   -0.33    0.87
 -13   0  -3    0.29    0.87
 -13   0  -1   -1.24    0.60
 -13   0  -1   -0.40    0.79
  13   0   1   -0.10    1.19
  13   0  -1   -0.04    1.11
 -13   0   1   -0.43    0.54
 -13   0   1   -0.01    0.80
  13   0  -1    1.22    1.41
  13   0  -3    0.27    1.22
 -13   0   3   -0.63    0.43
  13   0  -3    0.18    1.03
 -13   0   3   -0.70    0.91
 -13   0   5    0.26    1.01
  13   0  -5    0.44    1.18
  13   0  -5    0.82    1.15
  13   0  -7    2.20    1.48
  13   0  -7   -0.08    0.84
 -13   0   7    1.27    1.08
  13   0  -9    1.29    1.38
 -13   0   9   -1.16    0.80
  13   0 -11    0.84    1.29
 -13   0  11   -0.33    1.03
 -13   0  13   -0.72    0.96
  13   0 -13    0.10    1.08
  13   0 -15   -0.01    0.91
  13   0 -15   -0.57    1.13
 -13   0  15   -0.75    0.74
 -13   0  17   -1.41    1.10
  13   0 -17   -0.40    1.15
 -13  -1  -8    5.59    1.76
  13  -1   8    2.73    2.02
  13  -1   8    4.54    1.71
  13   1   8    5.59    1.72
 -13   1  -8    6.52    1.88
  13   1   8    4.04    1.91
  13  -1   6    3.14    1.73
 -13  -1  -6   -0.15    1.01
 -13   1  -6    1.94    1.28
  13   1   6    2.72    1.86
 -13  -1  -4    1.75    1.21
  13  -1   4    4.33    1.97
 -13  -1  -4    2.43    1.22
  13   1   4    4.94    1.99
 -13   1  -4    0.59    0.95
 -13  -1  -2    0.27    1.04
 -13  -1  -2    1.30    0.96
  13  -1   2    2.62    1.75
 -13   1  -2    2.88    1.24
  13   1   2    4.44    1.96
 -13   1  -2    0.99    1.05
  13  -1   0    9.72    2.37
  13  -1   0   12.82    2.61
 -13  -1   0   11.03    1.76
 -13  -1   0   10.32    2.07
  13   1   0   11.35    2.50
 -13   1   0   11.33    1.78
  13   1   0   12.04    2.60
 -13   1   0   10.58    2.00
 -13  -1   2   14.16    1.73
  13  -1  -2   13.62    2.75
 -13  -1   2   12.98    2.32
  13  -1  -2   12.50    2.59
  13   1  -2    9.49    2.17
 -13   1   2   15.29    1.83
  13   1  -2   11.77    2.47
 -13   1   2   11.45    2.21
 -13  -1   4    9.79    2.11
  13  -1  -4   14.20    2.70
 -13  -1   4   12.99    1.28
  13  -1  -4    4.40    1.61
 -13   1   4   15.22    2.46
  13   1  -4    6.60    1.88
  13   1  -4   10.82    2.41
 -13   1   4   13.07    1.37
  13  -1  -6    4.08    1.51
  13  -1  -6    4.91    1.75
 -13  -1   6    8.57    1.92
 -13   1   6    2.33    1.28
  13   1  -6    2.24    1.38
  13   1  -6    5.02    1.61
  13  -1  -8    3.29    1.41
 -13  -1   8    3.93    1.58
  13  -1  -8    3.60    1.60
 -13   1   8   -0.17    0.89
  13   1  -8    2.23    1.20
  13   1  -8    1.16    1.31
 -13  -1  10    2.26    1.31
  13  -1 -10    2.58    1.66
  13   1 -10   -0.34    1.17
 -13   1  10    1.75    1.26
  13  -1 -12   11.30    2.43
 -13  -1  12   12.64    2.54
  13   1 -12    7.28    2.06
 -13   1  12    9.61    2.21
 -13  -1  14    8.55    2.18
 -13  -1  14   12.45    2.50
  13  -1 -14   17.79    2.94
 -13   1  14    9.45    2.19
  13   1 -14   10.71    2.40
 -13  -1  16   10.43    2.34
 -13  -1  16    6.93    2.10
  13  -1 -16    8.47    2.35
  13   1 -16    7.76    2.21
 -13   1  16    8.62    2.26
  13  -2   9   -1.23    1.25
  13  -2   9    2.81    1.52
  13   2   9   -1.05    1.24
  13   2   9    1.01    1.24
 -13  -2  -7    0.15    1.23
  13  -2   7    0.34    1.51
  13  -2   7    0.35    1.31
 -13  -2  -7    3.02    1.33
 -13   2  -7   -0.73    1.04
  13   2   7    1.03    1.36
 -13  -2  -5    0.58    1.04
  13  -2   5    2.88    1.59
 -13  -2  -5    0.00    0.94
  13   2   5   -0.01    1.45
 -13   2  -5    2.22    1.31
  13  -2   3   -0.33    1.35
 -13  -2  -3    1.07    0.99
 -13  -2  -3   -0.42    0.89
 -13   2  -3    0.80    1.04
  13   2   3    1.37    1.66
 -13  -2  -1   -0.16    0.69
 -13  -2  -1    0.17    0.86
  13  -2   1   -0.82    1.07
 -13   2  -1    0.46    0.99
  13   2   1    0.55    1.24
 -13   2  -1    0.98    0.83
  13  -2  -1    1.25    1.33
 -13  -2   1    1.62    1.16
  13  -2  -1    1.16    1.49
 -13   2   1    1.23    0.87
  13   2  -1    2.60    1.61
  13   2  -1   -0.84    1.13
 -13   2   1    2.09    1.16
  13  -2  -3    0.83    1.40
  13  -2  -3    2.04    1.41
 -13  -2   3    1.96    0.74
 -13  -2   3    3.09    1.53
  13   2  -3    2.44    1.33
 -13   2   3    0.68    0.68
 -13   2   3    2.07    1.15
  13   2  -3    4.31    1.75
 -13  -2   5    0.55    1.03
  13  -2  -5   -0.10    1.26
  13  -2  -5    0.25    1.19
 -13   2   5   -0.28    1.03
  13   2  -5    1.07    1.20
 -13   2   5    0.33    0.42
  13   2  -5    2.78    1.55
  13  -2  -7    3.30    1.55
  13  -2  -7    4.73    1.60
 -13  -2   7    1.96    1.30
  13   2  -7    1.70    1.47
  13   2  -7    1.81    1.18
 -13   2   7    1.67    1.18
 -13  -2   9    0.76    1.10
  13  -2  -9    1.89    1.46
 -13   2   9    1.73    1.36
  13   2  -9    2.61    1.65
  13  -2 -11    0.74    1.11
 -13  -2  11    0.81    1.00
 -13  -2  11    2.36    1.35
  13   2 -11    4.03    1.70
 -13   2  11    0.54    0.97
 -13  -2  13   -0.59    1.01
 -13  -2  13   -0.22    0.89
  13  -2 -13    1.92    1.42
 -13   2  13    0.98    1.13
  13   2 -13    0.49    1.19
 -13  -2  15    1.53    1.38
  13  -2 -15    1.94    1.66
 -13  -2  15   -0.18    1.20
 -13   2  15   -0.17    1.02
  13   2 -15   -0.01    1.02
 -13  -2  17    1.42    1.44
 -13  -2  17    0.39    1.06
  13  -2 -17    1.13    1.28
 -13   2  17   -0.24    1.03
  13   2 -17    1.99    1.68
 -13  -3  -8    1.35    1.32
  13  -3   8    1.58    1.56
 -13  -3  -8    1.49    1.30
  13  -3   8    1.11    1.29
  13   3   8    2.39    1.57
  13   3   8    0.87    1.15
 -13   3  -8    0.55    1.26
 -13  -3  -6    0.60    1.17
 -13  -3  -6    4.80    1.74
  13  -3   6   -1.02    1.00
  13   3   6   -0.09    1.29
 -13   3  -6    0.28    1.17
 -13  -3  -4    2.43    1.29
  13  -3   4    0.92    1.51
 -13  -3  -4    2.39    1.26
 -13   3  -4    1.81    1.27
  13   3   4   -0.50    1.18
 -13  -3  -2    5.64    1.42
 -13  -3  -2    2.85    1.46
  13  -3   2    4.84    2.04
  13   3   2    3.93    1.95
 -13   3  -2    6.96    1.63
  13  -3   0    0.68    1.35
 -13  -3   0    5.83    1.64
 -13  -3   0    0.60    0.80
 -13   3   0   -0.29    0.79
  13   3   0    1.00    1.31
  13   3   0    2.90    1.57
 -13   3   0    1.50    0.98
  13  -3  -2    1.86    1.76
  13  -3  -2   -0.09    1.05
 -13  -3   2    4.53    1.50
  13  -3  -2    2.75    1.53
 -13  -3   2    2.56    0.85
 -13   3   2    1.79    0.93
  13   3  -2    1.98    1.39
 -13   3   2    3.29    1.34
  13   3  -2    2.21    1.47
 -13  -3   4    5.40    0.84
  13  -3  -4    6.36    1.96
 -13  -3   4    1.94    1.42
  13  -3  -4    7.15    2.08
 -13   3   4    5.26    1.62
  13   3  -4    6.84    1.90
 -13   3   4    3.93    0.96
  13   3  -4    5.90    1.83
  13  -3  -6    9.27    2.04
  13  -3  -6    8.71    2.25
 -13  -3   6    8.71    2.16
  13   3  -6   10.53    2.35
 -13   3   6   10.49    2.17
  13   3  -6   10.46    2.19
 -13  -3   8    6.09    1.76
  13  -3  -8    3.00    1.69
  13   3  -8    4.44    1.72
 -13   3   8    2.83    1.39
  13  -3 -10    4.89    1.84
  13  -3 -10    4.51    1.65
 -13  -3  10    3.07    1.47
 -13  -3  10    4.36    1.66
  13   3 -10    5.09    1.83
 -13   3  10    4.35    1.64
 -13  -3  12    4.57    1.89
 -13  -3  12    3.05    1.52
  13  -3 -12    2.62    1.34
  13   3 -12    2.08    1.45
 -13   3  12    2.17    1.45
  13  -3 -14    6.48    1.96
 -13  -3  14    4.74    1.81
 -13  -3  14    3.10    1.67
 -13   3  14    2.16    1.42
  13   3 -14    3.81    1.81
 -13  -3  16    2.64    1.55
 -13  -3  16    0.97    1.29
  13  -3 -16    1.47    1.41
  13   3 -16    0.40    1.35
 -13   3  16    6.63    2.18
 -13  -4  -7    1.13    1.30
 -13  -4  -7    1.79    1.37
  13  -4   7    1.84    1.49
  13  -4   7    0.36    1.41
 -13   4  -7    0.52    1.19
  13   4   7    1.12    1.36
  13  -4   5    1.25    1.64
 -13  -4  -5    4.61    1.76
 -13  -4  -5    1.46    1.10
 -13   4  -5    1.96    1.32
  13   4   5    1.74    1.52
 -13  -4  -3    2.22    1.37
 -13  -4  -3    3.17    1.34
  13  -4   3    0.47    1.52
 -13   4  -3    0.23    1.00
  13   4   3    0.11    1.43
 -13  -4  -1    1.57    1.01
  13  -4   1   -0.34    1.35
 -13  -4  -1    0.61    1.06
  13   4   1    0.74    1.32
 -13   4  -1   -1.27    0.73
 -13  -4   1    0.59    0.72
  13  -4  -1    0.03    1.49
 -13  -4   1    1.46    1.20
  13   4  -1    1.19    1.33
 -13   4   1    0.95    0.89
 -13   4   1    0.71    1.03
  13   4  -1    3.91    1.61
  13  -4  -3    0.21    1.30
 -13  -4   3    4.49    0.95
  13  -4  -3    1.48    1.23
 -13  -4   3    1.38    1.29
  13   4  -3    2.48    1.54
 -13   4   3    2.43    0.89
 -13   4   3    4.21    1.43
  13   4  -3    1.49    1.40
  13  -4  -5    4.71    1.91
  13  -4  -5    2.63    1.44
 -13  -4   5    4.22    1.61
 -13   4   5    3.42    1.39
  13   4  -5    6.26    2.01
 -13   4   5    2.87    0.77
  13  -4  -7    0.19    1.34
 -13  -4   7    3.37    1.54
  13  -4  -7    3.02    1.53
 -13   4   7    2.82    1.42
  13   4  -7    3.21    1.53
 -13  -4   9    2.44    1.34
  13  -4  -9    2.95    1.52
 -13  -4   9    0.43    1.21
  13   4  -9    1.34    1.29
 -13   4   9    2.40    1.37
 -13  -4  11    6.92    1.99
 -13  -4  11    5.06    1.76
  13  -4 -11    4.85    1.74
  13   4 -11    2.97    1.67
 -13   4  11    3.47    1.47
 -13  -4  13   -0.06    1.11
 -13  -4  13    0.69    1.42
  13  -4 -13    0.37    1.19
 -13   4  13   -1.45    0.98
  13   4 -13   -0.30    1.24
  13  -4 -15    0.94    1.38
 -13  -4  15    0.50    1.28
 -13  -4  15   -1.56    1.05
  13   4 -15    2.21    1.76
 -13   4  15   -0.29    1.04
 -13  -5  -6    1.95    1.40
 -13  -5  -6    4.10    1.66
  13  -5   6    2.77    1.94
 -13   5  -6    1.47    1.28
  13   5   6    0.26    1.37
 -13  -5  -4    3.89    1.36
  13  -5   4    2.97    1.83
 -13  -5  -4    3.91    1.69
 -13   5  -4    5.49    1.65
  13   5   4    3.31    1.59
 -13  -5  -2    7.84    1.72
  13  -5   2    2.61    1.83
 -13  -5  -2    4.27    1.68
 -13   5  -2    6.94    1.60
  13   5   2    5.07    1.84
 -13  -5   0    1.84    0.95
  13  -5   0    1.15    1.46
 -13  -5   0    1.60    1.38
 -13   5   0    0.69    1.01
  13   5   0    0.56    1.39
  13  -5  -2    1.88    1.19
  13  -5  -2    6.24    2.12
 -13  -5   2    2.67    1.40
 -13  -5   2    4.88    1.10
  13   5  -2    5.16    2.05
 -13   5   2    2.25    1.32
  13   5  -2    1.77    1.58
 -13   5   2    3.03    1.07
 -13  -5   4    1.42    1.28
 -13  -5   4    1.10    0.51
  13  -5  -4    0.72    1.26
  13  -5  -4    0.74    1.55
  13  -5  -4    4.62    1.64
 -13   5   4    1.69    1.18
 -13   5   4    1.17    0.70
  13   5  -4    1.03    1.27
  13  -5  -6    6.01    1.79
 -13  -5   6    3.11    1.43
  13  -5  -6    1.25    1.53
  13   5  -6    1.55    1.33
 -13   5   6    2.89    0.65
 -13   5   6    3.24    1.44
  13  -5  -8    2.26    1.49
 -13  -5   8    1.34    1.26
 -13  -5   8    1.07    1.16
  13   5  -8    4.09    1.69
 -13   5   8    1.37    1.18
 -13  -5  10    8.11    2.26
  13  -5 -10    8.15    2.08
 -13  -5  10    8.47    2.20
 -13   5  10    9.46    2.30
  13   5 -10    5.00    1.88
 -13  -5  12    4.25    1.85
  13  -5 -12    3.57    1.80
 -13   5  12    6.12    1.96
  13   5 -12    8.82    2.51
 -13  -5  14    0.36    1.19
  13  -5 -14   -1.47    1.02
 -13  -5  14   -0.54    1.07
  13   5 -14    1.23    1.36
 -13   5  14   -1.44    1.05
  13  -6   5    2.83    2.00
 -13  -6  -5    3.28    1.67
 -13  -6  -5    4.06    1.61
  13   6   5    2.25    1.49
 -13   6  -5    0.21    1.29
 -13  -6  -3    4.63    1.81
 -13  -6  -3    3.46    1.39
  13  -6   3    5.10    2.28
 -13   6  -3    3.07    1.38
  13   6   3    4.65    1.87
  13  -6   1    3.40    1.79
 -13  -6  -1    2.36    1.67
 -13  -6  -1    2.25    1.09
  13   6   1    4.53    1.74
 -13   6  -1    3.52    1.35
 -13  -6   1    2.09    0.94
  13  -6  -1    1.08    1.42
 -13  -6   1    0.14    1.22
  13   6  -1    0.45    1.41
 -13   6   1    0.80    0.93
  13  -6  -3   -0.36    1.33
 -13  -6   3    0.24    0.99
 -13  -6   3   -0.25    0.53
  13  -6  -3   -1.01    0.88
 -13   6   3    0.37    1.02
 -13   6   3    0.17    0.66
  13   6  -3    0.97    1.21
  13  -6  -5    0.55    1.16
  13  -6  -5    0.68    1.53
 -13  -6   5    1.55    1.36
 -13   6   5    0.19    0.61
  13   6  -5    2.32    1.38
 -13   6   5    0.11    1.09
  13  -6  -7    3.07    1.43
 -13  -6   7    3.01    1.59
 -13  -6   7    4.46    1.82
 -13   6   7    3.22    1.58
  13   6  -7    3.25    1.77
  13  -6  -9    4.37    1.83
 -13  -6   9    2.00    1.67
 -13  -6   9    4.65    1.67
 -13   6   9    5.18    1.88
  13   6  -9    8.18    2.23
 -13  -6  11    0.75    1.47
  13  -6 -11    1.61    1.56
 -13  -6  11    0.35    1.13
  13   6 -11    2.80    1.67
 -13   6  11    3.36    1.69
 -13  -6  13    0.66    1.32
  13  -6 -13   -0.44    1.12
 -13  -6  13   -0.16    1.20
  13   6 -13   -1.36    0.99
 -13   6  13    1.28    1.47
 -13  -7  -4    1.48    1.15
  13  -7   4    1.13    1.41
 -13  -7  -4    1.09    1.47
 -13   7  -4    3.48    1.57
  13   7   4    4.18    1.79
  13  -7   2    4.98    2.09
 -13  -7  -2    2.58    1.48
 -13  -7  -2    2.42    1.22
 -13   7  -2   11.22    2.25
  13   7   2    2.03    1.55
 -13  -7   0    1.27    1.28
  13  -7   0    3.36    1.71
 -13  -7   0    0.80    0.86
  13   7   0    2.12    1.38
 -13   7   0    6.91    1.78
 -13  -7   2    0.61    0.72
  13  -7  -2    0.48    1.39
 -13  -7   2    2.08    1.46
  13   7  -2    2.59    1.66
 -13   7   2    1.91    1.11
 -13  -7   4    1.79    1.33
  13  -7  -4    0.00    1.08
 -13  -7   4    3.07    0.69
  13   7  -4    3.13    1.73
 -13   7   4    1.42    1.24
 -13   7   4    2.29    1.03
 -13  -7   6    2.83    1.64
 -13  -7   6    1.18    1.38
  13  -7  -6    2.23    1.43
  13   7  -6    3.33    1.71
 -13   7   6    1.25    1.41
 -13   7   6    2.86    0.79
  13  -7  -8    1.56    1.46
 -13  -7   8    0.14    1.17
 -13  -7   8    1.86    1.71
  13   7  -8    4.47    1.85
 -13   7   8    1.73    1.51
 -13  -7  10    4.43    1.83
 -13  -7  10    5.20    2.00
  13  -7 -10    1.69    1.29
  13   7 -10    1.06    1.35
 -13   7  10    5.33    2.05
 -13  -7  12    2.92    1.71
  13  -7 -12    2.34    1.60
 -13  -7  12   -0.30    1.44
  13   7 -12    1.41    1.60
 -13   7  12    3.57    1.75
  13  -8   1    2.35    1.75
 -13  -8  -1    2.79    1.27
 -13  -8  -1    2.60    1.75
 -13   8  -1    2.02    1.31
  13   8   1    2.60    1.55
  13  -8  -1    2.59    1.77
 -13  -8   1   -0.23    0.66
 -13  -8   1   -0.29    1.03
 -13   8   1   -0.78    0.82
  13   8  -1   -1.51    1.19
 -13  -8   3    4.42    1.74
 -13  -8   3    3.16    0.93
 -13   8   3    2.13    1.10
  13   8  -3    5.87    1.93
 -13  -8   5    3.83    1.87
 -13   8   5    2.08    0.96
  13   8  -5   -0.89    1.29
  13  -8  -7    1.87    1.38
 -13  -8   7    2.72    1.64
 -13  -8   7    1.41    1.59
  13   8  -7    1.30    1.52
 -13   8   7    1.80    1.25
 -13   8   7    2.00    0.60
 -13  -8   9    7.33    2.34
 -13  -8   9    1.70    1.66
  13  -8  -9    4.02    1.78
 -13   8   9    2.75    1.48
  13   8  -9    3.88    2.01
  14   0   6    4.77    2.17
 -14   0  -6    3.54    1.53
  14   0   4    0.32    1.59
 -14   0  -4   -0.62    0.93
 -14   0  -2    0.55    1.05
  14   0   2    0.16    1.28
 -14   0  -2   -0.25    0.82
 -14   0   0    7.84    1.53
  14   0   0    7.27    2.18
 -14   0   0    7.88    2.00
  14   0  -2    6.41    2.23
 -14   0   2    8.00    1.36
  14   0  -2    8.08    2.25
 -14   0   2    8.63    2.03
 -14   0   4    9.96    1.14
 -14   0   4   11.10    2.34
  14   0  -4    8.55    2.27
  14   0  -4   10.08    2.32
  14   0  -6    8.79    2.34
 -14   0   6    9.14    2.08
  14   0  -8   12.25    2.66
 -14   0   8   11.27    2.40
  14   0 -10    7.60    2.36
 -14   0  10    6.33    1.95
 -14   0  12    5.60    1.79
  14   0 -12    8.95    2.47
  14   0 -14   12.46    2.84
 -14   0  14    7.69    2.11
  14   0 -16    5.14    2.01
 -14   0  16    6.13    2.07
 -14  -1  -7    0.46    1.30
  14  -1   7    0.32    1.26
  14   1   7    1.94    1.56
 -14   1  -7    0.58    1.24
  14  -1   5    8.98    2.62
 -14  -1  -5    0.53    1.10
 -14  -1  -5    0.34    1.19
 -14   1  -5    0.10    1.09
  14   1   5   -1.72    1.43
  14  -1   3    3.45    1.74
 -14  -1  -3   -0.19    1.00
 -14  -1  -3   -0.81    0.81
  14   1   3    0.77    1.45
 -14   1  -3    1.09    1.05
 -14  -1  -1   -0.09    0.84
 -14  -1  -1    0.34    0.85
  14  -1   1   -1.77    1.28
  14   1   1   -0.63    1.16
 -14   1  -1    0.93    0.92
 -14   1  -1    0.49    0.93
 -14  -1   1    0.83    0.73
  14  -1  -1    0.14    1.17
 -14  -1   1   -0.74    0.75
  14  -1  -1    1.64    1.78
 -14   1   1    0.27    0.64
  14   1  -1   -0.15    1.11
  14   1  -1   -0.73    1.22
 -14   1   1   -0.92    0.92
 -14  -1   3    1.78    1.35
 -14  -1   3   -0.71    0.48
  14  -1  -3    0.58    1.36
  14  -1  -3   -0.62    1.15
 -14   1   3    0.52    1.01
 -14   1   3    0.39    0.62
  14   1  -3    0.58    1.09
  14   1  -3    1.74    1.38
  14  -1  -5    1.74    1.74
 -14  -1   5    0.27    1.13
 -14   1   5    0.00    0.84
  14   1  -5    2.76    1.54
  14  -1  -7    0.76    1.26
 -14  -1   7    0.77    1.04
  14   1  -7   -0.64    1.13
 -14   1   7    0.42    1.04
 -14  -1   9    0.63    1.02
  14  -1  -9    2.51    1.65
 -14   1   9    0.78    1.17
  14   1  -9    0.60    1.29
 -14  -1  11   -0.72    1.06
  14  -1 -11   -1.47    1.16
  14   1 -11   -1.11    1.21
 -14   1  11   -0.56    0.93
 -14  -1  13    1.02    1.19
  14  -1 -13    0.06    1.41
 -14   1  13   -0.20    0.92
  14   1 -13   -1.16    1.01
  14  -1 -15   -0.12    1.36
 -14  -1  15    0.46    1.22
  14   1 -15   -0.70    1.12
 -14   1  15   -0.09    1.09
 -14  -2  -6    2.09    1.45
  14  -2   6    1.23    1.58
 -14  -2  -6    1.04    1.26
 -14   2  -6    1.48    1.28
  14   2   6    2.42    1.71
  14  -2   4   -0.15    1.39
 -14  -2  -4   -0.92    0.94
 -14  -2  -4    0.93    1.15
 -14   2  -4    2.05    1.23
  14   2   4   -0.54    1.26
 -14  -2  -2    4.30    1.51
 -14  -2  -2    5.05    1.47
  14  -2   2    3.52    1.85
 -14   2  -2    0.20    0.94
  14   2   2    5.45    2.18
 -14  -2   0    1.85    0.95
 -14  -2   0    0.99    1.19
  14  -2   0    2.69    1.77
 -14   2   0    2.22    1.02
 -14   2   0    1.30    1.20
  14   2   0    1.41    1.38
 -14  -2   2    1.75    1.30
  14  -2  -2    1.79    1.54
 -14  -2   2    1.88    0.78
  14  -2  -2    1.71    1.53
  14   2  -2   -0.30    1.20
  14   2  -2    1.42    1.56
 -14   2   2    2.85    1.25
 -14   2   2    1.43    0.84
  14  -2  -4    4.78    2.08
 -14  -2   4    4.34    0.74
  14  -2  -4    5.71    2.08
 -14  -2   4    5.31    1.75
  14   2  -4    4.98    1.93
 -14   2   4    4.92    0.95
 -14   2   4    4.34    1.65
 -14  -2   6    4.80    1.62
  14  -2  -6    4.04    1.86
 -14   2   6    3.15    1.57
  14   2  -6    8.07    2.31
  14  -2  -8    2.99    1.71
 -14  -2   8    3.56    1.47
  14   2  -8    3.00    1.70
 -14   2   8    3.75    1.57
  14  -2 -10    5.12    1.96
 -14  -2  10    5.24    1.83
  14   2 -10    7.73    2.10
 -14   2  10    7.54    1.96
  14  -2 -12    1.97    1.52
 -14  -2  12    4.01    1.64
 -14   2  12    2.23    1.43
  14   2 -12    2.83    1.64
  14  -2 -14    1.28    1.51
 -14  -2  14    1.63    1.46
 -14  -2  14    3.49    1.72
  14   2 -14    2.82    1.77
 -14   2  14    2.68    1.48
 -14  -2  16    3.57    1.80
  14   2 -16    2.35    1.77
 -14  -3  -5   -0.02    1.15
  14  -3   5    1.93    1.77
 -14  -3  -5   -0.09    0.95
 -14   3  -5   -0.22    1.09
  14   3   5    2.20    1.65
 -14  -3  -3   -0.55    0.90
  14  -3   3    2.13    1.51
 -14  -3  -3    1.25    1.04
 -14   3  -3    0.57    1.06
  14   3   3    2.22    1.68
 -14  -3  -1    2.75    1.16
  14  -3   1    5.87    2.16
 -14  -3  -1    1.50    1.41
 -14   3  -1    2.11    1.19
  14   3   1    1.97    1.74
 -14  -3   1    1.82    1.18
 -14  -3   1    2.55    0.91
  14  -3  -1    2.86    1.85
 -14   3   1    0.59    1.07
  14   3  -1    4.59    1.86
  14   3  -1    1.93    1.69
 -14   3   1    1.59    0.89
 -14  -3   3    1.58    0.67
  14  -3  -3    2.00    1.47
  14  -3  -3    1.22    1.61
 -14  -3   3    2.47    1.34
 -14   3   3    0.59    1.11
  14   3  -3    1.24    1.54
 -14   3   3    1.47    0.78
 -14  -3   5    3.98    1.64
  14  -3  -5    1.37    1.71
 -14   3   5    1.44    0.54
  14   3  -5   -0.07    1.35
 -14   3   5    0.68    0.98
 -14  -3   7    2.37    1.59
  14  -3  -7    1.55    1.59
  14   3  -7    2.34    1.65
 -14   3   7    3.44    1.54
 -14  -3   9    0.32    0.85
  14  -3  -9    1.13    1.46
 -14   3   9    0.31    1.03
  14   3  -9    0.23    1.27
 -14  -3  11    0.56    1.13
  14  -3 -11    1.71    1.49
 -14   3  11    3.97    1.72
  14   3 -11    1.26    1.42
  14  -3 -13   -0.35    1.09
 -14  -3  13    0.45    1.33
 -14  -3  13    1.26    1.38
 -14   3  13    0.18    1.23
  14   3 -13    0.36    1.35
 -14  -3  15    0.22    1.40
  14  -3 -15    0.44    1.25
 -14  -3  15   -1.27    1.08
  14   3 -15    0.52    1.47
 -14   3  15   -0.04    1.05
  14  -4   4    4.06    2.09
 -14  -4  -4    4.43    1.88
 -14  -4  -4    6.94    1.77
 -14   4  -4    1.80    1.41
  14   4   4    4.84    2.02
  14  -4   2    1.13    1.65
 -14  -4  -2    0.92    0.97
 -14  -4  -2    1.84    1.38
 -14   4  -2    1.71    1.21
  14   4   2   -0.19    1.47
 -14  -4   0    1.80    1.35
 -14  -4   0    4.05    1.19
  14  -4   0    2.24    1.77
 -14   4   0    2.64    1.20
  14   4   0    3.36    1.86
 -14  -4   2   -0.02    0.89
  14  -4  -2    3.55    1.85
 -14  -4   2    0.62    0.68
 -14   4   2    3.17    1.38
 -14   4   2    1.62    0.83
  14   4  -2    2.77    1.67
  14  -4  -4    0.28    1.56
 -14  -4   4    4.10    1.75
 -14  -4   4    2.02    0.55
  14   4  -4   -0.44    1.26
 -14   4   4    2.12    0.80
 -14   4   4    1.20    1.16
  14  -4  -6    2.65    1.83
 -14  -4   6    1.36    1.23
 -14   4   6    3.10    1.54
  14   4  -6    3.63    1.69
  14  -4  -8    3.55    1.58
 -14  -4   8    1.67    1.35
  14  -4  -8    2.02    1.64
  14   4  -8    1.18    1.42
 -14   4   8    1.54    1.20
  14  -4 -10    5.36    1.80
 -14  -4  10    4.43    1.73
 -14   4  10    3.61    1.79
  14   4 -10    2.12    1.60
 -14  -4  12    4.08    1.65
  14  -4 -12    4.66    1.89
 -14  -4  12    2.11    1.47
 -14   4  12    4.70    1.73
  14   4 -12    4.55    2.08
  14  -4 -14    1.89    1.52
 -14  -4  14   -0.35    1.16
 -14  -4  14    0.58    1.39
 -14   4  14    1.90    1.63
  14   4 -14    1.42    1.54
  14  -5   3    3.12    1.82
 -14  -5  -3    3.30    1.68
 -14  -5  -3    2.13    1.25
  14   5   3    1.08    1.51
 -14   5  -3    2.60    1.33
 -14  -5  -1    3.67    1.76
  14  -5   1    4.49    2.17
 -14  -5  -1    1.81    1.08
 -14   5  -1    3.45    1.40
  14   5   1    1.58    1.43
 -14  -5   1    1.00    0.75
 -14  -5   1    1.59    1.34
  14  -5  -1    2.47    1.73
  14   5  -1    3.06    1.87
 -14   5   1    1.54    1.03
 -14  -5   3    0.39    1.05
  14  -5  -3    2.59    1.48
 -14  -5   3    1.76    0.70
  14  -5  -3    0.54    1.49
 -14   5   3    0.61    0.76
  14   5  -3   -1.97    0.93
 -14   5   3    1.06    1.26
 -14  -5   5    2.11    1.37
  14  -5  -5    1.43    1.31
  14  -5  -5   -0.57    1.19
 -14   5   5    0.49    0.58
  14   5  -5    0.03    1.23
 -14   5   5    2.29    1.32
  14  -5  -7    0.73    1.30
 -14  -5   7   -1.17    0.89
 -14   5   7   -0.35    1.06
  14   5  -7    3.60    1.66
 -14  -5   9    0.63    1.36
  14  -5  -9    1.47    1.26
 -14  -5   9    2.03    1.43
  14   5  -9    2.96    1.76
 -14   5   9    4.50    1.76
 -14  -5  11    4.09    1.73
  14  -5 -11    0.70    1.34
 -14  -5  11    2.74    1.75
  14   5 -11    2.75    1.70
 -14   5  11    0.51    1.28
  14  -5 -13    2.74    1.64
 -14  -5  13    1.60    1.48
 -14  -5  13    2.03    1.52
  14   5 -13    1.61    1.59
 -14   5  13    1.10    1.44
 -14  -6  -2    3.03    1.28
 -14  -6  -2    3.57    1.91
  14  -6   2    5.49    2.01
 -14   6  -2    6.92    1.77
  14   6   2    2.20    1.64
  14  -6   0    1.14    1.55
 -14  -6   0    4.97    1.79
 -14  -6   0    2.17    0.97
 -14   6   0    2.41    1.28
  14   6   0    3.22    1.84
 -14  -6   2   -0.18    0.62
  14  -6  -2    1.02    1.52
 -14  -6   2    2.53    1.61
  14   6  -2   -1.21    1.32
 -14   6   2   -0.49    0.76
  14  -6  -4    4.24    1.78
 -14  -6   4    0.12    1.16
  14  -6  -4    5.59    2.03
 -14   6   4    3.23    1.00
  14   6  -4    0.86    1.48
 -14   6   4    1.81    1.30
 -14  -6   6    0.27    1.31
  14  -6  -6   -0.53    0.98
 -14   6   6    2.20    1.44
 -14   6   6    1.65    0.59
  14   6  -6   -1.41    1.17
  14  -6  -8    5.70    1.93
 -14  -6   8    3.27    1.70
 -14  -6   8    7.57    2.26
 -14   6   8    4.50    1.90
  14   6  -8    1.97    1.55
 -14  -6  10    5.15    2.11
 -14  -6  10    6.47    2.03
  14  -6 -10    3.33    1.87
  14   6 -10    2.22    1.61
 -14   6  10    4.00    1.65
  14  -7  -1    1.40    1.65
 -14  -7   1    0.03    0.72
 -14  -7   1    0.40    1.29
 -14   7   1    0.21    0.96
  14   7  -1   -0.54    1.20
 -14  -7   3   -0.59    1.30
 -14  -7   3    2.17    0.82
  14  -7  -3    0.23    1.38
 -14   7   3    2.07    1.01
  14   7  -3    1.32    1.50
  14  -7  -5    2.45    1.67
 -14  -7   5    4.29    1.83
 -14   7   5    3.44    1.74
 -14   7   5    2.70    0.89
  14   7  -5    7.35    2.21
 -14  -7   7    2.52    1.49
  14  -7  -7    0.67    1.35
  14   7  -7   -1.32    1.16
 -14   7   7    2.11    1.48
 -14  -7   9    3.46    2.01
  14   7  -9    6.16    2.27
 -15   0  -3   -1.22    0.78
  15   0   3    0.30    1.65
 -15   0  -3    0.41    1.12
 -15   0  -1    0.21    1.20
  15   0   1   -0.46    1.42
 -15   0  -1   -0.95    0.76
  15   0  -1    0.97    1.58
 -15   0   1    0.14    0.70
 -15   0   1   -0.38    0.84
 -15   0   3    0.04    0.58
  15   0  -3   -0.53    1.36
 -15   0   3   -0.60    0.99
  15   0  -5   -0.12    1.29
 -15   0   5   -0.74    0.77
 -15   0   7   -1.01    0.89
  15   0  -7   -2.05    1.12
  15   0  -9   -0.09    1.45
 -15   0   9   -0.54    1.05
 -15   0  11   -0.56    0.95
  15   0 -11    1.17    1.67
 -15   0  13    0.04    1.09
  15   0 -13   -0.92    1.40
  15  -1   4   -1.41    1.23
 -15  -1  -4   -0.13    1.06
 -15  -1  -4    1.31    1.33
  15   1   4    3.15    1.89
 -15   1  -4    2.42    1.30
 -15  -1  -2    1.67    1.09
 -15  -1  -2    1.49    1.32
  15  -1   2   -0.24    1.36
  15   1   2   -1.92    1.37
 -15   1  -2    1.72    1.21
  15  -1   0    2.32    1.77
 -15  -1   0    3.80    1.17
 -15  -1   0    4.65    1.80
  15   1   0    3.12    1.88
 -15   1   0    3.15    1.21
 -15   1   0    1.74    1.42
  15  -1  -2    2.12    1.75
 -15  -1   2    1.10    0.75
 -15  -1   2    0.84    1.42
 -15   1   2    3.16    1.50
 -15   1   2    3.31    1.01
  15   1  -2   -1.29    1.20
 -15  -1   4    3.40    0.66
 -15  -1   4    2.26    1.56
  15  -1  -4    1.74    1.69
 -15   1   4    2.99    1.53
 -15   1   4    4.46    0.86
  15   1  -4    6.17    2.28
 -15  -1   6    1.51    1.42
  15  -1  -6    2.72    1.87
  15   1  -6    0.90    1.51
 -15   1   6    0.03    1.04
 -15  -1   8    0.44    1.13
  15  -1  -8    2.09    1.68
 -15   1   8    0.32    1.31
  15   1  -8   -0.97    1.38
 -15  -1  10    2.96    1.48
  15  -1 -10    1.21    1.37
 -15   1  10    1.74    1.54
  15   1 -10    0.88    1.47
 -15  -1  12    1.61    1.45
  15  -1 -12    3.26    1.87
  15   1 -12    3.31    1.96
 -15   1  12    4.02    1.66
 -15  -1  14    2.49    1.51
  15   1 -14    5.87    2.25
 -15   1  14    3.10    1.76
 -15  -2  -3    0.55    1.32
 -15  -2  -3    2.98    1.40
  15  -2   3    1.96    1.94
  15   2   3    1.32    1.85
 -15   2  -3    0.53    1.09
 -15  -2  -1   -0.23    0.78
 -15  -2  -1   -0.33    1.02
  15  -2   1    2.43    1.85
 -15   2  -1    0.58    0.98
  15   2   1    2.34    1.78
  15  -2  -1   -2.59    1.13
 -15  -2   1   -0.24    0.96
 -15  -2   1    0.36    0.75
  15   2  -1    1.07    1.53
 -15   2   1    1.27    1.13
 -15   2   1    0.58    0.81
  15  -2  -3    2.13    1.72
 -15  -2   3   -0.93    1.02
 -15  -2   3    1.24    0.67
 -15   2   3   -0.34    0.52
  15   2  -3   -1.30    1.02
 -15   2   3    0.50    1.12
 -15  -2   5    3.37    1.74
  15  -2  -5    2.19    1.78
  15   2  -5    0.87    1.50
 -15   2   5    0.25    1.02
  15  -2  -7    2.01    1.91
 -15  -2   7    1.96    1.41
  15   2  -7    0.29    1.29
 -15   2   7    1.06    1.24
 -15  -2   9    1.74    1.34
  15  -2  -9    1.15    1.63
  15   2  -9    0.93    1.44
 -15   2   9   -0.43    1.08
 -15  -2  11    0.77    1.35
  15  -2 -11    3.77    1.87
  15   2 -11    1.69    1.61
 -15   2  11    0.09    1.27
 -15  -2  13   -0.75    0.95
  15  -2 -13    1.58    1.32
  15   2 -13   -1.13    1.15
 -15   2  13   -1.24    0.92
 -15  -3  -2    4.70    1.82
 -15  -3  -2    4.32    1.40
  15  -3   2    3.91    2.00
  15   3   2    2.21    1.71
 -15   3  -2    4.15    1.47
  15  -3   0    1.02    1.56
 -15  -3   0    0.55    1.15
 -15  -3   0    0.37    0.74
 -15   3   0    1.53    1.04
  15   3   0    1.16    1.60
  15  -3  -2    1.47    1.61
 -15  -3   2    0.47    0.67
 -15  -3   2    3.31    1.60
 -15   3   2    0.24    0.82
  15   3  -2   -0.16    1.38
 -15   3   2    0.32    1.20
 -15  -3   4   -0.79    1.02
  15  -3  -4    1.16    1.82
 -15   3   4    0.73    0.61
  15   3  -4    0.75    1.39
 -15   3   4    0.74    1.31
  15  -3  -6    2.24    1.82
 -15  -3   6    3.72    1.66
 -15   3   6    1.20    1.34
  15   3  -6    3.20    1.96
  15  -3  -8    0.05    1.44
 -15  -3   8    2.85    1.57
  15   3  -8   -0.24    1.44
 -15   3   8    0.34    1.07
  15  -3 -10    0.29    1.62
  15  -3 -10    2.86    1.70
 -15  -3  10    2.23    1.68
  15   3 -10    1.36    1.55
 -15   3  10    3.40    1.62
 -15  -3  12    3.69    1.66
  15  -3 -12    2.45    1.54
 -15   3  12    4.63    1.96
  15   3 -12    3.92    1.91
  15  -4   1   -1.21    1.46
 -15  -4  -1    0.78    1.36
 -15  -4  -1   -0.98    0.55
 -15   4  -1   -0.07    0.94
  15   4   1   -1.89    1.36
 -15  -4   1    0.05    0.72
 -15  -4   1    1.52    1.29
  15  -4  -1    0.25    1.47
  15   4  -1    1.93    1.60
 -15   4   1    0.36    0.81
 -15  -4   3    0.52    0.58
 -15  -4   3    1.92    1.44
  15  -4  -3    1.70    1.57
 -15   4   3    0.37    0.72
  15   4  -3   -0.90    1.29
 -15   4   3    0.05    1.11
  15  -4  -5   -1.09    1.47
 -15  -4   5    0.11    1.07
 -15   4   5   -0.32    1.03
  15   4  -5    1.92    1.54
 -15   4   5    0.74    0.51
  15  -4  -7   -0.32    1.54
 -15  -4   7   -1.25    0.81
  15  -4  -7   -0.27    1.20
  15   4  -7   -1.66    1.17
 -15   4   7    0.00    1.17
 -15  -4   9    3.69    1.65
  15  -4  -9    5.08    1.93
 -15   4   9    2.75    1.66
  15   4  -9    1.16    1.65
  15  -4 -11   -0.17    1.45
 -15  -4  11    0.83    1.56
 -15   4  11    1.09    1.39
  15   4 -11    2.29    1.63
 -15  -5   0    3.54    1.14
  15  -5   0    1.92    1.82
 -15  -5   0    3.08    1.88
 -15   5   0    3.60    1.39
  15   5   0    3.20    1.87
 -15  -5   2    0.43    0.65
 -15  -5   2    1.16    1.19
  15  -5  -2    0.27    1.46
 -15   5   2    0.47    0.86
  15   5  -2   -1.47    1.27
  15  -5  -4   -1.69    1.18
  15  -5  -4    0.34    1.23
 -15  -5   4    0.04    1.17
 -15   5   4    0.84    1.14
  15   5  -4   -0.41    1.51
 -15   5   4    0.09    0.60
  15  -5  -6    1.93    1.55
 -15  -5   6    1.27    1.39
  15  -5  -6    1.12    1.33
  15   5  -6    2.18    1.87
 -15   5   6    1.34    1.41
  15  -5  -8    4.13    1.78
 -15  -5   8    4.54    1.91
 -15   5   8    1.79    1.60
  15   5  -8    2.39    1.61
 -15  -5  10    3.52    1.66
  15   5 -10    4.82    2.02
 -15   5  10    2.52    1.69
 -15  -6   5   -0.36    1.15
  15   6  -5    1.45    1.67
 -16   0   0   -0.68    1.14
 -16   0   0    2.52    1.17
  16   0   0    2.75    2.22
 -16   0   2    2.14    0.88
  16   0  -2    1.97    1.70
 -16   0   2    1.60    1.45
 -16   0   4    1.12    1.32
  16   0  -4    3.28    2.05
  16   0  -6    2.52    1.75
 -16   0   6    2.21    1.54
 -16   0   8    2.45    1.47
  16   0  -8    1.02    1.72
  16   0 -10    1.60    1.82
 -16   0  10    1.21    1.47
 -16  -1   1    0.51    0.79
  16  -1  -1    0.22    1.81
 -16  -1   1    0.69    1.18
 -16   1   1    0.14    0.70
 -16   1   1    0.21    1.14
  16   1  -1    1.15    1.88
 -16  -1   3   -0.72    0.98
 -16  -1   3    0.49    0.60
  16  -1  -3    0.18    1.64
 -16   1   3   -0.68    0.94
  16   1  -3   -1.53    1.57
 -16  -1   5    0.76    1.47
  16  -1  -5    0.27    1.78
  16   1  -5    2.59    2.01
 -16   1   5    0.66    1.20
  16  -1  -7    1.73    1.85
 -16  -1   7    0.13    1.14
  16   1  -7   -0.03    1.59
 -16   1   7    0.49    1.18
 -16  -1   9   -0.36    1.18
  16  -1  -9   -0.10    1.66
  16   1  -9   -0.79    1.23
 -16   1   9   -0.60    1.10
  16  -2   0    3.73    1.93
  16   2   0    2.30    1.76
  16  -2  -2   -0.84    1.47
 -16  -2   2    1.47    0.77
 -16  -2   2    1.82    1.30
  16   2  -2   -1.29    1.55
 -16   2   2    1.51    1.13
 -16   2   2    0.84    0.79
  16  -2  -4    0.27    1.50
 -16  -2   4   -0.44    1.32
 -16   2   4    0.80    0.57
 -16   2   4    1.58    1.42
  16   2  -4    2.50    1.70
 -16  -2   6   -1.09    1.12
  16  -2  -6    3.20    1.97
  16   2  -6    2.85    1.93
 -16   2   6    2.71    1.56
  16  -2  -8    1.36    1.63
 -16  -2   8    2.61    1.66
 -16   2   8    4.46    1.82
  16   2  -8    2.55    1.97
  16  -2 -10   -0.21    1.66
  16   2 -10    1.51    1.86
 -16  -3   3   -0.14    1.22
  16  -3  -3   -0.61    1.56
 -16  -3   3    0.36    0.54
  16   3  -3   -0.51    1.41
 -16   3   3   -0.94    1.02
 -16   3   3    0.48    0.70
  16  -3  -5   -0.50    1.61
 -16  -3   5    0.31    1.30
  16   3  -5    3.03    2.02
 -16   3   5    0.56    1.23
 -16  -3   7   -0.04    1.14
  16  -3  -7    2.59    1.88
  16   3  -7    2.88    1.79
 -16   3   7    0.39    1.24
   0   0   0    0.00    0.00
;
_shelx_hkl_checksum              34213
loop_
_space_group_symop_operation_xyz
'x, y, z'
'x+1/2, -y, z'
'x+1/2, y+1/2, z+1/2'
'x+1, -y+1/2, z+1/2'
loop_
_atom_site_label
_atom_site_type_symbol
_atom_site_fract_x
_atom_site_fract_y
_atom_site_fract_z
_atom_site_U_iso_or_equiv
_atom_site_adp_type
_atom_site_occupancy
_atom_site_site_symmetry_order
_atom_site_calc_flag
_atom_site_refinement_flags_posn
_atom_site_refinement_flags_adp
CU1 Cu 0.04674(6) 0.22877(7) 0.39681(5) 0.0440(3) Uani 1 1 d . .
O2 O 0.2485(5) 0.2702(5) 0.5343(4) 0.0639(15) Uani 1 1 d . .
O1 O 0.1357(4) 0.1224(4) 0.4759(3) 0.0455(12) Uani 1 1 d . .
C5 C 0.1299(7) 0.2041(8) 0.2578(5) 0.052(2) Uani 1 1 d . .
H5 H 0.122661 0.289227 0.256854 0.062 Uiso 1 1 calc R U
C14 C 0.2528(5) 0.0788(6) 0.5967(4) 0.0362(15) Uani 1 1 d . .
N1 N 0.1020(4) 0.1411(6) 0.3140(3) 0.0375(14) Uani 1 1 d . .
C18 C 0.3931(6) 0.0143(6) 0.7071(4) 0.0405(15) Uani 1 1 d . .
H18 H 0.463534 0.022426 0.735861 0.049 Uiso 1 1 calc R U
C19 C 0.3557(5) 0.0861(6) 0.6420(4) 0.0383(16) Uani 1 1 d . .
C15 C 0.1861(6) -0.0049(7) 0.6191(4) 0.052(2) Uani 1 1 d . .
H15 H 0.116182 -0.013739 0.589466 0.063 Uiso 1 1 calc R U
C2 C 0.1443(6) -0.0421(7) 0.2559(4) 0.0494(18) Uani 1 1 d . .
H2 H 0.146185 -0.127586 0.256613 0.059 Uiso 1 1 calc R U
C6 C 0.2220(5) -0.0415(8) 0.1349(5) 0.052(2) Uani 1 1 d . .
H6A H 0.196697 -0.125782 0.127875 0.062 Uiso 1 1 calc R U
H6B H 0.196031 0.001983 0.086438 0.062 Uiso 1 1 calc R U
C4 C 0.1692(6) 0.1472(7) 0.2006(4) 0.055(2) Uani 1 1 d . .
H4 H 0.190733 0.194237 0.162995 0.066 Uiso 1 1 calc R U
C13 C 0.2105(5) 0.1652(7) 0.5286(4) 0.0420(16) Uani 1 1 d . .
O5 O 0.4782(7) 0.2453(7) 0.6663(7) 0.132(4) Uani 1 1 d . .
N3 N 0.4350(6) 0.1701(8) 0.6189(6) 0.075(2) Uani 1 1 d . .
C1 C 0.1086(5) 0.0193(7) 0.3129(4) 0.0429(17) Uani 1 1 d . .
H1 H 0.088400 -0.025754 0.351886 0.051 Uiso 1 1 calc R U
O6 O 0.4514(6) 0.1529(9) 0.5539(6) 0.126(4) Uani 1 1 d . .
C3 C 0.1770(5) 0.0192(7) 0.1987(4) 0.0445(17) Uani 1 1 d . .
C7 C -0.1565(6) 0.4600(9) 0.6557(5) 0.059(2) Uani 1 1 d . .
H7A H -0.131865 0.544319 0.664742 0.071 Uiso 1 1 calc R U
H7B H -0.131147 0.414707 0.703612 0.071 Uiso 1 1 calc R U
C12 C -0.0696(6) 0.4779(7) 0.5430(4) 0.0458(17) Uani 1 1 d . .
H12 H -0.073123 0.563079 0.546566 0.055 Uiso 1 1 calc R U
C9 C -0.1029(6) 0.2802(7) 0.5829(5) 0.057(2) Uani 1 1 d . .
H9 H -0.130009 0.226539 0.614664 0.068 Uiso 1 1 calc R U
C8 C -0.1084(5) 0.4052(7) 0.5940(4) 0.0472(18) Uani 1 1 d . .
C17 C 0.3242(5) -0.0693(6) 0.7286(4) 0.0356(14) Uani 1 1 d . .
C16 C 0.2197(6) -0.0783(6) 0.6858(4) 0.052(2) Uani 1 1 d . .
H16 H 0.171777 -0.132485 0.700786 0.063 Uiso 1 1 calc R U
C11 C -0.0253(5) 0.4252(7) 0.4866(4) 0.0439(17) Uani 1 1 d . .
H11 H 0.000813 0.476250 0.452947 0.053 Uiso 1 1 calc R U
C10 C -0.0583(8) 0.2345(7) 0.5262(6) 0.051(2) Uani 1 1 d . .
H10 H -0.055431 0.149585 0.520612 0.061 Uiso 1 1 calc R U
N2 N -0.0186(4) 0.3049(5) 0.4785(3) 0.0396(14) Uani 1 1 d . .
O1W O 0.2042(4) 0.3865(4) 0.3968(3) 0.091(2) Uani 1 1 d G .
H1WA H 0.218887 0.348812 0.439927 0.136 Uiso 1 1 d G U
H1WB H 0.181518 0.458380 0.403269 0.136 Uiso 1 1 d G U
O2W O -0.1031(4) 0.0568(5) 0.3820(4) 0.090(2) Uani 1 1 d G .
H2WA H -0.082005 0.041148 0.430088 0.135 Uiso 1 1 d G U
H2WB H -0.090468 -0.004633 0.355774 0.135 Uiso 1 1 d G U
O3W O 0.1266(6) 0.6230(4) 0.3693(6) 0.160(4) Uani 1 1 d G .
H3WA H 0.131169 0.635577 0.322799 0.240 Uiso 1 1 d G U
H3WB H 0.174112 0.665451 0.399873 0.240 Uiso 1 1 d G U
O4W O 0.4081(5) 0.2422(6) 0.3706(8) 0.234(7) Uani 1 1 d G .
O4 O 0.2997(5) -0.2243(5) 0.8172(4) 0.0705(18) Uani 1 1 d . .
C20 C 0.3647(5) -0.1584(6) 0.7938(4) 0.0393(15) Uani 1 1 d . .
O3 O 0.4658(4) -0.1591(4) 0.8185(3) 0.0447(12) Uani 1 1 d . .
loop_
_atom_site_aniso_label
_atom_site_aniso_U_11
_atom_site_aniso_U_22
_atom_site_aniso_U_33
_atom_site_aniso_U_23
_atom_site_aniso_U_13
_atom_site_aniso_U_12
CU1 0.0494(4) 0.0640(5) 0.0188(3) 0.0078(5) 0.0084(3) 0.0338(5)
O2 0.075(4) 0.051(3) 0.062(4) 0.019(3) 0.008(3) 0.006(3)
O1 0.053(3) 0.054(3) 0.026(3) 0.004(2) 0.001(2) 0.024(2)
C5 0.073(6) 0.050(5) 0.039(5) 0.007(4) 0.027(4) 0.012(4)
C14 0.042(4) 0.037(3) 0.028(3) 0.005(3) 0.004(3) 0.011(3)
N1 0.035(3) 0.052(4) 0.026(3) 0.000(3) 0.008(2) 0.014(3)
C18 0.041(3) 0.042(4) 0.032(4) 0.006(3) -0.006(3) 0.007(3)
C19 0.039(4) 0.038(4) 0.038(4) 0.011(3) 0.007(3) 0.005(3)
C15 0.044(4) 0.055(4) 0.044(4) 0.016(4) -0.017(3) 0.000(3)
C2 0.045(4) 0.051(4) 0.055(5) -0.008(4) 0.017(3) 0.006(3)
C6 0.043(4) 0.073(5) 0.040(5) -0.020(4) 0.012(3) 0.008(4)
C4 0.079(5) 0.062(5) 0.036(4) 0.006(4) 0.039(4) 0.010(4)
C13 0.047(4) 0.050(4) 0.031(4) 0.007(3) 0.013(3) 0.021(3)
O5 0.098(5) 0.083(5) 0.179(10) 0.054(6) -0.044(6) -0.042(4)
N3 0.054(4) 0.071(5) 0.097(7) 0.049(5) 0.009(4) 0.013(4)
C1 0.051(4) 0.048(4) 0.036(4) 0.008(3) 0.020(3) 0.010(3)
O6 0.106(6) 0.150(8) 0.149(8) 0.083(7) 0.085(6) 0.049(5)
C3 0.035(4) 0.061(5) 0.040(4) -0.012(3) 0.014(3) 0.007(3)
C7 0.053(4) 0.086(6) 0.042(5) -0.019(4) 0.016(4) 0.008(4)
C12 0.054(4) 0.047(4) 0.041(4) -0.009(3) 0.020(3) 0.010(3)
C9 0.069(5) 0.057(5) 0.054(5) 0.010(4) 0.037(4) 0.011(4)
C8 0.040(4) 0.071(5) 0.033(4) -0.003(4) 0.013(3) 0.013(3)
C17 0.042(3) 0.037(3) 0.023(3) 0.006(3) -0.001(3) 0.010(3)
C16 0.045(4) 0.052(4) 0.050(5) 0.023(4) -0.008(3) -0.004(3)
C11 0.047(4) 0.048(5) 0.041(4) 0.002(3) 0.017(3) 0.010(3)
C10 0.070(6) 0.051(5) 0.042(5) 0.007(4) 0.032(4) 0.015(4)
N2 0.043(3) 0.052(4) 0.026(3) 0.004(2) 0.012(2) 0.017(3)
O1W 0.133(6) 0.073(4) 0.053(4) 0.013(3) -0.008(4) -0.005(4)
O2W 0.083(4) 0.093(5) 0.088(5) 0.002(4) 0.007(4) 0.012(4)
O3W 0.173(9) 0.109(6) 0.216(11) 0.071(8) 0.084(8) 0.013(6)
O4W 0.171(11) 0.228(13) 0.31(2) 0.068(13) 0.061(13) 0.054(10)
O4 0.061(3) 0.068(4) 0.074(4) 0.039(3) -0.004(3) -0.010(3)
C20 0.045(4) 0.041(4) 0.028(4) 0.007(3) 0.000(3) 0.012(3)
O3 0.045(3) 0.062(3) 0.028(3) 0.011(2) 0.010(2) 0.023(2)
loop_
_atom_type_symbol
_atom_type_description
_atom_type_scat_dispersion_real
_atom_type_scat_dispersion_imag
_atom_type_scat_source
C C 0.0033 0.0016 'International Tables Vol C Tables 4.2.6.8 and 6.1.1.4'
H H 0.0000 0.0000 'International Tables Vol C Tables 4.2.6.8 and 6.1.1.4'
N N 0.0061 0.0033 'International Tables Vol C Tables 4.2.6.8 and 6.1.1.4'
O O 0.0106 0.0060 'International Tables Vol C Tables 4.2.6.8 and 6.1.1.4'
Cu Cu 0.3201 1.2651 'International Tables Vol C Tables 4.2.6.8 and 6.1.1.4'
loop_
_geom_angle_atom_site_label_1
_geom_angle_atom_site_label_2
_geom_angle_atom_site_label_3
_geom_angle
_geom_angle_site_symmetry_1
_geom_angle_site_symmetry_3
O3 CU1 O1 176.6(2) 3_454 .
O3 CU1 N1 89.7(2) 3_454 .
O1 CU1 N1 90.0(2) . .
O3 CU1 N2 90.9(2) 3_454 .
O1 CU1 N2 89.8(2) . .
N1 CU1 N2 174.9(2) . .
C13 O1 CU1 121.7(5) . .
N1 C5 C4 121.8(7) . .
C15 C14 C19 116.3(6) . .
C15 C14 C13 120.6(6) . .
C19 C14 C13 122.9(6) . .
C5 N1 C1 118.5(6) . .
C5 N1 CU1 120.2(5) . .
C1 N1 CU1 121.3(5) . .
C17 C18 C19 118.9(6) . .
C14 C19 C18 123.7(6) . .
C14 C19 N3 119.5(6) . .
C18 C19 N3 116.8(6) . .
C14 C15 C16 122.1(6) . .
C3 C2 C1 121.4(7) . .
C7 C6 C3 110.6(5) 3_544 .
C5 C4 C3 120.5(7) . .
O2 C13 O1 128.1(7) . .
O2 C13 C14 116.3(6) . .
O1 C13 C14 115.4(6) . .
O5 N3 O6 127.1(10) . .
O5 N3 C19 117.0(10) . .
O6 N3 C19 115.8(9) . .
N1 C1 C2 122.0(7) . .
C2 C3 C4 115.8(6) . .
C2 C3 C6 124.8(7) . .
C4 C3 C6 119.3(7) . .
C8 C7 C6 112.7(6) . 3_455
C8 C12 C11 120.3(7) . .
C10 C9 C8 120.7(8) . .
C12 C8 C9 115.9(7) . .
C12 C8 C7 121.3(8) . .
C9 C8 C7 122.8(8) . .
C16 C17 C18 119.5(6) . .
C16 C17 C20 119.7(6) . .
C18 C17 C20 120.6(6) . .
C17 C16 C15 119.5(7) . .
N2 C11 C12 122.5(7) . .
N2 C10 C9 123.1(7) . .
C10 N2 C11 117.4(6) . .
C10 N2 CU1 120.3(5) . .
C11 N2 CU1 122.3(5) . .
O4 C20 O3 126.0(6) . .
O4 C20 C17 119.5(6) . .
O3 C20 C17 114.5(6) . .
C20 O3 CU1 125.6(4) . 3_545
loop_
_geom_bond_atom_site_label_1
_geom_bond_atom_site_label_2
_geom_bond_distance
_geom_bond_site_symmetry_2
CU1 O3 1.954(4) 3_454
CU1 O1 1.965(4) .
CU1 N1 2.007(5) .
CU1 N2 2.006(5) .
O2 C13 1.236(9) .
O1 C13 1.260(8) .
C5 N1 1.323(11) .
C5 C4 1.375(11) .
C14 C15 1.365(10) .
C14 C19 1.375(9) .
C14 C13 1.526(9) .
N1 C1 1.327(9) .
C18 C17 1.376(9) .
C18 C19 1.383(9) .
C19 N3 1.487(10) .
C15 C16 1.408(9) .
C2 C3 1.356(10) .
C2 C1 1.370(10) .
C6 C7 1.508(9) 3_544
C6 C3 1.527(9) .
C4 C3 1.396(11) .
O5 N3 1.210(12) .
N3 O6 1.231(11) .
C7 C8 1.494(10) .
C7 C6 1.508(9) 3_455
C12 C8 1.375(10) .
C12 C11 1.379(9) .
C9 C10 1.356(12) .
C9 C8 1.377(11) .
C17 C16 1.376(9) .
C17 C20 1.506(8) .
C11 N2 1.321(9) .
C10 N2 1.323(10) .
O4 C20 1.237(9) .
C20 O3 1.262(8) .
O3 CU1 1.954(4) 3_545
