#------------------------------------------------------------------------------
#$Date: 2017-03-04 15:16:02 +0200 (Sat, 04 Mar 2017) $
#$Revision: 193438 $
#$URL: file:///home/coder/svn-repositories/cod/cif/4/34/50/4345014.cif $
#------------------------------------------------------------------------------
#
# This file is available in the Crystallography Open Database (COD),
# http://www.crystallography.net/
#
# All data on this site have been placed in the public domain by the
# contributors.
#
data_4345014
loop_
_publ_author_name
'Sapianik, Aleksandr A.'
'Zorina-Tikhonova, Ekaterina N'
'Kiskin, Mikhail A.'
'Samsonenko, Denis G.'
'Kovalenko, Konstantin A.'
'Sidorov, Alexey A.'
'Eremenko, Igor L.'
'Dybtsev, Danil N.'
'Blake, Alexander J.'
'Argent, Stephen P.'
'Schr\"oder, Martin'
'Fedin, Vladimir P.'
_publ_section_title
;
 Rational Synthesis and Investigation of Porous Metal-Organic Framework
 Materials from a Preorganized Heterometallic Carboxylate Building Block.
;
_journal_issue                   3
_journal_name_full               'Inorganic chemistry'
_journal_page_first              1599
_journal_page_last               1608
_journal_paper_doi               10.1021/acs.inorgchem.6b02713
_journal_volume                  56
_journal_year                    2017
_chemical_formula_sum            'C40 H31 Li2 N7 O20 Zn2'
_chemical_formula_weight         1074.34
_space_group_crystal_system      monoclinic
_space_group_IT_number           15
_space_group_name_Hall           '-C 2yc'
_space_group_name_H-M_alt        'C 1 2/c 1'
_symmetry_space_group_name_Hall  '-C 2yc'
_symmetry_space_group_name_H-M   'C 1 2/c 1'
_atom_sites_solution_hydrogens   geom
_atom_sites_solution_primary     direct
_atom_sites_solution_secondary   difmap
_audit_creation_method           SHELXL-2014/7
_cell_angle_alpha                90
_cell_angle_beta                 115.122(6)
_cell_angle_gamma                90
_cell_formula_units_Z            4
_cell_length_a                   17.5849(9)
_cell_length_b                   18.5060(6)
_cell_length_c                   17.2860(8)
_cell_measurement_reflns_used    4936
_cell_measurement_temperature    130(2)
_cell_measurement_theta_max      27.89
_cell_measurement_theta_min      3.68
_cell_volume                     5093.2(5)
_computing_cell_refinement       'CrysAlisPro 1.171.38.41 (Rigaku OD, 2015)'
_computing_data_collection       'CrysAlisPro 1.171.38.41 (Rigaku OD, 2015)'
_computing_data_reduction        'CrysAlisPro 1.171.38.41 (Rigaku OD, 2015)'
_computing_molecular_graphics    'ShelXle (H\"ubschle, 2011)'
_computing_publication_material  'CIFTAB-2014 (Sheldrick, 2015)'
_computing_structure_refinement  'SHELXL-2014 (Sheldrick, 2015)'
_computing_structure_solution    'SHELXT-2014 (Sheldrick, 2015)'
_diffrn_ambient_temperature      130(2)
_diffrn_detector                 'CCD plate'
_diffrn_detector_area_resol_mean 10.6168
_diffrn_detector_type            AtlasS2
_diffrn_measured_fraction_theta_full 0.996
_diffrn_measured_fraction_theta_max 0.993
_diffrn_measurement_device       'four-circle diffractometer'
_diffrn_measurement_device_type  'New Xcalibur, AtlasS2'
_diffrn_measurement_method       '\w scans'
_diffrn_radiation_monochromator  graphite
_diffrn_radiation_probe          x-ray
_diffrn_radiation_source         'fine-focus sealed tube'
_diffrn_radiation_type           MoK\a
_diffrn_radiation_wavelength     0.71073
_diffrn_reflns_av_R_equivalents  0.0254
_diffrn_reflns_av_unetI/netI     0.0372
_diffrn_reflns_Laue_measured_fraction_full 0.996
_diffrn_reflns_Laue_measured_fraction_max 0.993
_diffrn_reflns_limit_h_max       21
_diffrn_reflns_limit_h_min       -18
_diffrn_reflns_limit_k_max       22
_diffrn_reflns_limit_k_min       -21
_diffrn_reflns_limit_l_max       18
_diffrn_reflns_limit_l_min       -21
_diffrn_reflns_number            11830
_diffrn_reflns_point_group_measured_fraction_full 0.996
_diffrn_reflns_point_group_measured_fraction_max 0.993
_diffrn_reflns_theta_full        25.500
_diffrn_reflns_theta_max         25.681
_diffrn_reflns_theta_min         3.376
_diffrn_source                   'sealed X-ray tube'
_exptl_absorpt_coefficient_mu    1.020
_exptl_absorpt_correction_T_max  1.00000
_exptl_absorpt_correction_T_min  0.92333
_exptl_absorpt_correction_type   multi-scan
_exptl_absorpt_process_details
;
CrysAlisPro 1.171.38.41 (Rigaku Oxford Diffraction, 2015)
Empirical absorption correction using spherical harmonics,
implemented in SCALE3 ABSPACK scaling algorithm.
;
_exptl_crystal_colour            colorless
_exptl_crystal_density_diffrn    1.401
_exptl_crystal_description       block
_exptl_crystal_F_000             2184
_exptl_crystal_size_max          0.23
_exptl_crystal_size_mid          0.20
_exptl_crystal_size_min          0.09
_refine_diff_density_max         1.228
_refine_diff_density_min         -0.458
_refine_diff_density_rms         0.090
_refine_ls_extinction_method     none
_refine_ls_goodness_of_fit_ref   1.044
_refine_ls_hydrogen_treatment    constr
_refine_ls_matrix_type           full
_refine_ls_number_parameters     371
_refine_ls_number_reflns         4814
_refine_ls_number_restraints     100
_refine_ls_restrained_S_all      1.044
_refine_ls_R_factor_all          0.0663
_refine_ls_R_factor_gt           0.0524
_refine_ls_shift/su_max          0.001
_refine_ls_shift/su_mean         0.000
_refine_ls_structure_factor_coef Fsqd
_refine_ls_weighting_details
'w=1/[\s^2^(Fo^2^)+(0.0852P)^2^+15.0450P] where P=(Fo^2^+2Fc^2^)/3'
_refine_ls_weighting_scheme      calc
_refine_ls_wR_factor_gt          0.1478
_refine_ls_wR_factor_ref         0.1553
_reflns_Friedel_coverage         0.000
_reflns_number_gt                3808
_reflns_number_total             4814
_reflns_threshold_expression     >2\s(I)
_cod_data_source_file            ic6b02713_si_002.cif
_cod_data_source_block           4
_cod_depositor_comments
'Adding full bibliography for 4345011--4345015.cif.'
_cod_original_cell_volume        5093.2(4)
_cod_database_code               4345014
_shelx_shelxl_version_number     2014/7
_shelx_space_group_comment
;
The symmetry employed for this shelxl refinement is uniquely defined
by the following loop, which should always be used as a source of
symmetry information in preference to the above space-group names.
They are only intended as comments.
;
_shelx_estimated_absorpt_t_min   0.799
_shelx_estimated_absorpt_t_max   0.914
_shelx_res_file
;
 
    dmsalno215_sq.res created by SHELXL-2014/7
 
 
TITL dmsalno215 in C2/c; 130K; Xcalibur
CELL  0.71073  17.5849  18.5060  17.2860   90.000  115.122   90.000
ZERR    4.000   0.0009   0.0006   0.0008    0.000    0.006    0.000
LATT  7
SYMM -X, Y, 1/2-Z
SFAC C   H   LI N  O  ZN
UNIT 160 124 8  28 80 8
 
LIST 4 ! automatically inserted. Change 6 to 4 for CHECKCIF!!
TEMP -143
 
L.S. 6 0   40
BOND $H
FMAP 2
PLAN 5
 
REM [Zn2Li2(C8H3NO6)3(C10H8N2)]*2DMF
REM SQUEEZE: 285 e in 1381 A => ~1.8 DMF
 
SIMU 0.005 0.007 N21 > O26'
SIMU 0.01 0.02 N12 > O16
SIMU 0.01 0.02 N22 > O28
 
DFIX 1.22 0.02 N11 O13, N11 O14, N12 O15, N12 O16
DFIX 1.22 0.02 N21 O25, N21 O26, N21' O25', N21' O26'
DFIX 1.22 0.02 N22 O27, N22 O28
 
ABIN
ACTA 51
SIZE 0.23 0.20 0.09
 
OMIT -4   0   4
OMIT  1   7   0
OMIT  0   6   1
 
WGHT    0.085200   15.045000
FVAR       1.19663   0.69256
ZN1   6    0.753891    0.119698    0.578635    11.00000    0.02952    0.02466 =
         0.01520    0.00033   -0.00039    0.00073
LI1   3    0.922873    0.113467    0.752374    11.00000    0.02750    0.02721 =
         0.01786    0.00068    0.00259    0.00074
O11   5    0.842193    0.090474    0.545951    11.00000    0.02717    0.07067 =
         0.02034   -0.01385   -0.00156    0.01256
O12   5    0.963197    0.108385    0.659787    11.00000    0.02525    0.03495 =
         0.01452   -0.00424    0.00308   -0.00011
C11   1    0.920521    0.083953    0.587575    11.00000    0.02895    0.03959 =
         0.01603   -0.00231    0.00413    0.00165
C12   1    0.962194    0.040666    0.542740    11.00000    0.02789    0.04754 =
         0.01312   -0.00681    0.00122    0.00534
C13   1    0.925597   -0.022154    0.500496    11.00000    0.03221    0.05369 =
         0.03648   -0.01176    0.01416   -0.00206
C14   1    1.037334    0.062462    0.542561    11.00000    0.03677    0.05434 =
         0.04092   -0.01833    0.01475   -0.00427
N11   4    0.849061   -0.049513    0.492536    10.25000    0.04341    0.03294 =
         0.04591   -0.00687    0.03121    0.00170
O13   5    0.842952   -0.060698    0.560720    10.25000    0.06332    0.04878 =
         0.07557   -0.00240    0.04032   -0.00962
O14   5    0.790685   -0.063057    0.421035    10.25000    0.03866    0.07740 =
         0.07677   -0.04734    0.03129   -0.01706
N12   4    1.065675    0.146225    0.554442    10.25000    0.06411    0.08232 =
         0.07181   -0.04475    0.04499   -0.02217
O15   5    1.016802    0.197001    0.548630    10.25000    0.06911    0.06925 =
         0.06765   -0.03955    0.03604   -0.00262
O16   5    1.140604    0.160412    0.576549    10.25000    0.06950    0.08600 =
         0.09339   -0.04878    0.04152   -0.03166
O21   5    0.752112    0.213466    0.623960    11.00000    0.04542    0.02726 =
         0.02582   -0.00651    0.00597    0.00583
O22   5    0.866011    0.201128    0.747524    11.00000    0.03761    0.02757 =
         0.03123   -0.00285    0.00938    0.00550
O23   5    0.774548    0.537857    0.869781    11.00000    0.04244    0.03779 =
         0.04092   -0.01761    0.00394    0.00482
O24   5    0.647501    0.533127    0.762341    11.00000    0.04496    0.03235 =
         0.03676   -0.00669    0.00539    0.01326
C21   1    0.802461    0.233991    0.699189    11.00000    0.03384    0.02494 =
         0.02260   -0.00092    0.01076    0.00051
C22   1    0.780835    0.304851    0.726112    11.00000    0.03419    0.02620 =
         0.02643   -0.00226    0.00923    0.00308
C23   1    0.824697    0.328569    0.809493    11.00000    0.05269    0.03798 =
         0.03483   -0.01118   -0.00634    0.01419
C24   1    0.804326    0.393889    0.833782    11.00000    0.05661    0.04146 =
         0.03219   -0.01357   -0.00526    0.01758
C25   1    0.741290    0.437167    0.778191    11.00000    0.04044    0.02712 =
         0.02841   -0.00295    0.00890    0.00323
C26   1    0.699169    0.413631    0.695630    11.00000    0.05400    0.03639 =
         0.02946   -0.00124   -0.00351    0.02026
AFIX  43
H26   2    0.655298    0.442379    0.655699    11.00000   -1.20000
AFIX   0
C27   1    0.719587    0.348385    0.669359    11.00000    0.06282    0.03573 =
         0.02296   -0.00483    0.00259    0.01455
AFIX  43
H27   2    0.690727    0.333834    0.611386    11.00000   -1.20000
AFIX   0
C28   1    0.718199    0.508847    0.804773    11.00000    0.04201    0.02725 =
         0.02900   -0.00361    0.01083    0.00249
PART 1
N21   4    0.864771    0.419470    0.917284    20.75000    0.07152    0.07728 =
         0.04446   -0.02323    0.00196    0.01389
O25   5    0.839092    0.410800    0.971874    20.75000    0.08708    0.08425 =
         0.04679   -0.01597    0.00575    0.01022
O26   5    0.935236    0.443079    0.930160    20.75000    0.06594    0.09821 =
         0.06766   -0.03764   -0.00342    0.00974
PART 2
N21'  4    0.823242    0.401423    0.926222   -20.75000    0.08129    0.08129 =
         0.04727   -0.02053   -0.00028    0.01467
O25'  5    0.773414    0.412170    0.956477   -20.75000    0.08519    0.08084 =
         0.05013   -0.01799    0.00241    0.01039
O26'  5    0.898340    0.405579    0.974878   -20.75000    0.08085    0.08720 =
         0.05237   -0.02328   -0.00415    0.01211
PART 0
N22   4    0.861363    0.273166    0.883786    10.25000    0.05581    0.05072 =
         0.03594   -0.00533    0.01696    0.02586
O27   5    0.826991    0.215667    0.890099    10.25000    0.07497    0.05143 =
         0.04241    0.01660    0.02505    0.02107
O28   5    0.931287    0.290081    0.933845    10.25000    0.05995    0.06503 =
         0.04519   -0.01230    0.00206    0.01526
N1    4    0.658056    0.124190    0.460255    11.00000    0.02592    0.02719 =
         0.01474    0.00097   -0.00146    0.00038
C1    1    0.642037    0.065010    0.411321    11.00000    0.03273    0.02997 =
         0.02364    0.00126   -0.00337    0.00525
AFIX  43
H1    2    0.674370    0.022735    0.434511    11.00000   -1.20000
AFIX   0
C2    1    0.580581    0.062888    0.328698    11.00000    0.03984    0.02639 =
         0.02127   -0.00518   -0.00497    0.00367
AFIX  43
H2    2    0.570766    0.019943    0.295739    11.00000   -1.20000
AFIX   0
C3    1    0.533119    0.124712    0.294329    11.00000    0.02454    0.03028 =
         0.01766   -0.00048    0.00363   -0.00361
C4    1    0.550426    0.186159    0.345367    11.00000    0.03101    0.02696 =
         0.01708    0.00172    0.00253    0.00317
AFIX  43
H4    2    0.519612    0.229437    0.323806    11.00000   -1.20000
AFIX   0
C5    1    0.612967    0.183542    0.427819    11.00000    0.03082    0.02714 =
         0.01390   -0.00155   -0.00107    0.00314
AFIX  43
H5    2    0.624139    0.225550    0.462509    11.00000   -1.20000
AFIX   0
HKLF 4
 
REM  dmsalno215 in C2/c; 130K; Xcalibur
REM R1 =  0.0524 for    3808 Fo > 4sig(Fo)  and  0.0663 for all    4814 data
REM    371 parameters refined using    100 restraints
 
END
 
WGHT      0.0852     15.0451
 
REM Highest difference peak  1.228,  deepest hole -0.458,  1-sigma level  0.090
Q1    1   1.0221  0.2485  0.5014  11.00000  0.05    1.23
Q2    1   0.7991  0.0978  0.5613  11.00000  0.05    0.65
Q3    1   0.7368 -0.0932  0.3582  11.00000  0.05    0.62
Q4    1   0.7147  0.1336  0.6034  11.00000  0.05    0.56
Q5    1   0.7498 -0.1259  0.3742  11.00000  0.05    0.51
;
_shelx_res_checksum              58184
_shelx_hkl_file
;
   0   0   3 96.9336 63.1414   1
   0   0  -3 55.4986 56.1427   2
   0   0   3 40.0375 66.5303   2
   0   0  -4 1300.07 93.6905   1
   0   0  -4 1706.91 107.660   2
   0   0   4 1783.41 103.100   1
   0   0   4 1572.13 113.726   2
   0   0  -5 76.1309 76.4289   2
   0   0   5 72.9051 93.9239   2
   0   0  -5-148.765 102.401   1
   0   0   5 7.45081 79.2253   1
   0   0   6 65518.3 590.759   1
   0   0  -6 63789.7 624.525   2
   0   0  -6 66024.5 592.924   1
   0   0  -7 62.4650 85.0040   2
   0   0   7 30.8677 94.0610   2
   0   0   7-0.20160 81.7225   1
   0   0  -7-192.273 108.371   1
   0   0   8 61650.0 660.073   1
   0   0  -8 61109.1 711.884   2
   0   0   8 61506.0 715.802   2
   0   0  -8 62058.4 672.228   1
   0   0   9-8.53978 86.2928   1
   0   0  -9 83.7841 90.7693   2
   0   0   9 30.2416 101.550   2
   0   0  -9-60.6112 100.543   1
   0   0  10 4065.08 207.110   1
   0   0 -10 4115.45 225.700   2
   0   0  10 3702.94 220.257   2
   0   0 -10 4250.68 214.400   1
   0   0  11-37.4064 96.8887   1
   0   0 -11 57.5768 109.280   1
   0   0 -11 39.6906 97.7389   2
   0   0  12 18466.5 459.836   1
   0   0 -12 18850.7 463.672   1
   0   0 -12 18091.7 490.960   2
   0   0  13-50.7491 113.896   1
   0   0 -13 86.4233 129.413   1
   0   0  14 3346.10 235.979   1
   0   0 -14 3905.46 259.885   1
   0   0 -15 351.623 160.721   1
   0   0 -16 658.506 194.140   1
   0   0 -17 696.218 203.859   1
   0   0 -18 6208.21 380.377   1
   0   0 -19-95.4314 205.212   1
   0   2   3 138459. 655.865   1
   0   2  -3 142990. 676.384   1
   0   2   3 138978. 739.861   2
   0  -2  -3 140700. 734.064   2
   0  -2  -3 137998. 647.098   1
   0   2   4 14612.3 246.266   1
   0   2  -4 15009.8 255.069   1
   0  -2  -4 14501.7 272.763   2
   0   2  -4 15010.4 238.117   2
   0  -2  -4 14234.2 245.662   1
   0   2   4 14520.9 279.410   2
   0   2   5 36259.4 411.644   1
   0   2  -5 36138.0 405.270   2
   0   2   5 35091.2 462.980   2
   0  -2  -5 36070.0 418.762   1
   0  -2  -5 35464.0 461.551   2
   0   2  -5 35866.4 423.518   1
   0  -2  -6 190.726 94.6241   2
   0   2  -6 181.227 79.1914   2
   0   2  -6 4.61184 86.9039   1
   0   2   6 116.573 105.279   2
   0  -2   6 148.052 83.6254   1
   0   2   6 24.6073 86.8972   1
   0  -2  -6 351.438 103.774   1
   0  -2  -7 51331.2 635.607   2
   0   2   7 52316.7 646.402   2
   0   2  -7 52678.5 596.463   1
   0   2  -7 52099.4 583.324   2
   0  -2   7 51080.3 576.815   1
   0   2   7 52071.9 569.208   1
   0  -2  -7 52145.0 579.447   1
   0   2   8 4208.84 192.360   1
   0   2   8 4211.85 218.001   2
   0   2  -8 4208.29 192.813   2
   0  -2  -8 4692.47 209.886   1
   0   2  -8 4531.84 204.994   1
   0  -2   8 4246.66 194.405   1
   0  -2  -8 4199.93 211.208   2
   0  -2   9 1561.12 139.631   1
   0  -2  -9 1922.70 166.721   1
   0   2  -9 2136.83 170.015   1
   0   2   9 1523.67 160.441   2
   0  -2  -9 1582.78 155.712   2
   0   2  -9 1613.55 140.825   2
   0   2   9 1582.48 140.933   1
   0   2  10 5.50759 86.1642   1
   0   2  10 55.8583 110.699   2
   0  -2 -10 256.642 126.406   1
   0  -2 -10 67.5208 96.8630   2
   0  -2  10 34.1713 89.9317   1
   0   2 -10 15.3360 89.3310   2
   0  -2 -11 25428.1 519.021   1
   0   2  11 24977.6 506.357   1
   0   2 -11 24611.7 523.037   2
   0   2 -11 24170.8 521.194   1
   0   2  11 24397.0 563.445   2
   0  -2  11 24368.2 509.372   1
   0  -2 -11 24718.9 560.832   2
   0  -2 -12 555.666 135.034   2
   0   2  12 604.847 153.439   2
   0  -2 -12 741.357 158.583   1
   0   2 -12 179.431 135.594   1
   0   2  12 420.490 115.453   1
   0   2 -12 532.040 123.855   2
   0   2  13 337.114 143.580   2
   0   2 -13 441.033 130.418   2
   0  -2 -13 238.668 146.735   1
   0   2 -13 275.642 128.766   1
   0   2  13 456.125 123.886   1
   0  -2 -14-344.267 172.669   1
   0   2  14-101.297 118.131   1
   0   2  14-5.56970 138.484   2
   0   2 -14-14.0281 139.546   1
   0  -2 -15 2890.77 249.127   1
   0   2 -15 3092.09 252.359   1
   0  -2 -16 586.392 175.508   1
   0   2 -16 874.410 192.385   1
   0   2 -17 6781.06 378.221   1
   0  -2 -17 6024.29 361.169   1
   0  -2 -18-24.4267 177.784   1
   0   2 -18 492.621 202.823   1
   0  -2 -19 496.895 208.069   1
   0   2 -19 1403.45 247.275   1
   0  -4   0 190749. 556.867   3
   0   4  -1 3294.21 97.0752   3
   0   4   1 3409.20 126.591   2
   0  -4   1 3358.43 97.2085   3
   0   4   2 10784.8 228.057   2
   0   4  -2 10712.3 184.770   3
   0  -4  -2 11041.2 226.995   2
   0   4   3 5758.59 176.040   1
   0  -4  -3 6005.06 188.008   2
   0   4   3 5906.12 192.563   2
   0  -4  -4 16321.2 318.825   2
   0   4   4 15747.5 287.317   1
   0   4   4 16228.2 326.023   2
   0   4  -5 530.376 98.1336   1
   0   4   5 544.468 121.320   2
   0   4   5 398.524 94.9062   1
   0  -4  -5 545.266 103.768   2
   0  -4  -5 553.000 105.437   1
   0  -4  -6 19970.4 364.831   1
   0   4   6 19930.0 355.607   1
   0  -4  -6 20699.2 408.934   2
   0   4   6 20719.2 415.727   2
   0   4  -6 20994.9 333.200   2
   0   4  -6 20910.0 386.361   1
   0   4  -7 4209.37 196.122   1
   0  -4  -7 4214.97 199.695   1
   0   4   7 4382.14 219.491   2
   0   4   7 4451.14 195.155   1
   0  -4  -7 4355.91 213.970   2
   0   4  -7 4318.36 178.531   2
   0   4   8 77020.8 879.898   2
   0  -4  -8 76389.6 874.659   2
   0   4  -8 77565.3 808.052   1
   0   4   8 76769.7 770.007   1
   0   4  -8 76433.0 737.422   2
   0  -4  -8 75740.2 768.504   1
   0   4  -9 529.164 104.832   2
   0  -4  -9 545.547 130.083   1
   0  -4  -9 433.787 112.760   2
   0   4   9 510.127 104.094   1
   0   4  -9 347.994 112.368   1
   0   4   9 468.148 127.135   2
   0   4 -10 1245.62 150.817   1
   0  -4 -10 1074.25 154.516   2
   0   4  10 1137.28 139.609   1
   0  -4 -10 1097.28 155.725   1
   0   4  10 1100.17 167.821   2
   0   4 -10 1233.56 136.429   2
   0   4 -11 3606.09 228.199   1
   0   4  11 3415.09 210.519   1
   0   4 -11 3146.16 200.523   2
   0  -4 -11 3232.94 220.572   1
   0   4  11 3360.51 244.992   2
   0  -4 -11 3229.72 235.644   2
   0   4  12 26133.9 636.729   2
   0   4 -12 25890.6 548.935   2
   0  -4 -12 25470.0 554.356   1
   0   4 -12 27414.2 593.454   1
   0   4  12 26521.2 554.692   1
   0   4  13 466.334 158.891   2
   0  -4 -13 574.476 164.440   1
   0   4 -13 1145.23 188.478   1
   0   4  13 638.829 140.263   1
   0   4 -13 646.385 136.427   2
   0   4  14 3945.74 301.664   2
   0   4 -14 4000.76 258.717   2
   0   4 -14 3604.24 261.292   1
   0  -4 -14 4035.19 279.765   1
   0   4  14 4115.96 262.154   1
   0   4  15 390.019 169.628   2
   0   4 -15 154.227 156.812   1
   0  -4 -15 528.444 183.674   1
   0   4  16 4137.69 323.871   2
   0  -4 -16 4162.23 304.664   1
   0   4 -16 4441.20 307.293   1
   0   4 -17-51.2717 165.007   1
   0  -4 -17 195.351 183.167   1
   0   4 -18 4988.62 349.358   1
   0  -4 -18 4765.79 343.918   1
   0   6  -1 1279.99 83.7000   3
   0  -6   1 1134.66 79.1904   3
   0   6   1 1150.21 113.853   2
   0   6   2 23218.6 357.929   2
   0   6  -2 22810.4 288.223   3
   0   6   3 55650.2 585.105   2
   0  -6  -3 56235.0 584.904   2
   0   6  -3 54484.0 491.656   3
   0   6   4 154.912 104.700   2
   0  -6  -4 54.7436 82.3415   2
   0   6  -4 22.9795 70.3204   3
   0   6   4 114.106 94.2232   1
   0   6  -5 3212.81 160.679   3
   0  -6  -5 3191.56 184.932   2
   0   6   5 3339.91 192.860   2
   0   6   5 3370.17 181.429   1
   0   6   6 3873.08 191.464   1
   0   6   6 4177.80 221.457   2
   0  -6  -6 4086.09 212.847   2
   0   6   7 2193.00 181.050   2
   0  -6  -7 2489.25 183.413   2
   0   6   7 2000.61 159.166   1
   0   6  -7 2032.24 163.226   1
   0  -6  -8 7448.98 303.263   2
   0   6  -8 7637.54 239.370   2
   0   6   8 7209.25 299.780   2
   0   6   8 7408.93 266.184   1
   0   6  -8 7384.35 284.632   1
   0   6   9 61964.8 871.174   2
   0   6  -9 62515.1 698.594   2
   0   6  -9 63065.3 811.838   1
   0   6   9 62750.2 770.844   1
   0  -6  -9 63497.4 882.018   2
   0  -6  -9 60194.0 748.843   1
   0   6  10-12.6397 102.807   1
   0  -6 -10-67.9780 124.346   1
   0   6 -10-56.6832 118.881   1
   0  -6 -10 2.34462 107.456   2
   0   6  10 30.5548 123.348   2
   0   6 -10 18.2154 82.6168   2
   0   6 -11 34275.1 661.667   1
   0   6  11 33295.2 709.517   2
   0   6 -11 32988.6 574.311   2
   0  -6 -11 33135.3 614.830   1
   0   6  11 34133.8 623.851   1
   0   6 -12 295.447 133.318   1
   0  -6 -12 160.956 137.988   1
   0   6  12 186.989 141.480   2
   0   6  12 28.5060 123.486   1
   0   6 -12 248.378 109.882   2
   0   6  13 2395.79 207.038   1
   0  -6 -13 2097.74 215.340   1
   0   6 -13 2255.67 188.049   2
   0   6  13 2162.03 233.587   2
   0   6 -13 2464.25 231.109   1
   0   6  14 106.545 159.608   2
   0   6 -14 73.9792 116.656   2
   0   6 -14 562.894 173.715   1
   0  -6 -14 178.792 156.758   1
   0  -6 -15 22201.2 591.212   1
   0   6 -15 24448.5 654.902   1
   0   6  15 22224.6 689.737   2
   0   6  16 1476.72 242.823   2
   0  -6 -16 1323.62 214.512   1
   0   6 -16 1370.77 224.482   1
   0   6  17 2667.17 303.366   2
   0   6 -17 2270.82 264.216   1
   0  -6 -17 2895.18 280.384   1
   0   6  18 334.577 216.461   2
   0  -6 -18 472.537 196.442   1
   0   6 -18 226.877 179.946   1
   0  -8   0 486.800 67.1749   3
   0   8   0 381.098 90.3524   2
   0   8   1 2726.12 149.896   2
   0  -8   1 2876.85 114.402   3
   0  -8   2 6332.17 173.300   3
   0   8  -2 6446.69 173.471   3
   0   8   2 6261.94 223.454   2
   0   8  -3 4476.31 162.840   3
   0   8   3 4631.16 210.272   2
   0   8  -4 1936.92 124.161   3
   0   8   4 2073.56 164.639   2
   0  -8  -4 2088.60 158.464   2
   0   8   5 303.019 108.548   1
   0   8   5 490.645 126.008   2
   0  -8  -5 393.356 109.257   2
   0   8  -5 363.863 85.8532   3
   0  -8  -6 1242.18 148.213   2
   0   8  -6 1212.97 128.420   3
   0   8   6 1292.36 154.919   2
   0   8   6 1410.67 152.590   1
   0   8  -7 411.503 102.429   3
   0   8   7 430.039 137.931   2
   0   8   7 439.832 123.218   1
   0  -8  -7 494.387 124.371   2
   0   8  -8 10251.1 349.305   1
   0   8  -8 10865.5 348.695   3
   0  -8  -8 10836.4 379.141   2
   0   8   8 10640.6 342.295   1
   0   8   8 10432.3 381.712   2
   0   8  -9 2901.71 217.958   1
   0  -8  -9 3117.11 230.341   2
   0   8   9 2888.10 228.620   2
   0   8  -9 2837.50 161.631   2
   0   8  -9 3183.05 211.811   3
   0   8   9 3160.17 213.656   1
   0   8  10 6401.49 327.008   2
   0   8 -10 6228.69 242.172   2
   0   8  10 6281.84 285.057   1
   0   8 -10 6066.67 298.835   1
   0   8  11 2377.76 236.538   2
   0   8  11 2544.50 207.063   1
   0   8 -11 2562.74 217.606   1
   0   8 -11 2359.43 172.970   2
   0   8  12 5479.38 289.057   1
   0   8 -12 5407.18 306.112   1
   0   8  12 5550.31 334.037   2
   0   8 -12 5440.01 255.714   2
   0   8  13 476.466 174.476   2
   0   8 -13 419.481 118.640   2
   0   8 -13 544.028 157.751   1
   0   8 -14 4378.32 305.453   1
   0   8 -14 3811.05 240.191   2
   0   8  14 3989.18 321.325   2
   0   8  15 433.410 188.538   2
   0   8 -15 697.408 190.536   1
   0   8  16 25.4359 177.504   2
   0   8 -16 464.460 199.497   1
   0   8  17 128.641 178.901   2
   0   8 -17 1242.63 243.234   1
   0 -10   0 25381.7 324.787   3
   0  10   0 25352.0 417.117   2
   0 -10   1 80623.4 595.276   3
   0  10   1 81616.2 765.377   2
   0 -10  -1 80127.1 561.685   3
   0  10   2 479.819 104.486   2
   0  10   3 18107.3 410.047   2
   0  10  -3 17920.6 320.778   3
   0  10  -4 4.53687 71.8562   3
   0  10   4 5.73156 101.941   2
   0  10  -5 2371.88 150.577   3
   0  10   5 2363.50 186.921   2
   0  10   6 4380.40 236.404   1
   0 -10  -6 4395.14 247.034   2
   0  10  -6 4029.52 197.773   3
   0  10   6 4061.11 242.738   2
   0  10   7 6768.12 315.539   2
   0  10  -7 6496.59 263.337   3
   0 -10  -7 7002.29 312.212   2
   0  10   7 6892.42 295.977   1
   0  10  -8 483.651 113.683   3
   0 -10  -8 449.202 128.158   2
   0  10   8 552.558 141.476   1
   0  10   8 575.099 149.925   2
   0  10   9 17021.4 520.248   2
   0  10  -9 16489.4 456.701   3
   0  10  -9 16807.6 486.464   1
   0  10   9 16665.9 463.296   1
   0  10 -10 466.829 149.693   1
   0  10 -10 526.394 94.9726   2
   0  10  10 1050.31 174.919   1
   0  10  10 632.150 166.988   2
   0  10  11 10460.5 448.380   2
   0  10 -11 9889.27 411.517   1
   0  10 -11 9697.03 311.125   2
   0  10  11 9992.00 387.208   1
   0  10 -12 2465.97 238.114   1
   0  10 -12 2119.18 164.754   2
   0  10  12 2686.24 267.422   2
   0  10 -13 405.181 166.847   1
   0  10 -13 384.864 111.911   2
   0  10  13 593.959 182.013   2
   0  10 -14 424.548 171.606   1
   0  10  14 436.821 183.032   2
   0  10 -15 4822.22 344.961   1
   0  10  15 4149.29 348.360   2
   0  10  16-15.0411 184.529   2
   0  10 -16 265.833 178.305   1
   0  10 -17 7484.97 436.327   1
   0  10  17 7033.45 471.598   2
   0  12   0 44343.2 602.281   2
   0 -12   0 44219.9 464.454   3
   0 -12   1 6420.65 190.312   3
   0  12   1 6804.15 259.143   2
   0 -12  -1 6665.90 183.150   3
   0  12  -1 6432.93 234.991   2
   0  12   2 1548.94 151.622   2
   0  12   3 239.913 109.758   2
   0  12  -4 1554.13 131.212   3
   0  12   4 1416.94 163.228   2
   0  12   5 2422.81 199.892   2
   0  12  -5 2330.79 157.447   3
   0  12  -6 24802.3 478.797   3
   0  12   6 25152.9 556.761   1
   0  12   6 25049.1 575.983   2
   0  12   7 1758.76 204.066   2
   0  12   7 1674.34 195.683   1
   0  12  -7 1430.23 147.530   3
   0  12   8 1043.94 181.673   2
   0  12   8 1059.19 175.890   1
   0  12  -8 736.029 123.529   3
   0  12   9 700.826 175.412   2
   0  12  -9 662.881 131.814   3
   0  12 -10 2241.57 153.404   2
   0  12 -10 2284.08 234.659   1
   0  12  10 2270.53 242.385   2
   0  12  11 3175.81 288.254   2
   0  12 -11 3169.51 190.176   2
   0  12 -11 3438.52 283.260   1
   0  12 -12 3958.76 302.823   1
   0  12 -12 3364.95 201.227   2
   0  12  12 3849.60 319.640   2
   0  12 -13 1371.29 217.427   1
   0  12  13 1430.12 233.419   2
   0  12  14 2773.17 303.305   2
   0  12 -14 2997.08 289.506   1
   0  12 -15 290.014 185.420   1
   0  12  15 229.002 180.618   2
   0  12 -16 75.4500 181.151   1
   0 -14   0 6945.41 206.162   3
   0  14   0 7174.08 276.848   2
   0 -14  -1 845.197 86.7945   3
   0  14   1 877.965 135.229   2
   0  14  -1 742.052 120.097   2
   0 -14   1 666.484 84.1438   3
   0  14  -2 290.873 98.3579   2
   0  14   2 287.825 114.668   2
   0 -14  -2 300.867 74.3736   3
   0  14   3 10026.7 358.852   2
   0  14   4-65.6923 121.464   2
   0  14   5 2685.13 223.604   2
   0  14  -5 3030.78 184.232   3
   0  14  -6 587.773 122.564   3
   0  14   6 539.712 153.146   2
   0  14  -7 1437.09 153.839   3
   0  14   7 1752.33 214.043   2
   0  14  -8 266.695 113.515   3
   0  14   8 492.820 168.787   2
   0  14   9 2473.10 250.921   2
   0  14  10 1235.02 208.910   2
   0  14 -10 1424.17 214.132   1
   0  14 -11 6169.92 373.221   1
   0  14  11 6084.08 384.263   2
   0  14  12 2857.06 303.844   2
   0  14 -12 2867.45 291.142   1
   0  14  13 954.767 216.221   2
   0  14 -13 829.102 207.199   1
   0  14  14 1069.33 239.704   2
   0  14 -14 1340.03 241.403   1
   0 -16   0 11016.7 267.848   3
   0  16   0 11667.3 373.717   2
   0  16   1 1069.08 155.788   2
   0 -16  -1 1145.80 101.515   3
   0  16  -1 1164.59 146.595   2
   0 -16  -2 1550.55 111.309   3
   0  16   2 1595.88 182.450   2
   0  16  -2 1727.83 162.309   2
   0  16   3 1623.60 187.321   2
   0  16  -3 1743.92 155.330   2
   0 -16  -3 1739.73 122.430   3
   0  16  -4 292.395 105.741   2
   0  16   4 404.214 137.428   2
   0  16   5 695.114 163.587   2
   0  16   6 7837.54 378.995   2
   0  16   7 117.620 145.463   2
   0  16  -7 152.398 111.829   3
   0  16  -8 8423.78 337.111   3
   0  16   8 8901.90 437.132   2
   0  16   9 1141.89 213.251   2
   0  16  10 115.129 158.713   2
   0  16  11 999.048 224.753   2
   0  16 -11 954.610 218.011   1
   0  16  12 4903.51 383.059   2
   0  16 -12 5093.19 375.248   1
   0  16 -13 43.2312 175.503   1
   0  16  13-115.658 196.816   2
   0  18   0 2290.28 204.207   2
   0  18  -1 141.657 119.227   2
   0 -18  -1 15.5412 71.4987   3
   0  18   1 104.142 120.298   2
   0  18   2 431.993 142.931   2
   0  18  -2 521.063 130.581   2
   0 -18  -2 479.095 82.9295   3
   0 -18  -3 1582.76 119.063   3
   0  18  -3 1709.88 167.009   2
   0  18   3 1759.87 203.540   2
   0  18  -4 2581.95 192.909   2
   0  18   4 2484.06 241.477   2
   0 -18  -4 2446.58 144.958   3
   0  18   5 386.025 159.267   2
   0 -18  -5 777.430 113.352   3
   0  18  -5 636.099 126.913   2
   0  18   6 98.4714 148.063   2
   0  18  -6 251.701 107.379   2
   0  18   7-70.0258 161.461   2
   0  18   8 2194.18 263.201   2
   0  18   9 8380.21 451.158   2
   0  18  10-60.8398 180.212   2
   0  18 -11 848.528 221.828   1
   0  18  11 744.574 224.892   2
   0  20   0 4160.55 272.966   2
   0  20   1 293.131 141.066   2
   0  20  -1 288.817 137.908   2
   0  20  -2 2608.19 215.789   2
   0  20   2 2601.81 245.348   2
   0  20   3 2153.70 232.805   2
   0  20  -3 2426.59 203.616   2
   0  20   4 780.939 183.145   2
   0  20  -4 675.998 138.206   2
   0  20   5 363.610 169.782   2
   0  20   6 3284.26 302.555   2
   0  20   7 34.9118 164.147   2
   0  20   8 1988.41 272.589   2
   0  22   0 2633.07 245.269   2
   0  22   1 1443.48 211.219   2
   0  22  -1 1098.24 184.655   2
   0  22   2 120.842 157.693   2
   0  22   3 3213.68 287.223   2
   0  22   4 5.63349 158.322   2
   1   1 -19 6168.60 393.837   1
   1  -1 -19 5228.75 365.073   1
   1  -1 -18 768.709 208.670   1
   1   1 -18 1585.45 248.096   1
   1  -1 -17 1496.78 230.451   1
   1   1 -17 2112.24 248.332   1
   1  -1 -16 4528.50 316.561   1
   1   1 -16 4147.60 293.448   1
   1  -1 -15 1812.41 228.556   1
   1   1 -15 1345.56 196.955   1
   1   1 -14 3598.28 256.349   1
   1  -1 -14 3922.41 269.610   1
   1   1 -13 9572.64 363.281   1
   1  -1 -13 9706.68 364.093   1
  -1   1  13 9530.55 353.416   1
   1   1 -13 8698.30 361.009   2
  -1  -1  13 9195.98 356.808   1
  -1  -1  12 6170.31 285.402   1
   1   1 -12 6137.69 286.223   1
   1  -1 -12 5865.31 295.907   2
  -1   1  12 6182.00 277.001   1
   1   1 -12 6099.42 293.402   2
   1  -1 -12 6355.78 295.218   1
   1   1 -11 1072.19 144.573   2
  -1   1  11 1174.23 142.530   1
   1  -1 -11 1242.13 160.751   1
  -1  -1  11 1157.53 139.535   1
   1  -1 -11 1189.43 152.236   2
   1   1 -11 986.388 147.625   1
  -1   1  11 1063.08 159.213   2
  -1   1  10 89.8617 107.093   2
  -1  -1  10 187.385 97.6509   1
   1   1 -10 177.756 102.698   2
   1  -1 -10 63.1327 90.9465   2
   1   1 -10-11.3914 113.235   1
  -1   1  10 104.089 94.4295   1
   1  -1 -10 295.780 121.827   1
   1   1  -9 156.975 92.2994   2
   1   1  -9 81.7546 113.115   1
   1  -1  -9 326.934 124.601   1
  -1   1   9 120.969 91.8003   1
  -1   1   9 78.9397 110.101   2
  -1  -1   9 79.7393 88.6485   1
   1  -1  -9 208.338 105.302   2
   1   1  -8 26001.1 451.422   1
   1  -1  -8 26631.9 448.400   1
  -1   1   8 25707.0 479.420   2
   1  -1  -8 26065.4 479.126   2
  -1  -1   8 25602.4 442.168   1
   1   1  -8 25499.3 455.361   2
  -1   1   8 25973.3 443.211   1
   1  -1  -7 5802.79 224.108   2
  -1   1   7 6037.85 234.286   2
   1   1  -7 6038.16 218.277   2
   1  -1  -7 6440.97 225.813   1
  -1  -1   7 6384.71 217.722   1
  -1   1   7 6442.63 219.315   1
   1   1  -7 6676.65 230.938   1
   1   1  -6 4327.33 181.696   1
   1  -1  -6 3503.87 172.441   2
  -1  -1   6 4100.66 172.390   1
  -1   1   6 3804.04 190.543   2
   1   1  -6 3714.37 167.670   2
   1  -1  -6 4055.58 176.103   1
  -1   1   6 4108.23 174.010   1
   1  -1  -5 331.964 90.9684   2
   1   1  -5 601.863 103.704   1
  -1   1   5 461.965 92.4236   1
  -1   1   5 464.885 111.719   2
   1   1  -5 373.068 85.6748   2
   1  -1  -5 437.873 103.835   1
  -1  -1   5 460.834 93.2522   1
   1   1  -4 733.505 85.1531   2
   1   1  -4 825.743 99.1049   1
  -1   1   4 635.540 88.1972   1
  -1   1   4 731.018 106.271   2
  -1  -1   4 599.393 86.8242   1
   1  -1  -4 552.377 85.3910   2
   1  -1  -4 977.972 114.348   1
   1  -1  -3 968.126 84.2931   2
   1   1  -3 1036.19 86.8665   1
  -1  -1   3 1020.45 81.7933   1
  -1   1   3 1000.69 95.8576   2
  -1   1   3 1140.31 91.7123   1
   1  -1  -3 1374.04 101.779   1
  -1  -1  -2 125113. 444.375   1
  -1   1  -2 125965. 485.131   1
   1  -1   2 125285. 459.887   2
   1   1   2 125463. 577.965   2
  -1   1  -2 125364. 461.954   2
   1   1   2 124879. 440.149   1
  -1  -1  -2 124777. 584.418   2
  -1   1  -3 45238.1 350.676   1
  -1  -1  -3 44645.2 403.004   2
   1   1   3 43654.2 329.085   1
  -1   1  -3 44118.3 349.856   2
  -1  -1  -3 44710.2 332.215   1
   1   1   3 44361.1 403.869   2
   1  -1   3 44492.1 347.652   2
  -1  -1  -4 96832.5 666.596   2
  -1   1  -4 97157.3 604.722   2
   1   1   4 97902.0 565.853   1
  -1  -1  -4 97955.0 569.703   1
   1   1   4 99463.8 672.964   2
   1  -1   4 97262.5 582.532   1
   1  -1   4 97873.0 605.106   2
  -1   1  -4 99608.5 594.125   1
  -1   1  -5 58080.4 508.362   1
  -1  -1  -5 58109.4 494.030   1
  -1   1  -5 57832.0 526.370   2
   1  -1   5 58792.0 508.800   1
   1  -1   5 58711.0 536.409   2
   1   1   5 58974.2 488.103   1
  -1  -1  -5 58208.4 571.947   2
   1   1   5 58156.9 571.671   2
  -1  -1  -6 1439.60 128.952   2
  -1   1  -6 1297.35 104.685   1
  -1  -1  -6 1336.58 112.912   1
   1  -1   6 1329.20 122.806   2
   1  -1   6 1385.72 110.440   1
   1   1   6 1486.03 111.681   1
   1   1   6 1356.07 135.094   2
  -1   1  -6 1353.46 117.188   2
   1  -1   7 54311.9 580.365   1
   1   1   7 54222.9 566.960   1
  -1  -1  -7 53611.6 642.743   2
  -1   1  -7 54411.5 583.243   1
   1   1   7 53514.7 644.217   2
  -1  -1  -7 53266.1 563.729   1
   1  -1   7 52461.6 613.462   2
  -1   1  -7 53277.2 604.308   2
   1  -1   8 3587.82 190.205   2
  -1   1  -8 3527.60 181.910   2
   1   1   8 3523.62 168.897   1
   1   1   8 3377.92 197.136   2
  -1  -1  -8 3577.25 191.910   2
  -1  -1  -8 3691.05 182.713   1
  -1   1  -8 3386.60 169.570   1
   1  -1   8 3535.47 172.761   1
   1  -1   9 1239.54 125.158   1
  -1   1  -9 1143.14 129.821   2
   1   1   9 1264.22 122.239   1
   1  -1   9 1183.68 139.543   2
  -1  -1  -9 1560.96 148.986   1
  -1   1  -9 622.427 105.978   1
  -1  -1  -9 1193.84 136.729   2
   1   1   9 1224.54 148.145   2
   1  -1  10 13986.9 363.823   1
   1   1  10 13713.6 401.998   2
   1   1  10 13457.8 347.910   1
  -1   1 -10 13411.9 351.066   1
  -1   1 -10 13494.6 377.584   2
   1  -1  10 13400.7 382.750   2
  -1  -1 -10 14453.1 366.450   1
  -1  -1 -10 13552.4 394.235   2
   1   1  11 7684.64 324.681   2
   1  -1  11 7332.81 281.248   1
  -1  -1 -11 7588.35 319.388   2
   1   1  11 7431.39 280.403   1
  -1  -1 -11 8345.52 301.071   1
  -1   1 -11 7530.12 301.032   2
  -1   1 -11 7403.86 283.577   1
   1   1  12 2634.62 190.314   1
  -1  -1 -12 3601.23 230.878   1
  -1  -1 -12 2464.35 212.271   2
   1  -1  12 2679.76 193.966   1
  -1   1 -12 2224.18 184.647   1
   1   1  12 2408.93 214.977   2
  -1   1 -12 2792.46 214.668   2
  -1   1 -13 4100.84 243.466   1
  -1   1 -13 3720.97 253.205   2
  -1  -1 -13 4602.20 268.691   1
   1   1  13 3622.21 257.353   2
   1   1  13 3875.22 233.452   1
  -1   1 -14 786.016 163.936   1
  -1  -1 -14 1228.28 194.418   1
   1   1  14 430.400 127.380   1
  -1   1 -15 987.724 181.944   1
  -1  -1 -15 902.417 185.666   1
  -1  -1 -16 4951.82 314.966   1
  -1   1 -16 5835.70 330.932   1
  -1   1 -17 1507.84 229.205   1
  -1  -1 -17 423.498 179.354   1
  -1   1 -18 2704.78 282.603   1
  -1  -1 -18 1653.02 240.410   1
   1   3 -19 6116.92 392.351   1
   1  -3 -19 5674.23 383.069   1
   1   3 -18 1190.49 223.781   1
   1  -3 -18 932.091 215.249   1
   1   3 -17 6542.11 371.321   1
   1  -3 -17 6245.24 373.638   1
   1  -3 -16 5418.60 337.597   1
   1   3 -16 5420.23 332.569   1
   1  -3 -15 989.614 198.592   1
   1   3 -15 877.965 177.374   1
   1   3 -14 2932.49 235.999   1
  -1   3  14 2835.57 257.510   2
   1  -3 -14 2945.92 247.289   1
  -1   3  13 10308.8 375.542   1
  -1   3  13 9853.51 409.666   2
   1   3 -13 9782.82 368.575   2
   1   3 -13 9771.36 380.930   1
   1  -3 -13 9729.94 377.035   1
   1   3 -12 427.380 120.508   2
   1  -3 -12 543.761 138.154   2
  -1   3  12 540.658 148.677   2
   1  -3 -12 506.123 146.226   1
   1   3 -12 640.343 143.462   1
  -1   3  12 494.116 130.023   1
  -1   3  11 3449.89 241.407   2
   1  -3 -11 3198.26 218.766   1
  -1   3  11 3508.18 213.340   1
   1   3 -11 3323.34 206.633   2
   1  -3 -11 3538.05 233.396   2
   1   3 -11 3675.52 234.676   1
  -1   3  10 14074.5 375.596   1
   1   3 -10 14143.4 385.831   1
   1  -3 -10 13524.5 406.035   2
   1  -3 -10 13388.7 374.918   1
   1   3 -10 13361.3 366.737   2
  -1   3  10 13420.2 411.563   2
   1  -3  -9 5714.57 250.776   1
   1   3  -9 5851.94 237.075   2
  -1   3   9 5794.88 267.124   2
  -1   3   9 5821.87 242.126   1
   1  -3  -9 5835.78 264.057   2
   1   3  -9 5999.82 254.937   1
   1   3  -8 8754.27 282.168   1
   1  -3  -8 8553.23 295.147   2
  -1   3   8 8342.42 296.636   2
   1   3  -8 8812.83 269.930   2
  -1   3   8 8411.72 266.798   1
   1  -3  -8 8553.72 279.231   1
   1   3  -7 1231.30 119.716   2
   1  -3  -7 1099.37 137.700   1
  -1   3   7 1214.03 124.477   1
  -1   3   7 1088.12 139.639   2
   1   3  -7 1234.43 135.603   1
   1  -3  -7 1200.77 134.164   2
   1   3  -6 577.229 107.462   1
  -1   3   6 581.895 118.778   2
   1  -3  -6 653.993 118.975   1
   1  -3  -6 655.450 112.572   2
  -1   3   6 655.131 109.094   1
  -1   3   5 8525.30 249.141   2
   1  -3  -5 8366.24 234.217   1
   1  -3  -5 8260.03 238.208   2
  -1   3   5 8586.62 226.884   1
   1   3  -5 8561.93 231.251   1
   1   3  -4 36473.2 424.749   1
  -1   3   4 35299.6 436.326   2
   1  -3  -4 36299.7 429.444   2
  -1   3   4 36306.4 411.458   1
   1  -3  -4 35758.5 414.823   1
  -1   3   3 51314.1 454.699   1
   1  -3  -3 52690.0 466.835   2
  -1   3   3 52424.2 469.401   2
   1  -3  -2 11443.9 195.512   2
  -1   3   2 11811.6 204.288   2
   1  -3  -1 104732. 476.177   2
  -1   3   1 106395. 476.062   2
   1  -3   0 31625.0 266.158   3
  -1   3   0 31483.3 201.917   2
  -1   3  -1 11863.0 183.116   3
   1   3   1 11774.1 206.840   2
   1  -3   1 12765.8 190.066   3
  -1  -3  -2 1504.12 103.301   2
  -1   3  -2 1451.21 87.1558   3
   1   3   2 1636.54 117.877   2
   1   3   3 40409.7 440.339   2
   1   3   3 38768.2 361.511   1
  -1   3  -3 39720.1 416.354   3
  -1   3  -3 39949.5 296.216   2
  -1  -3  -3 39554.4 438.374   2
  -1   3  -4 6697.59 154.210   2
  -1  -3  -4 6992.22 213.720   2
  -1  -3  -4 6610.86 174.795   1
   1   3   4 6774.41 176.843   1
   1   3   4 6794.79 219.877   2
  -1   3  -5 76973.1 565.892   2
  -1  -3  -5 78540.3 718.292   2
  -1   3  -5 78445.1 644.191   1
  -1  -3  -5 75833.3 594.671   1
   1   3   5 76221.5 594.343   1
   1   3   5 77405.7 724.303   2
  -1   3  -6 8853.88 238.732   1
  -1   3  -6 8824.13 220.219   2
  -1  -3  -6 9196.04 274.133   2
   1   3   6 8430.80 223.289   1
  -1  -3  -6 8737.77 235.764   1
   1   3   6 9432.57 282.758   2
  -1   3  -7 63086.3 655.785   1
  -1   3  -7 62637.3 618.785   2
   1   3   7 63547.0 629.771   1
   1   3   7 63437.4 734.614   2
  -1  -3  -7 63775.4 744.236   2
  -1  -3  -7 62426.7 634.314   1
  -1   3  -8 1904.92 135.414   2
   1   3   8 2073.82 141.970   1
  -1  -3  -8 1784.55 158.963   2
   1   3   8 1819.78 169.806   2
  -1  -3  -8 1767.15 148.106   1
  -1   3  -8 1876.53 145.138   1
   1   3   9 8384.49 318.838   2
  -1   3  -9 8644.32 278.962   2
  -1  -3  -9 8420.99 277.361   1
   1   3   9 8766.58 275.998   1
  -1   3  -9 8645.00 286.701   1
  -1  -3  -9 8716.46 323.706   2
  -1  -3 -10 20738.9 442.255   1
   1   3  10 20999.8 511.604   2
  -1   3 -10 20981.8 448.290   2
  -1  -3 -10 21598.2 513.423   2
  -1   3 -10 21542.1 465.385   1
   1   3  10 21572.4 441.804   1
  -1  -3 -11 12452.8 367.009   1
  -1   3 -11 12960.9 389.485   1
  -1  -3 -11 12994.2 423.401   2
   1   3  11 12961.3 428.590   2
  -1   3 -11 12762.8 374.030   2
   1   3  11 13395.7 374.089   1
   1   3  12 1141.35 179.709   2
  -1   3 -12 1276.86 154.535   1
   1   3  12 1204.83 146.765   1
  -1  -3 -12 1391.49 176.825   1
  -1   3 -12 1215.88 149.475   2
  -1   3 -13 1786.07 183.223   2
   1   3  13 1513.77 166.114   1
  -1  -3 -13 1521.85 189.734   1
  -1   3 -13 1247.79 156.911   1
   1   3  13 1678.30 211.467   2
   1   3  14 207.988 114.350   1
  -1  -3 -14 284.916 151.049   1
  -1   3 -14-41.5891 148.978   1
   1   3  14 142.448 143.045   2
   1   3  15 158.758 155.342   2
  -1   3 -15-41.7934 150.300   1
  -1  -3 -15 26.0524 149.904   1
  -1  -3 -16 5370.43 324.106   1
   1   3  16 5162.79 356.474   2
  -1   3 -16 5558.12 323.426   1
  -1   3 -17 622.655 189.742   1
  -1  -3 -17 104.555 165.803   1
  -1  -3 -18 416.985 194.855   1
  -1   3 -18 825.614 207.282   1
   1  -5 -19 572.567 217.203   1
   1   5 -19 309.113 188.279   1
   1   5 -18 300.348 184.921   1
   1  -5 -18 416.521 204.429   1
   1   5 -17-157.826 186.302   1
   1  -5 -17 24.5940 169.012   1
   1  -5 -16 6925.45 375.450   1
   1   5 -16 6599.47 376.857   1
  -1   5  16 6796.93 408.059   2
   1   5 -15 299.190 158.418   1
  -1   5  15 280.527 171.307   2
   1  -5 -15 520.176 186.822   1
   1   5 -14 10987.6 432.021   1
   1  -5 -14 10129.4 409.073   1
  -1   5  14 9998.23 448.562   2
   1   5 -14 10064.7 382.274   2
  -1   5  13 5416.80 327.745   2
   1   5 -13 6035.97 320.267   1
   1   5 -13 5334.55 275.462   2
  -1   5  13 5528.18 290.942   1
   1  -5 -13 5351.47 302.553   1
  -1   5  12 14306.8 485.234   2
  -1   5  12 14552.1 431.374   1
   1   5 -12 13737.0 408.820   2
   1   5 -12 14672.1 452.601   1
   1  -5 -12 14446.1 439.995   1
  -1   5  11 3705.95 255.727   2
   1  -5 -11 3949.90 255.370   2
   1  -5 -11 3889.08 244.777   1
  -1   5  11 3625.33 221.205   1
   1   5 -11 4005.30 247.014   1
   1   5 -11 3495.98 206.747   2
   1  -5 -10 14562.3 438.139   2
  -1   5  10 14907.3 399.913   1
   1   5 -10 14875.1 417.128   1
   1  -5 -10 14361.3 398.376   1
   1   5 -10 14546.2 376.147   2
  -1   5  10 14562.4 443.639   2
   1   5  -9 2027.62 153.067   2
   1  -5  -9 2120.05 186.407   2
   1   5  -9 2020.93 173.267   1
  -1   5   9 2111.95 168.184   1
   1  -5  -9 2149.38 182.452   1
  -1   5   9 2012.82 187.497   2
   1   5  -8 471.997 114.042   1
   1  -5  -8 607.100 120.834   2
  -1   5   8 395.035 127.444   2
  -1   5   8 536.282 112.299   1
   1  -5  -8 546.478 131.938   1
   1   5  -8 472.709 93.5005   2
   1  -5  -7 12053.9 346.717   2
  -1   5   7 11713.1 345.133   2
   1   5  -7 11662.3 328.095   1
   1  -5  -7 11275.2 313.653   1
  -1   5   7 11804.8 315.164   1
  -1   5   6 3377.68 177.718   1
  -1   5   6 3386.10 193.789   2
   1  -5  -6 3366.83 187.484   2
   1   5  -6 3536.37 188.784   1
  -1   5   5 19024.6 359.010   1
   1  -5  -5 19550.3 379.146   2
  -1   5   5 19620.6 385.394   2
  -1   5   4 216665. 1138.95   2
  -1   5   4 213018. 1101.83   1
   1  -5  -4 215103. 1140.40   2
  -1   5   3 8497.62 227.711   2
   1  -5  -3 8300.34 219.790   2
   1   5  -2 15020.6 193.694   3
   1  -5  -2 15554.4 259.342   2
  -1   5   2 15836.4 269.922   2
  -1   5   1 2077.91 106.760   2
   1   5  -1 2690.40 75.6953   3
   1  -5  -1 2119.61 103.502   2
  -1  -5   0 564.645 43.4528   3
  -1   5   0 452.687 69.2547   2
   1  -5   0 637.640 80.9296   3
   1  -5   1 50698.7 416.860   3
  -1   5  -1 49515.5 409.775   3
   1   5   1 50173.3 483.693   2
   1   5   2 23193.1 359.957   2
   1  -5   2 23644.8 320.479   3
  -1   5  -2 23067.1 316.105   3
  -1   5  -3 51613.9 502.821   3
  -1  -5  -3 52028.4 561.469   2
   1   5   3 51596.2 564.269   2
   1   5   4 24533.0 364.407   1
  -1   5  -4 25671.7 394.283   3
  -1  -5  -4 25660.8 428.111   2
   1   5   4 25010.1 429.542   2
  -1  -5  -5 365.081 98.6470   2
  -1   5  -5 202.019 53.5151   2
   1   5   5 328.659 93.4000   1
   1   5   5 395.693 114.924   2
  -1   5  -5 344.262 85.3556   3
   1   5   6 8158.52 243.450   1
  -1   5  -6 7629.95 247.550   1
   1   5   6 7633.65 281.413   2
  -1  -5  -6 7823.45 281.490   2
  -1   5  -6 8231.45 208.249   2
   1   5   7 12546.7 368.642   2
  -1  -5  -7 12635.8 362.952   2
   1   5   7 12339.5 303.377   1
  -1   5  -7 12221.1 270.357   2
  -1   5  -7 12305.4 326.429   1
  -1  -5  -8 12593.7 322.325   1
  -1   5  -8 12972.9 299.364   2
  -1   5  -8 12394.9 339.415   1
   1   5   8 12913.1 386.435   2
   1   5   8 13007.2 326.291   1
  -1  -5  -8 13271.0 390.092   2
   1   5   9 2194.21 158.747   1
  -1  -5  -9 2276.08 194.216   2
  -1   5  -9 2205.11 148.492   2
  -1   5  -9 2023.80 160.341   1
   1   5   9 2199.60 197.478   2
  -1  -5  -9 2320.66 176.499   1
  -1   5 -10 35193.4 555.457   2
   1   5  10 36015.4 592.543   1
  -1  -5 -10 36039.9 691.540   2
  -1  -5 -10 34400.2 576.376   1
   1   5  10 35352.1 687.615   2
  -1   5 -10 36056.6 626.223   1
  -1  -5 -11 2500.31 200.998   1
   1   5  11 2364.65 223.677   2
   1   5  11 2762.72 193.383   1
  -1   5 -11 2554.61 178.730   2
  -1   5 -11 2849.76 211.634   1
   1   5  12 3112.90 259.595   2
  -1   5 -12 3260.31 210.742   2
   1   5  12 3262.64 219.172   1
  -1  -5 -12 3372.91 237.771   1
  -1   5 -12 3560.81 242.979   1
   1   5  13 15070.2 440.992   1
  -1   5 -13 14729.2 431.183   2
  -1   5 -13 15950.4 482.958   1
  -1  -5 -13 14783.4 451.281   1
   1   5  13 14222.2 510.954   2
   1   5  14 17780.9 595.522   2
  -1   5 -14 17475.5 490.411   2
  -1   5 -14 18716.5 546.944   1
   1   5  14 17813.9 500.637   1
  -1  -5 -14 17261.8 500.750   1
  -1  -5 -15 520.802 174.540   1
   1   5  15 446.685 179.025   2
  -1  -5 -16 1891.16 231.607   1
   1   5  16 1568.39 248.343   2
  -1   5 -16 1368.66 200.174   1
  -1   5 -17 1025.47 196.505   1
   1   5  17 1220.35 231.536   2
  -1  -5 -17 1439.78 223.622   1
  -1   5 -18 644.464 193.154   1
  -1  -5 -18 427.655 191.297   1
   1   7 -18-211.725 206.165   1
  -1   7  18-120.852 185.403   2
   1   7 -17 3677.84 312.769   1
  -1   7  17 3712.99 336.884   2
   1  -7 -17 3520.21 295.331   1
   1   7 -16 4468.49 334.421   1
  -1   7  16 3795.29 333.100   2
   1  -7 -16 3805.59 300.146   1
   1  -7 -15 4778.56 313.210   1
  -1   7  15 4792.44 354.436   2
   1   7 -15 5206.10 339.566   1
   1  -7 -14 512.031 162.424   1
  -1   7  14 737.127 199.285   2
   1   7 -14 891.060 185.133   1
   1   7 -14 615.827 134.818   2
   1   7 -13 3591.91 266.720   1
   1  -7 -13 3531.42 260.731   1
   1   7 -13 3042.40 218.004   2
  -1   7  13 3526.99 287.683   2
   1   7 -12 2366.58 223.215   1
  -1   7  12 2336.16 209.479   1
   1  -7 -12 2212.76 216.752   1
   1   7 -12 2087.68 178.513   2
  -1   7  12 2326.21 239.049   2
  -1   7  11 16121.8 447.943   1
   1   7 -11 16050.5 468.137   1
   1   7 -11 15981.4 412.422   2
  -1   7  11 16571.5 508.122   2
   1  -7 -10 14381.2 451.889   2
  -1   7  10 14142.7 456.285   2
   1   7 -10 14561.9 432.459   1
  -1   7  10 14623.2 415.230   1
   1   7 -10 14369.2 371.534   2
   1   7  -9 2234.49 192.940   1
  -1   7   9 2218.50 205.121   2
  -1   7   9 2650.86 193.205   1
   1  -7  -9 2394.59 199.218   2
  -1   7   8 11161.1 344.216   1
   1  -7  -8 11242.3 368.192   2
  -1   7   8 11057.6 364.558   2
   1   7  -8 11126.3 356.709   1
  -1   7   7 24735.3 478.743   1
   1   7  -7 24539.1 490.273   1
   1  -7  -7 25081.3 513.337   2
  -1   7   7 24933.0 511.322   2
  -1   7   6 666.270 130.303   2
  -1   7   6 597.458 122.458   1
   1  -7  -6 678.076 117.467   2
  -1   7   5 21788.9 437.382   2
   1  -7  -5 21073.2 421.291   2
   1   7  -5 21071.6 357.053   3
  -1   7   5 21134.6 414.438   1
   1  -7  -4 8273.20 257.633   2
   1   7  -4 8275.85 209.068   3
  -1   7   4 8350.64 265.634   2
   1   7  -3 17351.7 259.652   3
  -1   7   3 18079.3 350.182   2
   1  -7  -3 18183.0 346.462   2
   1   7  -2 19.1867 50.2267   3
  -1   7   2 52.9594 82.6126   2
  -1  -7   1 8691.53 144.641   3
  -1   7   1 8373.27 207.889   2
   1  -7   0 1276.45 94.8845   3
  -1  -7   0 1414.83 64.1213   3
  -1   7   0 1306.41 98.4595   2
   1   7   1 27735.5 411.264   2
   1  -7   1 28212.8 348.023   3
  -1   7  -2 1141.61 98.1811   3
   1  -7   2 1196.73 103.217   3
   1   7   2 1218.88 128.573   2
  -1   7  -3 3648.78 156.413   3
   1   7   3 3549.03 187.443   2
  -1   7  -4 1950.97 130.189   3
   1   7   4 1952.30 158.457   2
  -1  -7  -4 1967.79 150.690   2
  -1   7  -5 212.881 81.8908   3
  -1  -7  -5 279.947 100.375   2
   1   7   5 196.540 112.498   2
   1   7   5 155.327 98.7223   1
  -1  -7  -6 1167.10 141.828   2
   1   7   6 1240.13 158.610   2
   1   7   6 1096.73 129.641   1
  -1   7  -6 1078.99 125.516   3
   1   7   7 41248.5 590.064   1
  -1  -7  -7 41906.2 689.316   2
   1   7   7 41083.7 685.221   2
  -1   7  -7 42126.0 643.952   3
  -1   7  -7 41447.9 479.258   2
  -1  -7  -8 11824.6 387.323   2
  -1   7  -8 11401.9 274.177   2
  -1   7  -8 11295.5 354.509   1
  -1   7  -8 11975.4 368.021   3
   1   7   8 11487.4 384.770   2
   1   7   8 11222.0 325.230   1
   1   7   9 2331.57 210.341   2
  -1  -7  -9 2395.57 210.197   2
  -1   7  -9 2388.42 187.331   3
   1   7   9 2487.61 180.610   1
  -1   7  -9 2419.51 192.793   1
  -1   7  -9 2405.25 146.740   2
  -1   7 -10 12043.3 391.252   1
   1   7  10 12025.5 363.537   1
  -1   7 -10 12300.4 410.891   3
   1   7  10 12337.5 434.561   2
  -1   7 -10 11883.3 319.111   2
   1   7  11 5826.58 327.233   2
  -1   7 -11 5346.76 279.643   1
   1   7  11 5686.08 272.175   1
  -1   7 -11 5677.67 240.611   2
   1   7  12 2215.77 236.378   2
  -1   7 -12 2164.45 201.592   1
  -1   7 -12 2182.87 174.567   2
   1   7  12 2180.30 192.332   1
  -1   7 -13 1550.57 166.097   2
   1   7  13 1628.96 185.390   1
   1   7  13 1475.47 216.127   2
  -1   7 -13 1704.54 204.016   1
  -1   7 -14 3685.43 236.209   2
  -1   7 -14 4649.39 302.711   1
   1   7  14 3781.28 309.313   2
   1   7  15 1088.14 222.608   2
  -1   7 -15 2059.39 239.697   1
  -1   7 -16 4878.85 343.089   1
   1   7  16 4197.49 353.191   2
   1   7  17 2223.91 289.147   2
  -1   7 -17 1390.35 209.815   1
   1   9 -17 688.845 215.457   1
  -1   9  17 542.718 209.679   2
   1   9 -16 5415.66 362.702   1
  -1   9  16 4558.21 370.265   2
   1   9 -15 127.990 158.191   1
  -1   9  15-80.9628 173.281   2
   1   9 -14 2259.58 202.173   2
  -1   9  14 2637.80 281.908   2
   1   9 -14 2741.87 260.566   1
  -1   9  13 165.276 160.562   2
   1   9 -13 58.1295 140.283   1
   1   9 -13 14.6562 101.754   2
   1   9 -12 7377.34 360.653   1
   1   9 -12 6926.49 293.800   2
  -1   9  12 7003.37 378.187   2
   1   9 -11 5125.07 298.315   1
  -1   9  11 5644.22 296.584   1
   1   9 -11 5121.90 244.622   2
  -1   9  11 5439.29 320.925   2
  -1   9  10 26894.2 647.427   2
  -1   9  10 27466.5 589.437   1
   1   9 -10 26953.4 620.524   1
  -1   9   9 1463.06 185.390   2
   1  -9  -9 1351.78 179.254   2
   1   9  -9 1329.25 171.725   1
  -1   9   9 1418.36 171.175   1
   1   9  -9 1453.84 151.992   3
   1   9  -8 7260.41 311.627   1
  -1   9   8 7310.05 301.901   1
  -1   9   8 7689.51 325.494   2
   1   9  -8 7482.37 282.794   3
   1  -9  -8 7508.91 318.765   2
  -1   9   7 4798.98 262.348   2
   1  -9  -7 4734.04 249.945   2
   1   9  -7 4661.76 214.629   3
  -1   9   7 4848.40 246.697   1
  -1   9   6 433.901 125.510   1
  -1   9   6 477.188 125.252   2
   1   9  -6 441.078 92.1148   3
   1  -9  -6 420.379 107.558   2
   1  -9  -5 610.133 116.109   2
   1   9  -5 669.241 94.4030   3
  -1   9   5 582.545 125.371   1
  -1   9   5 694.548 129.592   2
   1   9  -4 37377.8 446.876   3
  -1   9   4 38872.1 580.450   2
   1  -9  -4 39294.9 578.081   2
   1   9  -3 11335.4 226.803   3
  -1   9   3 11601.9 307.472   2
  -1   9   2 92363.6 783.116   2
  -1  -9   1 2703.32 98.7583   3
  -1   9   1 2387.92 140.453   2
   1  -9  -1 2680.56 130.775   3
  -1  -9   0 1364.50 72.1243   3
  -1   9   0 1285.41 109.392   2
   1  -9   0 1208.57 99.1021   3
  -1   9  -1 18880.8 301.700   2
   1  -9   1 18801.3 308.874   3
   1   9   1 19355.9 383.812   2
   1   9   2 28042.7 478.135   2
  -1   9  -2 28143.4 395.592   3
   1  -9   2 28747.4 408.880   3
   1   9   3 4490.21 220.912   2
  -1   9  -3 4293.32 175.021   3
   1   9   4 4532.31 230.204   2
  -1   9  -4 4689.20 195.488   3
   1   9   5 1566.57 165.054   2
  -1   9  -5 1382.45 126.470   3
   1   9   5 1503.76 148.365   1
   1   9   6 383.529 116.090   1
   1   9   6 419.550 135.536   2
  -1  -9  -6 372.904 130.754   2
  -1   9  -6 324.644 95.0117   3
   1   9   7 3632.79 216.774   1
  -1  -9  -7 3719.07 234.590   2
  -1   9  -7 3655.56 209.295   3
   1   9   7 3745.08 240.716   2
   1   9   8 4883.82 248.045   1
  -1   9  -8 4711.74 179.867   2
  -1  -9  -8 5013.70 281.130   2
   1   9   8 4858.87 283.219   2
  -1   9  -8 4765.62 249.590   3
  -1   9  -9 658.282 130.369   3
  -1   9  -9 622.138 87.3694   2
   1   9   9 636.178 161.411   2
   1   9   9 900.621 156.033   1
  -1   9  -9 579.668 134.475   1
  -1   9 -10 22762.9 427.650   2
  -1   9 -10 23981.6 583.326   1
   1   9  10 23313.5 613.603   2
   1   9  10 23490.8 532.441   1
  -1   9 -11 195.534 139.585   1
   1   9  11 307.462 149.084   2
   1   9  11 433.390 130.159   1
  -1   9 -11 288.865 86.0809   2
   1   9  12 2398.16 255.153   2
  -1   9 -12 2371.74 170.763   2
   1   9  12 2411.95 210.212   1
  -1   9 -12 2329.27 224.647   1
  -1   9 -13 2610.05 236.721   1
  -1   9 -13 2808.05 200.092   2
   1   9  13 2925.06 284.642   2
  -1   9 -14 4576.44 313.502   1
   1   9  14 4267.05 340.563   2
  -1   9 -15 1019.55 203.566   1
   1   9  15 742.467 209.650   2
   1   9  16 5409.82 404.823   2
  -1   9 -16 6295.00 382.297   1
  -1   9 -17 923.760 224.901   1
   1   9  17 582.113 220.624   2
   1  11 -17 1270.31 241.778   1
   1  11 -16 2278.26 283.790   1
  -1  11  16 1662.59 271.590   2
   1  11 -15 1400.83 237.464   1
  -1  11  15 1342.25 251.275   2
  -1  11  14 157.966 177.184   2
   1  11 -14 30.7660 159.031   1
   1  11 -13 5668.61 349.406   1
   1  11 -13 5013.40 265.460   2
  -1  11  13 5371.15 363.162   2
  -1  11  12 2274.45 252.519   2
   1  11 -12 2474.89 244.727   1
   1  11 -12 2362.33 183.029   2
  -1  11  11 1231.38 202.713   2
   1  11 -11 1097.61 134.510   2
   1  11 -11 1429.22 203.387   1
   1  11 -10 136.788 136.403   1
  -1  11  10 241.490 150.809   2
   1  11 -10 20.6193 102.171   3
   1  11  -9 4492.65 243.803   3
  -1  11   9 4622.13 289.495   2
   1  11  -9 4434.40 276.369   1
  -1  11   9 4299.11 270.724   1
  -1  11   8 9097.09 373.402   2
   1  11  -8 8791.13 309.331   3
  -1  11   8 9148.78 363.814   1
  -1  11   7 29445.2 619.293   2
   1 -11  -7 29015.3 612.085   2
  -1  11   7 29376.9 605.302   1
   1  11  -7 27982.0 507.379   3
   1  11  -6 1065.72 118.169   3
  -1  11   6 1517.58 174.419   2
  -1  11   6 1345.94 166.931   1
   1 -11  -6 1377.26 160.187   2
   1  11  -5 6838.96 224.485   3
  -1  11   5 7153.32 294.161   2
  -1  11   4 148.950 104.955   2
   1  11  -4 29.8379 65.1244   3
  -1  11   3 2964.65 183.695   2
  -1  11   2 3003.40 177.493   2
   1 -11  -1 59938.1 564.100   3
  -1  11   1 61172.1 668.759   2
  -1 -11   0 13.5854 52.0317   3
   1  11   0 140.722 96.9030   2
  -1  11   0 94.3590 77.8254   2
   1 -11   0 6.29096 67.4496   3
  -1  11  -1 10561.6 260.724   2
  -1 -11  -1 10363.7 190.306   3
   1  11   1 10240.6 312.623   2
   1 -11   1 10656.0 258.628   3
   1  11   2 6400.36 265.168   2
   1 -11   2 6426.05 215.411   3
  -1  11  -3 5079.91 198.872   3
   1  11   3 4919.85 240.949   2
  -1  11  -4 1282.43 124.587   3
   1  11   4 1172.65 159.277   2
   1  11   5 13645.3 417.210   2
  -1  11  -5 13549.2 350.515   3
   1  11   6 1175.13 164.378   2
   1  11   6 1199.76 159.148   1
  -1  11  -6 1056.56 131.924   3
   1  11   7 20446.4 544.315   2
  -1  11  -7 20309.3 476.308   3
   1  11   7 21151.7 506.051   1
  -1  11  -8 6643.47 296.798   3
   1  11   8 6648.04 309.795   1
   1  11   8 6904.83 345.796   2
  -1  11  -9 994.898 103.509   2
   1  11   9 920.609 160.782   1
   1  11   9 1241.41 197.791   2
   1  11  10 903.130 187.138   2
   1  11  10 1274.65 187.122   1
  -1  11 -10 642.331 155.274   1
  -1  11 -10 807.721 102.249   2
  -1  11 -11 382.362 84.9833   2
  -1  11 -11 347.936 149.874   1
   1  11  11 308.037 169.661   2
  -1  11 -12 1263.93 130.264   2
   1  11  12 1706.68 243.709   2
  -1  11 -12 1298.24 199.924   1
  -1  11 -13 4931.80 329.388   1
   1  11  13 4949.89 358.811   2
  -1  11 -14 89.8587 153.909   1
   1  11  14 419.380 194.350   2
  -1  11 -15 1559.79 236.436   1
   1  11  15 1520.82 258.191   2
   1  11  16 2508.73 314.549   2
  -1  11 -16 2968.55 298.536   1
  -1  13  15-33.6935 179.035   2
   1  13 -15 36.2570 175.848   1
  -1  13  14 7953.90 460.207   2
   1  13 -14 7838.72 437.429   1
  -1  13  13 352.722 178.242   2
   1  13 -13 415.571 174.714   1
   1  13 -12 3150.50 288.749   1
  -1  13  12 2651.37 282.011   2
  -1  13  11 2407.11 255.877   2
   1  13 -11 2400.63 252.799   1
  -1  13  10 5916.96 355.405   2
   1  13 -10 6111.48 352.599   1
   1  13  -9 17.3546 106.085   3
  -1  13   9 156.399 142.016   2
  -1  13   8 5543.65 321.088   2
   1  13  -8 5417.90 255.479   3
   1  13  -7-74.7707 97.1004   3
  -1  13   7-91.9421 132.070   2
  -1  13   6 580.035 145.086   2
   1  13  -6 463.789 99.1836   3
  -1  13   5 362.513 129.430   2
   1  13  -5 452.993 96.0032   3
  -1  13   4 4538.08 249.833   2
  -1  13   3 90.9096 99.6355   2
  -1  13   2 17383.6 413.443   2
   1 -13  -2 16523.8 324.612   3
   1 -13  -1 4379.78 176.034   3
   1  13  -1 4482.54 219.347   2
  -1  13   1 4742.40 220.217   2
   1  13   0 115.599 101.594   2
  -1 -13   0 59.9776 50.6055   3
  -1  13   0 17.6856 83.2009   2
   1 -13   0-54.1629 78.6265   3
  -1  13  -1 2749.81 161.301   2
  -1 -13  -1 2693.77 112.044   3
   1 -13   1 2685.02 149.932   3
   1  13   1 2847.94 193.535   2
  -1 -13  -2 10490.0 214.119   3
   1  13   2 10335.5 349.433   2
  -1  13  -2 10167.1 273.416   2
   1 -13   2 10215.1 282.368   3
   1  13   3-15.3414 111.835   2
  -1  13  -4 12224.1 327.379   3
   1  13   4 12241.8 408.145   2
  -1  13  -5 4592.33 223.747   3
   1  13   5 4701.11 276.411   2
   1  13   6 2065.15 200.477   1
   1  13   6 2124.12 213.334   2
  -1  13  -6 1930.23 165.993   3
   1  13   7 558.174 163.691   1
   1  13   7 325.915 150.772   2
  -1  13  -7 163.558 103.242   3
   1  13   8 458.309 160.751   2
  -1  13  -8 160.044 107.002   3
   1  13   9 421.067 168.831   2
  -1  13  -9 541.828 95.3017   2
   1  13  10 19375.5 621.220   2
  -1  13 -10 19469.4 595.708   1
  -1  13 -10 18274.5 379.365   2
  -1  13 -11 260.509 154.870   1
   1  13  11 380.278 173.706   2
  -1  13 -12-43.6452 160.246   1
   1  13  12 168.447 174.332   2
  -1  13 -13 555.442 188.943   1
   1  13  13 525.199 199.486   2
  -1  13 -14 1280.17 223.343   1
   1  13  14 1317.96 245.336   2
  -1  13 -15-21.8660 175.789   1
  -1  15  14 127.877 184.615   2
   1  15 -14-74.4831 190.207   1
   1  15 -13 7938.32 449.852   1
  -1  15  13 7374.62 450.349   2
   1  15 -12 63.3306 166.651   1
  -1  15  12-10.6787 167.321   2
   1  15 -11 117.202 160.938   1
  -1  15  11 367.386 175.789   2
  -1  15  10 1159.36 206.782   2
   1  15  -9 221.111 118.758   3
  -1  15   9 347.290 163.944   2
  -1  15   8 2346.63 246.946   2
   1  15  -8 1937.60 174.558   3
  -1  15   7 4914.88 312.148   2
   1  15  -7 4700.73 232.544   3
  -1  15   6 21.5807 131.120   2
   1  15  -6 333.094 106.800   3
  -1  15   5 11901.0 420.520   2
  -1  15   4 994.674 159.328   2
  -1  15   3 1490.42 171.273   2
   1 -15  -3 1689.73 134.293   3
  -1  15   2 916.640 143.943   2
   1  15  -2 1049.11 140.731   2
   1 -15  -2 797.205 99.8805   3
   1  15  -1 22157.3 492.412   2
  -1  15   1 22106.0 483.316   2
   1 -15  -1 21296.9 390.229   3
  -1  15   0 2101.23 168.204   2
   1 -15   0 1895.08 134.248   3
  -1 -15   0 1973.88 104.408   3
   1  15   0 1926.52 177.413   2
  -1  15  -1 3689.43 201.395   2
   1  15   1 3538.41 231.877   2
   1 -15   1 3432.72 177.829   3
  -1 -15  -1 3348.11 127.173   3
  -1  15  -2 315.799 97.3897   2
  -1 -15  -2 276.636 60.8485   3
   1  15   2 272.341 121.165   2
  -1 -15  -3 3793.82 149.254   3
  -1  15  -3 4028.18 193.449   2
   1  15   3 3727.34 250.622   2
  -1  15  -4 1231.42 125.212   2
   1  15   4 1372.45 186.032   2
   1  15   5 8568.51 378.891   2
   1  15   6 539.633 162.112   2
  -1  15  -6 733.198 134.829   3
   1  15   7 13069.5 495.645   2
  -1  15  -7 13112.7 409.321   3
   1  15   8 125.906 151.575   2
   1  15   9 1472.67 232.391   2
   1  15  10 664.373 197.830   2
   1  15  11 3697.10 327.991   2
  -1  15 -11 3665.31 313.743   1
   1  15  12 201.909 188.442   2
  -1  15 -12 304.847 185.403   1
   1  15  13 7698.57 468.948   2
  -1  15 -13 7902.92 451.197   1
   1  17 -12-154.184 192.885   1
  -1  17  12 219.366 183.398   2
   1  17 -11 770.031 197.699   1
  -1  17  11 648.487 206.838   2
  -1  17  10 7120.83 423.850   2
  -1  17   9 388.444 175.526   2
  -1  17   8 6070.23 368.645   2
  -1  17   7 3067.89 272.831   2
  -1  17   6 712.696 177.685   2
  -1  17   5 273.527 141.608   2
   1 -17  -4 860.844 120.224   3
  -1  17   4 711.487 165.253   2
   1  17  -4 704.304 135.102   2
   1 -17  -3-71.9088 86.1643   3
   1  17  -3 23.2016 104.235   2
  -1  17   3 172.749 129.514   2
   1  17  -2 3183.72 215.989   2
  -1  17   2 3267.41 232.641   2
   1 -17  -2 2987.70 165.067   3
   1 -17  -1 1790.15 135.935   3
   1  17  -1 1885.03 182.567   2
  -1  17   1 1984.50 187.278   2
   1  17   0 2390.40 207.746   2
  -1  17   0 2538.40 195.725   2
   1 -17   0 2333.51 150.977   3
  -1 -17  -1 90.1106 50.3872   3
   1  17   1 117.868 120.354   2
  -1  17  -1 150.994 106.164   2
  -1 -17  -2 6239.81 177.393   3
   1  17   2 6567.59 325.347   2
  -1  17  -2 6743.23 271.565   2
  -1  17  -3 10.4227 90.7823   2
  -1 -17  -3 4.65954 59.7593   3
   1  17   3-93.3741 135.307   2
   1  17   4 28.5549 133.982   2
  -1 -17  -4 323.347 80.2593   3
  -1  17  -4 214.150 96.8759   2
  -1  17  -5 5.54939 87.6282   2
   1  17   5 59.5953 136.417   2
  -1  17  -6 2137.46 149.342   2
   1  17   6 1734.66 224.911   2
   1  17   7 1835.84 237.397   2
   1  17   8 3670.22 314.502   2
   1  17   9-0.44093 165.561   2
   1  17  10 8057.63 455.781   2
   1  17  11 690.422 218.572   2
  -1  17 -11 500.380 198.215   1
   1  17  12 645.623 226.722   2
  -1  17 -12 550.603 206.245   1
  -1  19  10 1453.08 248.123   2
  -1  19   9 1866.30 261.550   2
  -1  19   8 642.940 195.365   2
  -1  19   7 2493.66 267.433   2
   1  19  -6-63.2082 113.262   2
  -1  19   6-83.0829 152.472   2
   1  19  -5 8042.12 325.194   2
   1 -19  -5 7840.19 271.468   3
  -1  19   5 8053.40 400.332   2
  -1  19   4 128.999 144.656   2
   1  19  -4 91.6456 115.642   2
   1 -19  -4-24.3157 81.7742   3
  -1  19   3 634.581 161.359   2
   1 -19  -3 430.473 90.6779   3
   1  19  -3 752.179 148.775   2
  -1  19   2 63.9002 126.769   2
   1 -19  -2 0.66973 81.6229   3
   1  19  -2 204.520 125.797   2
  -1  19   1 8480.15 357.670   2
   1  19  -1 8546.85 364.793   2
   1 -19  -1 7557.06 257.871   3
   1  19   0 624.415 148.130   2
  -1  19   0 720.554 143.775   2
  -1  19  -1 3144.56 221.027   2
   1  19   1 2995.07 249.027   2
  -1  19  -2 35.5526 108.727   2
   1  19   2 93.1894 133.307   2
   1  19   3 458.459 160.518   2
  -1  19  -3 556.784 123.554   2
  -1  19  -4 544.377 117.681   2
   1  19   4 638.564 177.968   2
   1  19   5 2851.53 279.338   2
   1  19   6-48.8678 164.234   2
   1  19   7 6057.28 394.100   2
   1  19   8 158.722 181.096   2
   1  19   9 1.09651 173.164   2
  -1  21   7 248.129 180.218   2
  -1  21   6 18.9312 163.743   2
  -1  21   5 130.891 163.770   2
   1  21  -4 3212.38 238.203   2
  -1  21   4 3275.30 284.897   2
   1  21  -3 140.002 124.817   2
  -1  21   3 76.8804 142.264   2
  -1  21   2 3708.31 276.577   2
   1  21  -2 3253.78 252.027   2
  -1  21   1 208.490 140.105   2
   1  21  -1 108.837 139.104   2
  -1  21   0 60.5354 124.768   2
   1  21   0-12.6651 134.955   2
  -1  21  -1 540.610 143.485   2
   1  21   1 532.497 166.977   2
   1  21   2 3575.93 294.023   2
   1  21   3 51.5264 154.825   2
   1  21   4 2149.06 261.289   2
   1  21   5 406.518 184.927   2
   1  21   6-78.7594 171.049   2
   2   0 -19 571.070 219.281   1
   2   0 -18 13087.4 521.655   1
   2   0 -17 315.945 191.157   1
   2   0 -16 581.248 190.851   1
   2   0 -15 333.596 167.899   1
   2   0 -14 15220.4 476.669   1
   2   0 -13-37.7269 113.498   2
   2   0 -13 181.607 141.084   1
  -2   0  13-67.7742 110.757   1
   2   0 -12 188.455 108.304   2
  -2   0  12 167.392 105.429   1
   2   0 -12 245.739 131.754   1
   2   0 -11 15.4868 100.876   2
  -2   0  11-102.133 101.168   1
   2   0 -11 2.66169 118.005   1
  -2   0  10 10520.7 324.531   1
   2   0 -10 10616.4 329.806   1
   2   0 -10 9692.58 333.401   2
  -2   0   9 22.9787 91.8615   1
   2   0  -9-5.21896 110.932   1
   2   0  -9 70.7752 102.373   2
   2   0  -8 14366.0 355.784   2
  -2   0   8 15461.8 354.134   1
   2   0  -8 15206.3 354.761   1
  -2   0   7 99.4526 97.2833   1
   2   0  -7-30.9433 87.1993   2
   2   0  -7-136.823 111.799   1
   2   0  -6 11598.4 278.161   1
   2   0  -6 11497.9 283.538   2
  -2   0   6 11488.5 273.354   1
  -2   0   5 304.570 96.6783   1
   2   0  -5 55.2857 101.483   1
   2   0  -5 245.813 87.9817   2
   2   0  -4 17207.8 273.745   1
  -2   0   4 17583.8 275.757   1
   2   0  -3 65.3682 78.5802   1
  -2   0   3 253.811 76.2503   1
  -2   0  -1 65.3635 49.3138   3
  -2   0  -2 17457.3 159.624   1
   2   0   2 17387.3 219.695   2
  -2   0  -2 16462.6 218.336   2
  -2   0  -3 46.8037 65.3115   2
  -2   0  -3 31.8532 54.8561   1
   2   0   3 3.78576 50.3256   1
   2   0   3 63.6492 72.1812   2
  -2   0  -4 34590.5 394.870   2
  -2   0  -4 34896.9 330.272   1
   2   0   4 35368.0 400.264   2
   2   0   4 34446.4 325.712   1
   2   0   5 34.8103 61.4148   1
  -2   0  -5 148.109 72.2333   1
   2   0   5 45.2342 84.5081   2
  -2   0  -5 13.3135 73.6918   2
   2   0   6 141917. 820.261   1
  -2   0  -6 142347. 828.464   1
   2   0   6 141225. 947.863   2
  -2   0  -6 141254. 942.622   2
  -2   0  -7-2.60890 79.8804   2
   2   0   7 14.2938 90.9092   2
   2   0   7 44.7545 69.1900   1
  -2   0  -7-96.0692 82.8637   1
  -2   0  -8 4788.75 216.722   2
   2   0   8 4785.02 189.707   1
  -2   0  -8 4622.99 186.355   1
   2   0   8 4805.65 221.272   2
  -2   0  -9-21.9376 88.3509   2
  -2   0  -9 136.399 90.1551   1
   2   0   9 16.1985 97.2705   2
   2   0   9-35.0137 75.5143   1
   2   0  10 11304.8 365.193   2
  -2   0 -10 11733.4 360.375   2
   2   0  10 11645.2 321.878   1
  -2   0 -10 12439.6 327.732   1
   2   0  11-84.4581 93.9526   1
  -2   0 -11 27.1235 97.7138   2
  -2   0 -11 311.922 118.268   1
   2   0  11 43.3684 112.821   2
  -2   0 -12 14758.8 397.168   1
   2   0  12 12192.1 365.462   1
  -2   0 -12 12084.3 409.422   2
   2   0  12 12095.9 415.798   2
   2   0  13-19.0212 127.425   2
   2   0  13-26.1511 98.1968   1
  -2   0 -14 3928.68 251.407   1
  -2   0 -15 943.746 191.929   1
  -2   0 -16 2808.33 267.689   1
  -2   0 -17-356.304 185.345   1
  -2   0 -18 2335.61 262.045   1
   2  -2 -19-2.57139 190.520   1
   2   2 -19 600.293 215.508   1
   2  -2 -18 410.079 191.896   1
   2   2 -18 612.330 206.292   1
   2  -2 -17 13950.0 521.610   1
   2   2 -17 14274.0 526.831   1
   2  -2 -16 713.484 192.161   1
   2   2 -16 996.244 197.779   1
   2   2 -15 13479.6 472.016   1
   2  -2 -15 13161.3 472.107   1
   2   2 -14 1312.41 186.791   1
   2  -2 -14 1490.35 215.499   1
   2   2 -13 470.766 125.236   2
  -2  -2  13 693.513 146.617   1
   2   2 -13 557.845 146.119   1
  -2   2  13 842.113 147.061   1
   2  -2 -13 1251.30 199.563   1
   2   2 -12 474.824 135.467   1
  -2  -2  12 649.729 132.096   1
  -2   2  12 631.159 132.149   1
   2  -2 -12 571.042 136.673   2
   2   2 -12 598.774 131.499   2
   2  -2 -12 1002.75 177.285   1
  -2   2  11 9513.11 329.088   1
   2   2 -11 9147.72 337.737   1
   2   2 -11 9130.89 336.509   2
   2  -2 -11 9010.81 345.198   2
   2  -2 -11 9502.32 339.021   1
  -2  -2  11 9584.17 335.868   1
   2  -2 -10 832.192 148.651   1
   2   2 -10 617.951 127.288   1
  -2   2  10 460.245 131.458   2
   2  -2 -10 412.362 120.179   2
  -2   2  10 436.307 111.574   1
  -2  -2  10 550.297 121.271   1
   2   2 -10 455.827 104.933   2
   2   2  -9 18890.5 423.748   1
   2  -2  -9 17791.8 436.011   2
  -2   2   9 17551.1 432.190   2
   2   2  -9 18437.8 413.999   2
   2  -2  -9 18985.2 418.278   1
  -2  -2   9 18943.2 418.877   1
  -2   2   9 18855.5 413.365   1
  -2  -2   8 2652.50 167.295   1
   2   2  -8 2727.57 179.046   1
   2   2  -8 2460.01 164.072   2
  -2   2   8 2272.69 176.722   2
   2  -2  -8 2405.00 167.063   2
  -2   2   8 2285.71 156.411   1
   2  -2  -8 2883.22 192.007   1
   2  -2  -7 22539.9 430.219   2
  -2  -2   7 23974.3 414.287   1
  -2   2   7 22911.4 404.221   1
   2  -2  -7 24136.2 419.647   1
   2   2  -7 23900.2 420.535   1
   2   2  -7 24235.6 414.173   2
  -2   2   7 23522.7 440.056   2
  -2   2   6 64.3034 110.154   2
   2  -2  -6 366.494 118.468   1
  -2   2   6 106.367 95.0892   1
   2   2  -6 168.073 101.645   1
   2  -2  -6 129.722 87.6622   2
  -2  -2   6 96.1386 90.9595   1
   2  -2  -5 2304.54 140.491   2
  -2  -2   5 2492.45 143.303   1
  -2   2   5 2207.79 149.004   2
   2   2  -5 2370.34 145.959   1
   2  -2  -5 2357.99 148.191   1
  -2   2   5 2381.33 141.699   1
   2  -2  -4 1130.16 127.307   1
  -2   2   4 985.252 113.237   2
   2   2  -4 938.696 107.618   1
  -2   2   4 1498.11 124.660   1
  -2  -2   4 1083.22 107.918   1
   2  -2  -4 992.679 103.400   2
   2   2  -3 76635.4 524.863   1
   2  -2  -3 75079.2 520.217   2
  -2  -2   3 75856.8 521.978   1
  -2   2   3 74210.4 530.255   2
  -2   2   3 76134.1 528.947   1
   2  -2  -3 78702.0 541.056   1
   2   2  -2 241.049 63.3773   1
  -2   2   2 283.709 65.8250   2
   2  -2  -2 286.596 78.7280   1
  -2   2   2 320.255 81.2064   1
   2  -2  -2 223.877 57.0307   2
  -2   2   0 514.060 67.8622   3
  -2   2  -1 810.249 75.6861   3
   2  -2   1 1079.47 89.9528   3
  -2   2  -2 6911.93 104.228   2
   2   2   2 7393.00 183.326   2
   2   2   2 7412.55 123.187   1
  -2   2  -2 7141.54 178.024   3
   2  -2   2 7628.56 110.704   2
  -2   2  -3 39516.6 313.965   2
   2  -2   3 40547.1 319.882   2
   2   2   3 40990.4 442.233   2
  -2  -2  -3 40065.4 439.450   2
   2   2   3 39998.8 312.852   1
   2   2   4 1226.85 83.8765   1
  -2   2  -4 1273.60 86.7610   2
  -2  -2  -4 1203.11 107.786   2
   2   2   4 1375.44 128.054   2
  -2   2  -4 1407.55 101.699   1
  -2  -2  -4 1318.32 91.9663   1
   2  -2   4 1201.55 90.3450   2
   2   2   5 19060.1 277.732   1
   2   2   5 19102.7 358.068   2
   2  -2   5 19062.5 302.460   2
  -2   2  -5 19885.7 310.202   1
  -2   2  -5 19128.7 294.264   2
  -2  -2  -5 18974.4 280.444   1
  -2  -2  -5 19544.5 360.084   2
  -2   2  -6 1235.96 113.790   1
   2   2   6 1154.13 104.151   1
  -2   2  -6 1276.38 109.122   2
   2   2   6 1130.82 136.799   2
   2  -2   6 1135.11 110.090   2
  -2  -2  -6 1057.21 121.460   2
  -2  -2  -6 1100.53 109.226   1
  -2   2  -7 31030.5 449.150   2
   2   2   7 31091.3 421.715   1
  -2  -2  -7 31198.0 433.998   1
   2  -2   7 30992.1 458.846   2
   2   2   7 30333.8 516.406   2
  -2  -2  -7 31486.0 519.196   2
  -2   2  -7 31679.2 452.544   1
  -2  -2  -8 133.357 96.4986   2
   2   2   8 108.252 107.519   2
   2   2   8 46.9206 71.3925   1
   2  -2   8 48.0497 82.3726   2
  -2   2  -8 66.0271 79.5365   2
  -2  -2  -8 198.008 107.062   1
  -2   2  -8-100.332 97.2728   1
  -2   2  -9 40359.7 579.157   1
  -2   2  -9 40382.0 592.175   2
   2   2   9 40283.7 659.171   2
   2   2   9 40875.9 556.001   1
  -2  -2  -9 40341.6 561.276   1
   2  -2   9 39821.1 593.390   2
  -2  -2  -9 40723.6 655.754   2
  -2  -2 -10-115.037 109.055   1
  -2   2 -10-20.2667 93.7536   2
  -2   2 -10-197.480 121.151   1
   2   2  10 9.02217 77.6983   1
  -2  -2 -10 38.2228 97.5232   2
   2   2  10-47.9209 117.100   2
  -2  -2 -11 4665.58 265.598   2
   2   2  11 4514.14 220.058   1
  -2   2 -11 3875.81 211.217   1
  -2   2 -11 4410.77 236.382   2
   2   2  11 4600.34 268.570   2
  -2  -2 -11 4345.08 230.116   1
  -2  -2 -12-139.693 137.156   1
   2   2  12-40.6121 100.258   1
  -2   2 -12 77.4534 104.794   2
   2   2  12-42.1466 126.675   2
  -2   2 -13 1062.56 157.974   2
   2   2  13 758.195 169.684   2
  -2   2 -13 680.562 132.951   1
   2   2  13 928.222 138.196   1
  -2  -2 -13 663.011 147.613   1
  -2   2 -14 449.288 136.585   1
  -2  -2 -14 550.245 155.450   1
   2   2  14 505.247 123.957   1
   2   2  14 655.366 172.087   2
  -2  -2 -15 6665.64 331.776   1
  -2   2 -15 7615.56 346.352   1
   2   2  15 6627.59 371.865   2
  -2  -2 -16 639.683 181.008   1
  -2   2 -16 1409.35 211.107   1
  -2   2 -17 11932.2 462.053   1
  -2  -2 -17 10059.2 434.084   1
  -2  -2 -18 238.145 184.621   1
  -2   2 -18 1512.82 234.503   1
   2   4 -19 495.541 206.944   1
   2  -4 -19 544.851 218.268   1
   2  -4 -18 5482.82 368.942   1
   2   4 -18 5188.68 358.369   1
   2   4 -17 1213.38 212.856   1
   2  -4 -17 1298.50 225.599   1
   2   4 -16 125.776 168.015   1
   2  -4 -16 293.296 180.490   1
   2  -4 -15 62.9133 166.724   1
   2   4 -15-80.5550 167.411   1
   2   4 -14 4380.53 295.346   1
  -2   4  14 4472.11 307.459   2
   2  -4 -14 5027.67 308.743   1
   2   4 -13 170.681 113.685   2
  -2   4  13 196.895 123.829   1
   2  -4 -13 189.952 157.290   1
   2   4 -13 261.824 150.242   1
  -2   4  13 212.811 145.755   2
   2   4 -12 21042.7 501.001   2
   2  -4 -12 20834.6 520.121   1
   2   4 -12 21397.1 534.785   1
  -2   4  12 20844.7 557.459   2
  -2   4  12 21979.0 521.693   1
   2  -4 -11 661.204 153.326   1
  -2   4  11 710.790 129.456   1
   2   4 -11 829.852 129.280   2
  -2   4  11 767.431 154.828   2
   2   4 -11 960.323 155.898   1
   2  -4 -11 833.238 144.139   2
  -2   4  10 151.226 116.763   2
   2   4 -10 195.091 116.762   1
   2   4 -10 203.527 98.3941   2
   2  -4 -10 139.536 107.296   2
   2  -4 -10 69.5474 128.131   1
  -2   4  10 72.3998 99.9846   1
   2  -4  -9 43.2051 99.5393   2
   2   4  -9 37.1104 87.1814   2
   2   4  -9-10.5422 104.982   1
   2  -4  -9 130.562 123.610   1
  -2   4   9 97.7160 98.0508   1
  -2   4   9 78.3156 113.493   2
   2   4  -8 19927.2 430.790   1
   2  -4  -8 19643.4 425.356   1
   2  -4  -8 19625.2 439.118   2
  -2   4   8 20289.8 417.531   1
  -2   4   8 19743.0 446.930   2
  -2   4   7 1751.02 162.490   2
   2  -4  -7 1902.27 168.976   1
  -2   4   7 2135.08 159.974   1
   2   4  -7 1852.31 159.924   1
   2  -4  -7 1852.76 158.154   2
   2  -4  -6 39181.5 539.524   2
  -2   4   6 39182.5 546.337   2
   2   4  -6 38845.8 527.091   1
  -2   4   6 38838.4 519.410   1
   2  -4  -6 39288.2 523.809   1
   2  -4  -5 1737.27 148.104   1
  -2   4   5 1543.48 131.940   1
  -2   4   5 1441.44 139.100   2
   2   4  -5 1518.36 137.227   1
   2  -4  -5 1548.26 129.267   2
  -2   4   4 12693.2 280.986   2
   2  -4  -4 12676.9 271.454   2
  -2   4   4 13306.9 286.986   1
   2   4  -4 11495.7 266.148   1
  -2   4   3 5920.07 181.194   2
   2  -4  -3 5795.89 173.138   2
  -2   4   3 5806.92 189.301   1
   2  -4  -2 130458. 651.435   2
  -2   4   2 132476. 651.066   2
  -2   4   1 24546.1 246.346   2
   2  -4  -1 24245.2 241.422   2
  -2   4   0 11163.1 130.668   2
   2  -4   0 11015.7 214.493   3
  -2   4  -1 1799.11 101.978   3
   2  -4   1 1705.22 112.143   3
   2  -4   2 107270. 715.267   3
   2   4   2 106942. 745.355   2
  -2   4  -2 108997. 706.119   3
  -2   4  -3 226.237 42.2937   2
   2   4   3 256.353 76.4489   1
  -2   4  -3 108.459 66.1484   3
   2   4   3 133.895 105.840   2
  -2  -4  -4 14790.0 325.868   2
  -2   4  -4 14934.1 314.894   3
   2   4   4 14522.9 253.633   1
   2   4   4 15046.1 328.849   2
  -2   4  -4 14256.7 198.826   2
  -2   4  -5 954.954 114.768   3
  -2  -4  -5 1022.02 123.995   2
   2   4   5 1165.29 140.109   2
  -2   4  -5 991.243 78.1694   2
   2   4   5 1255.88 109.529   1
  -2  -4  -6 15930.8 378.965   2
  -2  -4  -6 15022.9 294.073   1
   2   4   6 15811.1 301.028   1
  -2   4  -6 15850.7 278.509   2
   2   4   6 16055.7 380.365   2
  -2   4  -6 16126.1 334.534   1
   2   4   7 7054.67 220.781   1
  -2  -4  -7 7383.55 279.140   2
  -2  -4  -7 6781.28 221.049   1
  -2   4  -7 7383.36 246.257   1
   2   4   7 7137.81 276.284   2
  -2   4  -7 6952.80 209.310   2
  -2   4  -8 40859.9 580.413   1
  -2  -4  -8 39950.0 652.565   2
  -2  -4  -8 38589.1 527.476   1
   2   4   8 40001.5 536.252   1
   2   4   8 39703.0 655.663   2
  -2   4  -8 39842.0 518.854   2
  -2   4  -9 5187.02 213.031   2
   2   4   9 5492.14 222.339   1
   2   4   9 5174.43 269.645   2
  -2   4  -9 5566.55 241.366   1
  -2  -4  -9 5173.40 261.250   2
  -2  -4  -9 5189.37 225.733   1
  -2   4 -10-29.0107 98.9023   1
   2   4  10 129.564 86.9362   1
  -2  -4 -10 132.124 113.868   2
   2   4  10 49.9863 119.428   2
  -2   4 -10 46.4040 82.3072   2
  -2  -4 -10 148.843 118.780   1
  -2  -4 -11 3651.36 220.997   1
   2   4  11 3712.73 263.791   2
  -2   4 -11 3725.42 221.557   1
  -2   4 -11 3905.17 211.923   2
   2   4  11 3802.52 210.464   1
   2   4  12 25039.0 524.218   1
  -2   4 -12 24502.0 528.913   2
  -2  -4 -12 24069.4 522.551   1
   2   4  12 24124.1 620.646   2
  -2   4 -12 24904.2 562.470   1
   2   4  13 669.230 131.953   1
  -2   4 -13 619.031 133.118   2
   2   4  13 548.382 164.774   2
  -2  -4 -13 779.698 167.427   1
  -2   4 -13 699.623 131.027   1
  -2  -4 -14 5270.63 297.590   1
   2   4  14 5478.09 348.227   2
   2   4  14 5295.17 276.997   1
  -2   4 -14 4908.34 283.741   1
  -2  -4 -15 157.265 161.811   1
   2   4  15-12.7728 165.129   2
   2   4  16 40.9439 161.402   2
  -2  -4 -16 173.324 160.502   1
  -2   4 -16-240.257 171.164   1
   2   4  17-17.8220 167.244   2
  -2  -4 -17 136.725 176.317   1
  -2   4 -17 24.6845 150.999   1
   2  -6 -19 259.898 202.035   1
   2   6 -19 412.896 202.830   1
   2   6 -18 736.133 204.607   1
   2  -6 -18 910.640 227.288   1
   2  -6 -17 2579.62 279.357   1
   2   6 -17 2288.40 266.352   1
   2   6 -16 350.440 167.197   1
   2  -6 -16 122.276 184.456   1
  -2   6  16 91.0840 162.695   2
   2   6 -15 9504.75 430.066   1
   2  -6 -15 8771.13 409.320   1
  -2   6  15 8898.98 442.501   2
   2  -6 -14 1322.16 215.117   1
  -2   6  14 1234.11 210.202   2
   2   6 -14 1077.22 163.720   2
   2   6 -14 1471.55 209.771   1
   2   6 -13 3783.88 238.009   2
   2  -6 -13 4203.11 285.632   1
   2   6 -13 4154.47 282.145   1
  -2   6  13 3889.13 293.255   2
  -2   6  12 103.244 114.767   1
   2  -6 -12 501.800 165.467   1
   2   6 -12 207.611 110.549   2
  -2   6  12 97.6993 139.851   2
   2   6 -12 248.834 143.850   1
   2  -6 -11 13267.5 416.508   1
   2  -6 -11 12380.8 433.500   2
  -2   6  11 12843.1 444.724   2
  -2   6  11 13202.3 407.939   1
   2   6 -11 12728.5 378.381   2
   2   6 -11 12952.3 426.925   1
   2   6 -10 315.819 121.747   1
  -2   6  10 320.601 114.844   1
   2   6 -10 316.272 98.4196   2
  -2   6  10 367.816 134.571   2
   2  -6 -10 425.641 137.394   1
   2  -6 -10 349.390 120.693   2
   2  -6  -9 29792.2 593.174   2
   2   6  -9 30295.6 573.284   1
  -2   6   9 30390.3 599.624   2
  -2   6   9 30159.9 556.093   1
   2  -6  -9 29370.7 550.284   1
   2  -6  -8 178.417 99.8930   2
  -2   6   8 496.837 126.597   1
   2  -6  -8 287.032 123.674   1
  -2   6   8 189.474 115.349   2
   2   6  -8 250.114 113.489   1
  -2   6   7 10030.1 323.179   2
   2   6  -7 10084.1 315.787   1
  -2   6   7 9536.28 302.539   1
   2  -6  -7 9923.70 316.738   2
   2  -6  -6 2555.21 171.416   2
   2   6  -6 2097.11 167.699   1
  -2   6   6 2336.46 174.408   1
  -2   6   6 2241.65 170.036   2
   2  -6  -5 112121. 900.197   2
  -2   6   5 113325. 896.578   2
  -2   6   5 113226. 913.614   1
  -2   6   4 104.708 96.8035   1
  -2   6   4 140.600 97.7489   2
   2  -6  -4 138.693 82.7931   2
  -2   6   3 17143.1 313.356   2
   2  -6  -3 16720.1 305.156   2
  -2   6   2 16400.0 277.281   2
   2   6  -2 14909.5 164.561   3
   2  -6  -2 16039.6 268.013   2
   2  -6  -1 22139.8 277.303   2
  -2   6   1 22184.7 280.257   2
   2  -6   0 2797.95 133.274   3
  -2   6   0 2629.50 98.0633   2
  -2   6  -1 1984.38 74.0855   2
   2  -6   1 2071.87 127.147   3
  -2   6  -1 2143.24 117.938   3
  -2   6  -2 1101.83 103.356   3
   2  -6   2 1033.27 110.565   3
   2   6   2 992.752 128.555   2
   2   6   3 9011.76 273.677   2
  -2   6  -3 9017.52 246.021   3
   2   6   4 164.758 105.469   2
   2   6   4 212.092 89.7567   1
  -2   6  -4 222.708 48.1929   2
  -2   6  -4 160.826 78.0871   3
  -2   6  -5 80365.5 796.537   3
  -2   6  -5 79552.0 511.455   2
   2   6   5 77972.3 689.580   1
  -2  -6  -5 81005.7 852.624   2
   2   6   5 80200.1 845.100   2
   2   6   6 2423.35 189.187   2
  -2   6  -6 2462.51 162.613   3
   2   6   6 2204.72 142.458   1
  -2  -6  -6 2527.84 185.815   2
  -2   6  -6 2265.09 106.230   2
  -2   6  -7 555.186 72.1387   2
   2   6   7 522.636 129.206   2
  -2  -6  -7 641.847 130.213   2
  -2   6  -7 404.451 92.4666   1
  -2   6  -7 471.048 101.172   3
   2   6   7 654.399 103.740   1
  -2   6  -8 786.235 117.920   1
  -2   6  -8 631.572 115.202   3
   2   6   8 698.819 146.851   2
   2   6   8 860.704 120.838   1
  -2  -6  -8 672.576 133.055   2
  -2   6  -8 742.182 90.0845   2
  -2   6  -9 50066.5 798.922   3
  -2  -6  -9 48703.7 800.001   2
  -2   6  -9 48151.6 589.059   2
   2   6   9 47892.5 648.066   1
   2   6   9 48286.2 797.977   2
  -2   6  -9 48092.8 709.967   1
   2   6  10 1275.18 179.037   2
  -2   6 -10 1180.78 140.543   1
   2   6  10 1101.73 127.702   1
  -2   6 -10 1318.31 128.959   2
  -2   6 -11 173.262 92.6110   2
   2   6  11 235.680 107.607   1
   2   6  11 130.746 139.471   2
  -2   6 -11 78.5144 103.498   1
  -2   6 -12 1112.48 161.111   1
   2   6  12 1013.70 148.137   1
  -2   6 -12 962.777 139.343   2
   2   6  12 873.195 183.048   2
  -2   6 -13 855.290 159.792   1
  -2   6 -13 954.460 142.608   2
   2   6  13 919.487 197.230   2
   2   6  13 1042.04 151.955   1
  -2   6 -14 1511.94 170.702   2
  -2   6 -14 1859.81 207.625   1
   2   6  14 1577.10 235.551   2
   2   6  14 1470.82 179.663   1
  -2   6 -15 9822.24 426.249   1
   2   6  15 9348.53 471.947   2
  -2   6 -16-467.344 216.989   1
   2   6  16 117.009 175.729   2
  -2   6 -17 1509.19 209.366   1
   2   6  17 2113.97 282.838   2
   2   8 -18 7184.17 433.465   1
   2   8 -17 634.380 203.218   1
  -2   8  17 292.381 187.736   2
   2   8 -16 71.0599 157.665   1
  -2   8  16 40.0905 169.092   2
   2   8 -15 886.318 198.798   1
  -2   8  15 699.263 193.538   2
   2   8 -14 22.5868 146.003   1
   2   8 -14 78.8493 109.300   2
  -2   8  14 147.673 153.969   2
   2   8 -13 43.7319 140.702   1
   2   8 -13 221.721 111.501   2
  -2   8  13 233.580 159.195   2
  -2   8  12 18254.0 566.099   2
   2   8 -12 17836.3 464.162   2
   2   8 -12 18544.5 537.456   1
  -2   8  11 306.057 149.830   2
  -2   8  11 283.750 136.500   1
   2   8 -11 108.865 131.176   1
   2   8 -11 275.132 100.146   2
   2   8 -10 818.197 148.653   1
  -2   8  10 992.909 166.331   2
   2  -8 -10 1063.65 165.810   2
  -2   8  10 1114.28 161.621   1
   2  -8  -9 116.032 105.404   2
  -2   8   9 361.615 133.216   1
   2   8  -9 108.890 115.850   1
  -2   8   9 189.251 128.504   2
  -2   8   8 20483.6 500.618   2
  -2   8   8 21180.7 484.627   1
   2  -8  -8 20742.8 497.977   2
   2   8  -8 20518.7 489.858   1
  -2   8   7 118.716 112.676   1
  -2   8   7-8.97828 105.241   2
   2  -8  -7 55.9493 97.4806   2
   2  -8  -6 5046.30 233.547   2
  -2   8   6 5006.82 236.074   2
  -2   8   6 5103.20 242.117   1
   2  -8  -5 3122.72 183.568   2
   2   8  -5 2942.48 139.620   3
  -2   8   5 3160.30 195.405   1
  -2   8   5 3020.91 186.540   2
   2  -8  -4 15000.1 338.701   2
  -2   8   4 15735.4 353.809   2
   2   8  -4 14737.9 254.987   3
   2   8  -3 3401.90 113.978   3
  -2   8   3 4068.25 181.195   2
   2  -8  -3 4130.82 180.120   2
   2   8  -2 44909.9 313.416   3
  -2   8   2 46721.4 506.534   2
   2  -8  -1 25705.5 360.079   3
  -2   8   1 26596.2 356.809   2
   2  -8   0 24404.1 360.808   3
  -2   8   0 24123.3 308.398   2
   2   8   1 14030.5 336.241   2
  -2   8  -1 14105.7 214.147   2
   2  -8   1 14028.3 285.923   3
   2   8   2 48278.6 622.680   2
   2  -8   2 48801.8 552.028   3
  -2   8  -2 49505.7 547.623   3
  -2   8  -3 13082.5 306.415   3
   2   8   3 12732.2 343.728   2
   2   8   4 9910.89 323.987   2
  -2   8  -4 10217.8 288.071   3
   2   8   5 865.671 117.522   1
   2   8   5 820.238 137.590   2
  -2   8  -5 925.944 115.853   3
   2   8   6 35862.0 634.476   2
   2   8   6 34976.1 537.461   1
  -2   8  -6 35946.7 589.164   3
  -2   8  -6 35530.4 381.944   2
   2   8   7 221.811 131.025   2
  -2   8  -7 118.569 89.1706   3
  -2   8  -7 127.449 54.3321   2
   2   8   7 108.234 94.7500   1
  -2  -8  -7 226.815 114.009   2
  -2   8  -8 31851.6 423.592   2
  -2   8  -8 33099.1 628.226   3
  -2  -8  -8 32685.1 663.009   2
   2   8   8 31733.0 653.934   2
   2   8   8 31841.8 547.822   1
  -2   8  -8 32315.2 600.401   1
   2   8   9 3288.21 255.138   2
  -2   8  -9 3667.61 235.545   3
  -2   8  -9 3579.59 163.973   2
   2   8   9 3944.41 221.568   1
  -2   8  -9 3487.14 226.821   1
   2   8  10 790.854 134.070   1
   2   8  10 730.612 175.449   2
  -2   8 -10 785.185 101.372   2
  -2   8 -10 705.600 132.850   1
  -2   8 -11 170.945 91.5004   2
   2   8  11 144.030 144.574   2
   2   8  11-17.1129 109.387   1
  -2   8 -11-133.667 134.266   1
  -2   8 -12 6657.60 265.895   2
  -2   8 -12 6525.64 324.762   1
   2   8  12 6231.03 299.036   1
   2   8  12 6693.10 379.417   2
  -2   8 -13 339.105 116.950   2
   2   8  13 256.941 128.310   1
   2   8  13 23.2449 159.767   2
  -2   8 -13 36.5721 127.054   1
   2   8  14 7948.57 437.798   2
  -2   8 -14 8610.93 395.719   1
  -2   8 -15 268.301 157.298   1
   2   8  15-117.623 177.323   2
   2   8  16 438.649 198.448   2
  -2   8 -16 707.347 188.478   1
   2  10 -17 6438.33 411.786   1
  -2  10  17 6219.10 434.757   2
  -2  10  16 177.996 185.689   2
   2  10 -16 129.500 166.269   1
   2  10 -15 6477.84 386.896   1
  -2  10  15 6162.14 409.256   2
   2  10 -14 60.2260 115.838   2
  -2  10  14 171.263 178.877   2
   2  10 -14 47.9349 164.645   1
  -2  10  13 3856.93 310.310   2
   2  10 -13 3472.00 236.820   2
   2  10 -13 3803.47 296.593   1
  -2  10  12 1186.48 201.959   2
   2  10 -12 1048.85 149.964   2
   2  10 -12 943.507 179.191   1
  -2  10  11 186.179 153.830   2
   2  10 -11 49.0485 138.143   1
   2  10 -10 213.647 134.539   1
  -2  10  10 224.907 136.271   2
  -2  10  10 174.902 136.992   1
  -2  10   9 25846.6 585.705   1
  -2  10   9 25741.6 607.152   2
   2  10  -9 25562.6 522.012   3
   2  10  -9 25302.1 596.923   1
   2 -10  -8 2009.28 191.828   2
   2  10  -8 1980.81 160.314   3
  -2  10   8 2457.02 212.918   1
  -2  10   8 2162.34 204.078   2
   2 -10  -7 4697.27 250.730   2
  -2  10   7 4647.78 251.622   2
  -2  10   7 4714.34 258.631   1
   2  10  -7 4557.27 204.323   3
   2  10  -6 4216.00 183.547   3
  -2  10   6 4905.27 256.255   1
   2 -10  -6 4538.79 235.400   2
  -2  10   6 4420.94 240.603   2
   2 -10  -5 18904.9 433.765   2
  -2  10   5 19529.2 450.824   2
   2  10  -5 18276.5 323.982   3
  -2  10   4 906.541 129.097   2
   2 -10  -4 963.571 123.142   2
   2  10  -4 794.869 82.6536   3
  -2  10   3 39726.8 556.113   2
   2  10  -3 38856.0 374.633   3
  -2  10   2 9504.88 266.637   2
  -2  10   1 40831.5 494.821   2
   2 -10  -1 39978.2 488.784   3
  -2 -10   0 3332.98 83.1051   3
  -2  10   0 3981.95 157.900   2
   2 -10   0 3839.42 168.225   3
  -2  10  -1 19815.8 303.214   2
   2  10   1 20371.7 433.212   2
   2 -10   1 19673.0 359.735   3
  -2  10  -2 2506.05 112.998   2
   2  10   2 2245.06 178.486   2
   2 -10   2 2412.68 149.999   3
  -2  10  -3 5693.82 221.143   3
   2  10   3 5354.06 258.105   2
  -2  10  -4 109.969 84.0512   3
   2  10   4 30.5253 109.742   2
   2  10   5 4944.99 267.940   2
  -2  10  -5 5034.97 228.956   3
   2  10   6 2991.98 231.307   2
  -2  10  -6 2994.21 196.754   3
   2  10   6 3010.38 201.260   1
   2  10   7 7706.23 346.328   2
  -2  10  -7 7661.94 308.329   3
   2  10   7 7476.05 297.036   1
  -2  10  -7 7399.30 195.078   2
   2  10   8 3031.43 210.913   1
  -2  10  -8 3264.17 142.980   2
   2  10   8 3022.80 245.640   2
  -2  10  -8 3036.12 214.123   3
   2  10   9 28399.1 683.406   2
   2  10   9 28103.5 579.147   1
  -2  10  -9 28002.5 619.116   1
  -2  10  -9 27528.7 411.240   2
  -2  10 -10 290.171 123.031   1
  -2  10 -10 347.063 77.0135   2
   2  10  10 430.029 168.868   2
   2  10  10 645.105 146.194   1
   2  10  11 92.1562 120.714   1
   2  10  11 110.142 151.124   2
  -2  10 -11-68.4551 132.340   1
  -2  10 -11 55.6058 71.9053   2
   2  10  12 198.090 131.245   1
   2  10  12-3.73542 158.679   2
  -2  10 -12 241.509 91.7320   2
  -2  10 -12-232.522 169.333   1
  -2  10 -13 639.261 149.011   1
   2  10  13 1178.42 218.897   2
   2  10  14 45.9595 167.088   2
  -2  10 -14-134.586 156.224   1
   2  10  15 3611.94 339.248   2
  -2  10 -15 3905.03 305.716   1
  -2  10 -16 403.144 177.871   1
   2  10  16 183.087 182.924   2
   2  12 -16 204.272 186.614   1
  -2  12  16 189.893 194.664   2
   2  12 -15 4732.78 359.220   1
  -2  12  15 4131.45 361.892   2
  -2  12  14 5507.28 385.811   2
   2  12 -14 5494.21 367.730   1
   2  12 -13-57.0161 113.515   2
   2  12 -13-132.742 167.482   1
  -2  12  13 47.0229 161.567   2
  -2  12  12 9001.64 442.074   2
   2  12 -12 9109.42 431.821   1
   2  12 -11 412.315 159.101   1
  -2  12  11 412.420 170.441   2
   2  12 -10 567.191 128.559   3
   2  12 -10 410.781 157.039   1
  -2  12  10 581.192 168.937   2
   2  12  -9 28.1414 135.129   1
  -2  12   9 101.662 137.092   2
   2  12  -9 104.017 96.1105   3
   2  12  -8 1011.40 127.903   3
  -2  12   8 938.550 162.757   2
  -2  12   7 169.035 124.834   2
   2  12  -7 71.9740 78.3542   3
   2 -12  -7 257.956 119.539   2
  -2  12   7 234.555 137.799   1
  -2  12   6 9295.55 352.865   2
   2  12  -6 9009.95 262.966   3
   2 -12  -6 9310.92 343.476   2
  -2  12   6 9061.16 356.237   1
   2  12  -5 1766.18 121.208   3
  -2  12   5 1844.17 176.917   2
  -2  12   4 13550.1 379.675   2
   2  12  -4 13712.3 265.954   3
  -2  12   3 6408.38 260.186   2
   2 -12  -2 10731.7 279.792   3
  -2  12   2 11185.5 313.320   2
  -2  12   1 900.358 112.473   2
   2 -12  -1 838.500 101.877   3
   2 -12   0 15736.7 338.439   3
  -2  12   0 16448.9 332.476   2
   2  12   0 16179.7 403.724   2
  -2 -12   0 14911.9 190.836   3
  -2  12  -1 1347.46 109.831   2
   2  12   1 1369.13 156.318   2
  -2 -12  -1 1174.31 63.8432   3
   2 -12   1 1261.60 120.348   3
  -2  12  -2 7180.76 200.138   2
   2 -12   2 6859.76 243.989   3
   2  12   2 6729.67 288.239   2
   2  12   3 2550.28 203.740   2
  -2  12  -3 2783.24 128.515   2
   2  12   4 7611.90 325.439   2
  -2  12  -4 7737.48 278.744   3
   2  12   5 3646.96 246.013   2
  -2  12  -5 3756.06 211.864   3
   2  12   6 40274.3 763.441   2
  -2  12  -6 41411.9 676.246   3
   2  12   6 40791.2 691.556   1
   2  12   7 996.374 176.554   2
  -2  12  -7 687.815 132.358   3
   2  12   7 918.875 166.296   1
   2  12   8 186.700 143.736   2
   2  12   8 130.276 133.685   1
  -2  12  -8 100.870 63.3514   2
   2  12   9 2086.00 207.744   1
  -2  12  -9 2790.97 143.953   2
   2  12   9 2549.74 258.997   2
   2  12  10 323.714 165.200   2
  -2  12 -10 113.308 135.504   1
  -2  12 -10 390.594 85.7452   2
  -2  12 -11 9.55959 146.992   1
   2  12  11 213.881 165.702   2
  -2  12 -12 6847.92 378.842   1
   2  12  12 6867.39 413.163   2
  -2  12 -13-287.238 184.555   1
   2  12  13 154.285 176.971   2
   2  12  14 3663.00 342.469   2
  -2  12 -14 3632.70 298.298   1
   2  12  15 8.30463 187.967   2
  -2  12 -15-190.001 176.610   1
  -2  14  15 3651.16 350.342   2
   2  14 -15 3676.43 337.453   1
  -2  14  14 652.738 211.940   2
   2  14 -14 466.018 192.440   1
  -2  14  13-75.2824 180.411   2
   2  14 -13-137.143 186.302   1
  -2  14  12 40.2720 164.103   2
   2  14 -12-107.802 172.875   1
   2  14 -11 6074.00 374.314   1
  -2  14  11 5523.83 360.367   2
   2  14 -10 398.528 121.451   3
   2  14 -10 583.609 177.116   1
  -2  14  10 560.737 171.826   2
   2  14  -9 14548.8 415.024   3
  -2  14   9 15241.5 518.814   2
  -2  14   8 849.373 168.017   2
   2  14  -8 805.182 126.647   3
  -2  14   7 5528.04 306.710   2
   2  14  -7 5005.49 221.969   3
   2  14  -6 2492.03 156.302   3
  -2  14   6 2436.89 219.103   2
  -2  14   5 2482.47 212.451   2
   2  14  -5 2619.08 150.198   3
  -2  14   4 151.939 109.231   2
   2 -14  -3 10568.5 292.003   3
  -2  14   3 11036.8 351.318   2
   2 -14  -2 2703.90 161.204   3
  -2  14   2 3018.10 194.805   2
   2 -14  -1 14700.3 339.855   3
   2  14  -1 14331.5 401.634   2
  -2  14   1 15468.2 377.660   2
  -2  14   0 111.644 85.9051   2
   2  14   0 142.726 108.746   2
   2 -14   0 59.4207 83.4076   3
   2  14   1 131.221 113.370   2
  -2  14  -1 294.611 91.4509   2
  -2 -14  -1 149.546 38.5119   3
   2 -14   1 211.239 87.8075   3
  -2  14  -2 2000.68 135.861   2
   2 -14   2 1894.05 151.702   3
   2  14   2 1675.70 182.719   2
  -2 -14  -2 1594.83 81.1465   3
  -2  14  -3 23831.9 377.732   2
   2  14   3 23614.9 567.489   2
  -2  14  -4 1104.34 100.921   2
   2  14   4 913.813 168.074   2
  -2  14  -5 314.266 121.196   3
   2  14   5 30.3490 131.112   2
  -2  14  -6 5254.64 267.209   3
   2  14   6 5062.34 310.950   2
   2  14   7 141.933 148.354   2
  -2  14  -7 13.3523 106.652   3
   2  14   8 2131.31 246.887   2
  -2  14  -8 1773.89 114.067   2
   2  14   9 7298.13 406.675   2
   2  14  10 227.816 172.650   2
  -2  14 -11 4450.44 334.295   1
   2  14  11 4058.75 339.260   2
  -2  14 -12 2806.78 285.382   1
   2  14  12 2859.32 307.889   2
   2  14  13 2046.48 277.492   2
  -2  14 -13 1401.65 228.804   1
  -2  14 -14 65.1734 170.752   1
  -2  16  14 3602.77 357.509   2
   2  16 -14 3714.60 350.098   1
   2  16 -13-21.0619 170.182   1
  -2  16  13 3.38058 171.725   2
   2  16 -12 6682.13 420.624   1
  -2  16  12 6304.45 410.681   2
  -2  16  11 651.779 212.260   2
   2  16 -11 469.629 188.893   1
  -2  16  10-116.053 152.624   2
  -2  16   9 3078.07 278.996   2
   2  16  -9 2911.07 207.968   3
   2  16  -8 3244.08 202.456   3
  -2  16   8 3283.07 275.763   2
   2  16  -7 1361.96 145.385   3
  -2  16   7 1214.06 189.533   2
  -2  16   6 11852.5 442.060   2
  -2  16   5 609.752 153.257   2
  -2  16   4 164.023 125.214   2
   2 -16  -4 213.056 103.283   3
  -2  16   3 4746.44 259.566   2
   2 -16  -3 4519.70 209.585   3
   2  16  -2 11690.0 384.352   2
   2 -16  -2 11127.5 313.381   3
  -2  16   2 11799.0 375.507   2
   2  16  -1 362.020 129.770   2
  -2  16   1 325.552 112.967   2
   2 -16  -1 196.093 87.2445   3
   2 -16   0 2677.35 171.435   3
  -2  16   0 2775.92 184.183   2
   2  16   0 2737.58 218.161   2
  -2  16  -1 253.010 100.335   2
   2 -16   1 225.845 91.8621   3
   2  16   1 271.996 132.516   2
  -2 -16  -2-9.48336 38.2679   3
  -2  16  -2 25.2392 83.9795   2
   2  16   2-139.619 133.475   2
  -2  16  -3 1194.76 121.322   2
   2  16   3 876.055 166.931   2
  -2 -16  -3 1027.58 77.3019   3
   2  16   4-74.2245 144.117   2
  -2  16  -4 82.8373 77.6241   2
  -2  16  -5 3885.47 164.525   2
   2  16   5 3904.00 287.580   2
   2  16   6 14151.4 520.802   2
  -2  16  -6 13182.4 277.157   2
   2  16   7 235.663 163.340   2
  -2  16  -7 179.530 66.0809   2
   2  16   8 2872.58 287.435   2
   2  16   9 2696.66 292.935   2
   2  16  10 2469.67 286.934   2
   2  16  11 90.6955 174.587   2
  -2  16 -11 23.3879 168.450   1
  -2  16 -12 3120.62 314.119   1
   2  16  12 3356.87 342.042   2
   2  18 -12 1932.25 287.714   1
  -2  18  12 1971.11 280.987   2
  -2  18  11 3570.02 336.245   2
   2  18 -11 3785.35 341.334   1
  -2  18  10 333.487 185.343   2
  -2  18   9 13115.5 536.122   2
  -2  18   8 541.884 175.828   2
  -2  18   7 79.4921 147.761   2
  -2  18   6 2327.14 242.871   2
  -2  18   5 1716.67 211.480   2
   2 -18  -5 1806.43 162.523   3
   2  18  -4 1021.21 156.100   2
   2 -18  -4 900.956 125.101   3
  -2  18   4 1023.09 178.308   2
   2  18  -3 4283.59 259.882   2
  -2  18   3 4217.26 269.665   2
   2 -18  -3 3958.06 204.527   3
  -2  18   2 1621.82 183.946   2
   2 -18  -2 1194.71 130.200   3
   2  18  -2 1595.51 187.768   2
  -2  18   1 8008.06 322.461   2
   2  18  -1 7446.69 342.331   2
   2 -18  -1 7110.16 267.311   3
   2  18   0 2547.93 231.827   2
   2 -18   0 2198.78 166.920   3
  -2  18   0 2494.89 192.071   2
  -2  18  -1 168.405 103.164   2
   2  18   1 175.496 141.513   2
   2  18   2 1582.23 204.398   2
  -2  18  -2 1721.97 156.023   2
  -2  18  -3 2382.78 164.773   2
   2  18   3 2273.38 240.209   2
  -2  18  -4 639.627 108.666   2
   2  18   4 521.743 170.551   2
   2  18   5 744.478 186.898   2
   2  18   6 1494.04 230.143   2
   2  18   7 527.329 195.909   2
   2  18   8 1462.06 244.972   2
   2  18   9 5220.58 391.431   2
   2  18  10 922.327 231.969   2
  -2  20   9 2279.47 282.623   2
  -2  20   8 1553.40 240.603   2
  -2  20   7 1062.76 210.400   2
  -2  20   6 2657.36 264.785   2
   2  20  -6 2800.75 223.947   2
  -2  20   5 1288.13 204.560   2
   2  20  -5 1240.85 176.092   2
  -2  20   4 274.344 145.277   2
   2  20  -4 332.412 141.393   2
  -2  20   3 4170.43 282.066   2
   2  20  -3 3700.78 262.663   2
  -2  20   2 4025.60 269.562   2
   2  20  -2 3695.47 264.449   2
  -2  20   1 621.589 148.350   2
   2 -20  -1 350.972 96.3972   3
   2  20  -1 484.148 160.917   2
  -2  20   0 2727.13 212.365   2
   2  20   0 2457.62 240.283   2
  -2  20  -1 104.577 110.524   2
   2  20   1 107.585 145.755   2
  -2  20  -2 1283.24 152.901   2
   2  20   2 869.348 192.004   2
   2  20   3 1660.63 234.467   2
   2  20   4 1482.96 229.451   2
   2  20   5 909.237 207.748   2
   2  20   6 4704.20 353.568   2
   2  20   7-130.236 182.184   2
  -2  22   4 641.286 175.338   2
   2  22  -3 2287.96 240.630   2
  -2  22   3 2178.69 235.460   2
  -2  22   2 684.367 166.840   2
   2  22  -2 544.158 164.858   2
   2  22  -1 687.479 176.943   2
   2  22   0 1110.36 203.290   2
   2  22   1 2134.85 248.429   2
   2  22   2 222.998 167.883   2
   2  22   3 1840.15 255.803   2
   3   1 -20 1181.32 259.170   1
   3  -1 -20 369.370 215.969   1
   3   1 -19 5900.08 392.594   1
   3  -1 -19 5221.16 378.183   1
   3  -1 -18 1579.87 252.721   1
   3   1 -18 2363.62 275.227   1
   3   1 -17 605.433 198.050   1
   3  -1 -17 981.279 229.019   1
   3   1 -16 2292.13 247.279   1
   3  -1 -16 2735.59 267.336   1
   3   1 -15 1323.11 206.452   1
   3  -1 -15 1637.89 224.673   1
   3   1 -14 13.1141 143.295   1
   3  -1 -14 459.764 173.795   1
  -3   1  13 4084.95 254.890   1
   3   1 -13 3874.88 252.345   2
  -3  -1  13 4101.90 254.375   1
   3  -1 -13 4457.54 279.080   1
   3   1 -13 3964.34 258.131   1
   3   1 -12 1638.64 175.622   2
  -3   1  12 1562.14 168.453   1
  -3  -1  12 1635.89 171.460   1
   3  -1 -12 1856.65 199.523   1
   3   1 -12 1646.88 183.208   1
   3  -1 -12 1699.03 180.471   2
  -3   1  11 3362.94 211.992   1
   3   1 -11 3443.17 224.023   1
   3  -1 -11 3618.72 231.301   1
   3  -1 -11 3109.98 212.591   2
   3   1 -11 3430.98 214.255   2
  -3  -1  11 3441.39 212.696   1
   3   1 -10 14834.7 398.134   2
  -3  -1  10 15385.6 395.795   1
   3  -1 -10 15592.6 405.436   1
   3  -1 -10 14567.4 409.433   2
   3   1 -10 15620.6 405.290   1
  -3   1  10 15778.0 401.296   1
   3  -1  -9 2385.95 184.698   1
   3   1  -9 2057.82 168.343   1
  -3  -1   9 2167.41 161.029   1
   3   1  -9 2221.62 171.011   2
  -3   1   9 2201.84 165.798   1
   3  -1  -9 2032.78 169.625   2
  -3   1   8 13803.1 344.525   1
   3   1  -8 14111.6 349.818   1
  -3  -1   8 13542.7 334.288   1
   3   1  -8 14022.8 345.996   2
   3  -1  -8 14355.5 354.912   1
   3  -1  -8 13861.5 356.340   2
  -3   1   7 30580.3 463.573   1
   3   1  -7 30851.3 473.246   1
   3  -1  -7 31585.0 480.040   1
  -3  -1   7 30695.6 466.523   1
   3  -1  -7 30277.7 481.381   2
  -3   1   6 10507.4 271.949   1
   3  -1  -6 11091.6 278.381   1
   3   1  -6 10903.2 276.714   1
   3  -1  -6 10547.4 275.721   2
  -3  -1   6 10677.5 270.236   1
   3   1  -5 8022.03 226.641   1
  -3   1   5 7672.01 215.601   1
   3  -1  -5 8140.89 232.302   1
   3  -1  -5 7659.01 221.736   2
  -3  -1   5 7772.80 218.592   1
   3   1  -4 1302.24 120.093   1
  -3   1   4 1323.78 113.249   1
  -3  -1   4 1124.92 105.673   1
   3  -1  -4 1645.61 142.410   1
   3  -1  -3 2448.01 137.612   1
  -3   1   3 2489.34 130.741   1
   3   1  -3 1830.57 115.361   1
  -3  -1   3 1742.17 108.538   1
  -3   1   2 120942. 585.311   1
   3  -1  -2 121949. 588.268   1
  -3  -1   2 122121. 551.894   1
   3   1  -2 121278. 550.587   1
   3  -1  -1 81707.1 407.558   1
  -3   1   1 80565.2 411.097   1
   3   1  -1 81144.3 363.102   1
   3   1   0 1704.68 83.0751   3
  -3  -1   0 2007.31 88.8060   3
  -3   1   0 2130.61 106.895   3
   3  -1   0 1831.06 106.849   3
   3  -1   1 1718.27 114.837   3
   3   1   1 1363.89 92.6547   3
  -3   1  -1 1492.86 99.5470   3
  -3  -1  -1 1535.37 89.8282   3
   3  -1   2 901.566 73.0961   2
  -3  -1  -2 764.598 85.0539   3
   3   1   2 881.581 99.1451   2
  -3   1  -2 816.374 93.9771   3
   3  -1   2 732.655 102.192   3
   3   1   3 515.615 48.1096   1
  -3   1  -3 582.013 72.3957   2
   3  -1   3 664.650 78.9290   2
  -3   1  -3 545.823 93.4047   3
  -3  -1  -3 252.768 51.4125   1
  -3   1  -3 659.094 66.5084   1
   3   1   3 566.839 96.4893   2
   3  -1   4 22534.9 315.567   2
  -3  -1  -4 21409.9 241.259   1
  -3   1  -4 21622.2 306.218   2
  -3  -1  -4 21734.7 351.373   2
   3   1   4 21958.9 359.781   2
   3   1   4 22009.2 242.155   1
  -3   1  -4 22232.2 272.295   1
  -3   1  -4 22154.0 382.341   3
   3   1   5 81100.7 711.063   2
  -3   1  -5 78430.7 638.640   2
   3   1   5 81404.0 530.198   1
  -3  -1  -5 80215.6 715.309   2
  -3   1  -5 82025.1 585.900   1
  -3  -1  -5 80476.5 532.904   1
   3  -1   5 80540.9 643.970   2
  -3   1  -6 1507.32 117.749   2
   3   1   6 1466.22 96.1340   1
  -3  -1  -6 1425.60 96.2113   1
   3   1   6 1575.87 136.965   2
   3  -1   6 1541.12 123.248   2
  -3   1  -6 1612.26 110.727   1
  -3  -1  -6 1588.20 129.922   2
   3   1   7 6558.16 249.622   2
  -3  -1  -7 6777.12 201.147   1
  -3   1  -7 6808.74 230.852   2
   3  -1   7 6574.05 232.594   2
  -3  -1  -7 7011.13 252.675   2
   3   1   7 6621.37 196.363   1
  -3   1  -7 6802.96 211.701   1
   3   1   8 7706.61 280.737   2
  -3  -1  -8 7812.13 232.592   1
  -3   1  -8 7731.42 262.877   2
  -3   1  -8 7852.77 240.175   1
  -3  -1  -8 7787.36 277.861   2
   3  -1   8 7597.27 262.445   2
   3   1   8 7861.15 228.023   1
   3   1   9 780.657 132.013   2
  -3   1  -9 848.188 118.616   2
  -3  -1  -9 1310.81 135.831   1
   3   1   9 783.158 99.1479   1
  -3  -1  -9 889.591 127.210   2
  -3   1  -9 789.835 105.267   1
   3  -1   9 890.222 128.385   2
  -3  -1 -10 3979.79 209.358   1
  -3   1 -10 3412.54 182.747   1
   3   1  10 3016.29 214.139   2
   3   1  10 3223.46 179.451   1
  -3  -1 -10 3159.13 212.282   2
  -3   1 -10 3235.27 202.884   2
   3  -1  10 3244.03 210.897   2
  -3  -1 -11 2309.85 187.962   1
  -3   1 -11 1484.76 143.494   1
  -3   1 -11 1479.40 165.236   2
   3  -1  11 1356.23 164.098   2
   3   1  11 1302.73 131.917   1
   3   1  11 1475.66 178.394   2
  -3  -1 -11 1386.54 166.001   2
  -3  -1 -12 2318.34 207.872   1
  -3   1 -12 1198.36 163.185   2
   3   1  12 1025.09 174.815   2
  -3   1 -12 1527.35 159.750   1
   3  -1  12 1238.62 167.685   2
   3   1  12 956.297 129.713   1
  -3  -1 -13 1127.69 181.041   1
   3   1  13 1141.93 187.406   2
  -3   1 -13 1701.65 172.768   1
   3   1  13 1047.43 141.720   1
  -3  -1 -14 934.053 163.204   1
   3   1  14 1124.51 186.669   2
  -3  -1 -15 4436.05 280.879   1
   3   1  15 4480.29 318.922   2
  -3   1 -15 5415.82 301.081   1
  -3   1 -16 12518.4 449.962   1
  -3  -1 -16 10544.5 418.105   1
  -3  -1 -17 897.781 196.482   1
  -3   1 -17 2246.83 252.966   1
   3  -3 -19 5222.99 382.902   1
   3   3 -19 5179.40 368.734   1
   3   3 -18 594.349 210.301   1
   3  -3 -18 619.323 209.404   1
   3   3 -17 2050.79 251.537   1
   3  -3 -17 1933.82 255.203   1
   3   3 -16 6186.72 355.328   1
   3  -3 -16 6052.19 355.659   1
   3  -3 -15 7030.01 365.198   1
   3   3 -15 7155.25 365.908   1
   3  -3 -14 871.380 177.930   1
   3   3 -14 914.013 172.849   1
   3  -3 -13 14438.2 459.288   1
   3   3 -13 14028.4 444.581   2
  -3   3  13 14722.9 451.110   1
   3   3 -13 14206.1 461.437   1
   3   3 -12 2409.38 199.319   2
   3  -3 -12 2633.67 224.250   2
   3   3 -12 2478.52 213.908   1
  -3   3  12 2816.68 215.323   1
  -3  -3  12 2510.47 204.608   1
   3  -3 -12 2380.28 213.950   1
   3  -3 -11 2924.85 214.499   2
   3   3 -11 3015.64 217.167   1
  -3   3  11 2975.15 209.086   1
  -3  -3  11 3106.19 210.270   1
   3   3 -11 2984.81 203.578   2
   3  -3 -11 2918.72 218.952   1
   3   3 -10 15832.7 421.955   1
   3  -3 -10 15466.3 428.963   2
  -3   3  10 16233.5 415.875   1
   3  -3 -10 15617.1 413.945   1
   3   3 -10 15876.3 410.562   2
  -3   3  10 15308.2 429.944   2
  -3  -3  10 15755.2 414.637   1
   3  -3  -9 1399.94 164.763   1
   3  -3  -9 1212.11 148.164   2
  -3  -3   9 1354.35 148.412   1
  -3   3   9 1189.25 140.656   1
  -3   3   9 1223.11 159.601   2
   3   3  -9 1248.08 141.783   2
   3   3  -9 1429.74 163.313   1
   3  -3  -8 13276.1 350.483   1
   3   3  -8 12948.8 345.373   1
  -3   3   8 12442.3 335.560   1
  -3   3   8 11624.4 343.501   2
  -3  -3   8 12802.0 338.194   1
   3  -3  -8 12593.2 345.347   2
   3  -3  -7 11136.8 312.265   2
  -3  -3   7 11899.3 309.325   1
  -3   3   7 11077.3 317.149   2
  -3   3   7 12128.7 310.396   1
   3  -3  -7 12021.3 318.345   1
   3   3  -7 12013.7 317.513   1
   3   3  -6 4223.47 195.434   1
   3  -3  -6 4253.14 193.084   2
   3  -3  -6 4524.24 204.725   1
  -3   3   6 4205.97 203.712   2
  -3   3   6 4572.63 198.891   1
  -3  -3   6 4259.02 193.357   1
   3  -3  -5 1475.73 123.835   2
   3  -3  -5 1717.33 148.546   1
  -3   3   5 1376.92 141.226   2
   3   3  -5 1315.40 127.465   1
  -3  -3   5 1359.72 126.405   1
  -3   3   5 1672.30 140.518   1
   3   3  -4 131328. 813.257   1
  -3   3   4 131820. 809.668   2
   3  -3  -4 131133. 801.334   2
  -3   3   3 97991.0 664.509   1
   3   3  -3 95699.5 630.459   1
   3  -3  -2 329.403 66.1688   2
  -3   3   2 212.772 93.6652   1
   3  -3  -1 2336.82 82.4865   2
   3   3   0 2872.21 77.8285   3
   3  -3   0 2768.50 140.427   3
  -3  -3   0 3018.67 77.5480   3
  -3   3  -1 21577.4 313.385   3
  -3  -3  -1 20671.2 225.761   3
   3  -3   1 21615.1 319.667   3
   3   3   2 16317.7 305.622   2
   3  -3   2 16405.5 306.141   3
  -3   3  -2 16378.2 296.657   3
   3   3   3 1183.99 73.7214   1
  -3   3  -3 1322.79 67.7018   2
   3   3   3 1178.52 124.467   2
  -3   3  -3 1217.86 112.317   3
   3  -3   3 1202.48 66.8574   2
   3  -3   4 30974.1 322.485   2
   3   3   4 31800.3 462.928   2
  -3   3  -4 30402.5 308.497   2
   3   3   4 31422.9 318.506   1
  -3   3  -4 31814.4 477.254   3
  -3   3  -5 63602.5 508.543   2
   3   3   5 64691.4 704.018   2
   3   3   5 64595.2 503.223   1
  -3   3  -5 66347.5 726.405   3
  -3  -3  -5 65497.4 701.461   2
  -3   3  -5 65923.9 584.263   1
  -3  -3  -5 64198.5 492.689   1
  -3  -3  -6 107.088 82.8583   1
   3   3   6 37.4333 105.350   2
   3   3   6 64.6462 62.1380   1
  -3   3  -6 57.3740 63.6405   2
  -3   3  -6-6.28196 93.3110   3
   3  -3   6 78.0265 69.3103   2
  -3   3  -6 101.489 80.0585   1
  -3  -3  -6 72.4807 90.5318   2
  -3  -3  -7 10438.7 253.226   1
   3   3   7 10677.6 249.416   1
   3  -3   7 10899.1 269.639   2
  -3   3  -7 10679.9 338.351   3
  -3  -3  -7 10467.2 327.600   2
   3   3   7 10777.5 336.182   2
  -3   3  -7 10702.0 276.220   1
  -3   3  -7 10774.8 263.017   2
  -3   3  -8 3175.42 166.505   2
  -3  -3  -8 3079.38 166.353   1
   3   3   8 3160.95 206.772   2
  -3  -3  -8 3257.96 207.810   2
  -3   3  -8 3467.38 182.305   1
   3  -3   8 3307.22 173.058   2
   3   3   8 3160.05 156.819   1
  -3   3  -9 2540.26 168.713   1
   3   3   9 2536.23 198.238   2
  -3   3  -9 2452.07 162.837   2
  -3  -3  -9 2351.27 189.464   2
   3   3   9 2539.11 151.835   1
  -3  -3  -9 2498.03 163.838   1
  -3   3 -10 10322.7 320.366   2
  -3  -3 -10 10287.7 309.851   1
  -3  -3 -10 10581.0 374.507   2
   3   3  10 10253.1 377.401   2
   3   3  10 10218.1 295.900   1
  -3   3 -10 10199.6 320.822   1
  -3   3 -11 9987.11 333.430   2
  -3  -3 -11 10151.0 326.383   1
  -3   3 -11 9946.75 332.044   1
   3   3  11 10006.8 309.804   1
   3   3  11 9757.02 388.707   2
  -3   3 -12 1649.31 170.643   2
  -3   3 -12 1261.30 144.794   1
  -3  -3 -12 1585.67 178.357   1
   3   3  12 1318.72 192.579   2
   3   3  12 1443.62 147.615   1
  -3   3 -13 2914.23 208.212   1
  -3   3 -13 3306.03 229.573   2
   3   3  13 2717.12 194.614   1
   3   3  13 2972.16 263.253   2
  -3  -3 -13 3002.08 222.989   1
  -3   3 -14 718.923 141.158   1
  -3  -3 -14 1026.53 176.722   1
   3   3  14 975.515 148.654   1
   3   3  14 764.447 185.577   2
  -3  -3 -15 2837.90 239.678   1
  -3   3 -15 2945.28 231.257   1
   3   3  15 2737.83 278.101   2
  -3   3 -16 4948.07 300.889   1
   3   3  16 4427.36 340.738   2
  -3  -3 -16 4553.29 292.850   1
   3   3  17 248.563 180.280   2
  -3  -3 -17 595.955 183.883   1
   3   5 -19 2069.45 277.179   1
   3  -5 -19 2562.28 303.610   1
   3  -5 -18 897.972 229.688   1
   3   5 -18 470.735 191.745   1
   3   5 -17 188.913 173.790   1
   3  -5 -17 506.117 201.402   1
   3  -5 -16 419.088 196.743   1
   3   5 -16-31.5125 187.352   1
   3   5 -15 3203.86 271.514   1
   3  -5 -15 3067.56 274.329   1
   3   5 -14 1840.83 218.249   1
   3  -5 -14 1604.36 221.538   1
  -3   5  14 1648.19 216.313   2
   3   5 -13 5177.32 301.763   1
  -3   5  13 5083.13 313.303   2
   3  -5 -13 5290.67 310.019   1
   3   5 -13 5123.42 278.315   2
  -3   5  12 47.9621 125.012   1
   3  -5 -12 164.218 149.310   1
   3   5 -12 205.859 108.150   2
  -3   5  12 184.496 135.919   2
   3   5 -12 419.144 145.644   1
   3  -5 -11 5627.62 290.460   2
  -3   5  11 5323.89 268.015   1
   3   5 -11 5733.49 264.915   2
   3  -5 -11 4986.96 277.912   1
  -3   5  11 5156.77 289.623   2
   3   5 -11 5571.09 283.661   1
   3  -5 -10 22006.0 525.112   2
   3  -5 -10 22433.0 512.024   1
  -3   5  10 22308.5 534.374   2
  -3   5  10 22330.7 497.351   1
   3   5 -10 22359.4 512.146   1
  -3   5   9 1752.44 177.106   2
   3  -5  -9 1861.38 176.554   2
  -3   5   9 2038.98 172.322   1
   3   5  -9 1932.23 179.308   1
   3  -5  -9 2115.64 193.119   1
   3  -5  -8 6459.29 272.867   1
  -3   5   8 6383.14 272.763   2
   3   5  -8 6233.02 261.616   1
  -3   5   8 6635.26 263.592   1
   3  -5  -8 6236.78 264.333   2
   3  -5  -7 10329.8 315.115   2
  -3   5   7 11123.5 323.876   1
   3   5  -7 10387.4 315.417   1
   3  -5  -7 10423.2 317.434   1
  -3   5   7 10374.4 319.413   2
   3  -5  -6 16294.2 364.606   2
  -3   5   6 16443.3 367.306   1
   3  -5  -6 16869.3 368.159   1
  -3   5   6 15395.2 363.510   2
   3   5  -6 15414.4 359.022   1
  -3   5   5 4202.56 193.126   2
   3  -5  -5 4249.23 185.526   2
   3   5  -5 4240.97 193.251   1
  -3   5   5 3944.65 193.586   1
  -3   5   4 26465.0 418.421   1
   3  -5  -4 26507.0 390.560   2
  -3   5   4 26340.2 392.627   2
   3  -5  -3 7364.96 195.220   2
  -3   5   3 7265.55 201.952   2
   3  -5  -2 3721.47 127.776   2
  -3   5   2 3851.00 133.527   2
  -3   5   1 363.580 63.2679   2
   3  -5  -1 402.843 56.2960   2
   3  -5   0 14291.5 144.042   2
  -3   5   0 14754.2 153.403   2
   3  -5   0 16140.6 286.173   3
  -3   5  -1 8530.83 218.111   3
   3  -5   1 7981.02 223.106   3
   3  -5   2 4680.45 188.560   3
   3   5   2 4550.69 197.489   2
  -3   5  -2 4792.57 176.206   3
  -3   5  -3 2820.43 147.702   3
   3   5   3 2705.40 171.002   2
   3  -5   3 2745.89 161.948   3
   3   5   4 22317.8 432.134   2
   3   5   4 22349.3 322.056   1
  -3   5  -4 23250.9 420.117   3
  -3   5  -4 21547.2 216.446   2
   3   5   5 4554.25 165.291   1
  -3   5  -5 4799.14 217.419   3
  -3   5  -5 4519.88 124.205   2
   3   5   5 4786.47 226.650   2
  -3   5  -6 3339.08 129.284   2
   3   5   6 2795.06 197.568   2
   3   5   6 2811.38 144.070   1
  -3   5  -6 2902.52 187.375   3
  -3  -5  -6 2981.33 190.687   2
   3   5   7 43370.4 679.122   2
  -3   5  -7 44864.8 602.153   1
  -3   5  -7 43648.9 475.196   2
  -3   5  -7 44696.4 696.047   3
  -3  -5  -7 44359.4 692.761   2
   3   5   7 42760.9 519.619   1
  -3   5  -8 31532.4 531.107   1
  -3   5  -8 30419.9 440.502   2
   3   5   8 30666.0 466.783   1
  -3   5  -8 31380.6 618.525   3
   3   5   8 30756.1 612.979   2
  -3  -5  -8 31717.0 614.627   2
  -3   5  -9 3626.98 176.926   2
   3   5   9 3579.75 179.673   1
  -3   5  -9 3543.01 238.105   3
   3   5   9 3631.17 245.602   2
  -3   5  -9 3917.16 212.855   1
  -3  -5  -9 3816.42 245.131   2
   3   5  10 2230.39 162.702   1
  -3  -5 -10 2044.54 169.440   1
  -3   5 -10 2102.16 154.183   2
  -3   5 -10 2227.17 181.731   1
   3   5  10 2044.34 205.457   2
  -3   5 -11 2394.16 171.375   2
   3   5  11 2695.66 181.811   1
  -3  -5 -11 2359.91 182.351   1
  -3   5 -11 2462.87 191.495   1
   3   5  11 2561.10 228.523   2
   3   5  12 10068.1 428.751   2
  -3   5 -12 10516.3 342.812   2
   3   5  12 10658.2 345.803   1
  -3  -5 -12 10514.1 349.209   1
  -3   5 -12 10498.4 376.720   1
  -3  -5 -13 11332.5 378.109   1
   3   5  13 10574.0 459.029   2
  -3   5 -13 10923.9 370.330   2
   3   5  13 11073.0 366.664   1
  -3   5 -13 11098.8 404.848   1
  -3   5 -14 8698.78 352.923   2
  -3  -5 -14 8308.57 345.397   1
  -3   5 -14 7956.66 357.176   1
   3   5  14 8250.85 333.218   1
   3   5  14 8601.87 438.294   2
   3   5  15 259.323 174.351   2
  -3  -5 -15 46.6530 142.448   1
  -3   5 -16 3565.84 267.181   1
  -3  -5 -16 3952.87 276.917   1
   3   5  16 3994.87 343.014   2
   3   5  17 339.124 198.734   2
  -3   5 -17-7.33469 155.635   1
   3   7 -19 5777.48 403.024   1
   3  -7 -19 5841.53 399.235   1
   3   7 -18-45.4166 198.078   1
   3  -7 -18 216.501 196.482   1
   3  -7 -17 4764.71 346.091   1
   3   7 -17 5228.72 361.039   1
   3   7 -16 10712.8 480.738   1
   3  -7 -16 9633.46 448.380   1
  -3   7  16 9539.84 477.776   2
   3  -7 -15 243.130 179.250   1
   3   7 -15 550.787 179.539   1
  -3   7  15 238.478 178.027   2
   3  -7 -14 394.031 173.161   1
   3   7 -14 307.748 164.443   1
  -3   7  14 195.818 156.255   2
   3   7 -13 4446.84 264.056   2
  -3   7  13 4581.91 312.748   2
   3  -7 -13 4807.31 302.672   1
   3   7 -13 4783.17 307.746   1
   3   7 -12 1245.10 192.837   1
  -3   7  12 1144.02 190.031   2
   3   7 -12 1129.90 153.489   2
   3  -7 -12 1269.07 194.639   1
  -3   7  12 1053.61 167.659   1
  -3   7  11 11496.6 394.947   1
   3   7 -11 11071.1 397.974   1
   3  -7 -11 10292.9 379.577   1
  -3   7  11 11701.2 428.073   2
   3  -7 -10 20237.6 522.884   2
  -3   7  10 20687.0 502.431   1
   3   7 -10 19814.7 506.815   1
  -3   7  10 20232.3 531.272   2
   3  -7  -9 184.592 125.672   2
  -3   7   9 165.609 122.002   2
  -3   7   9 404.576 132.865   1
   3   7  -9 108.632 113.981   1
  -3   7   8 12366.8 370.989   1
   3   7  -8 12188.7 371.436   1
  -3   7   8 12067.1 370.257   2
   3  -7  -8 12713.8 379.537   2
   3  -7  -7 12105.6 349.223   2
  -3   7   7 11786.9 349.219   2
   3   7  -7 11470.3 345.773   1
  -3   7   7 11778.5 351.818   1
   3  -7  -6 9340.00 296.676   2
  -3   7   6 9133.57 298.834   2
  -3   7   6 9667.85 313.180   1
   3  -7  -5 12833.0 320.228   2
  -3   7   5 13090.9 343.374   1
  -3   7   5 12869.1 322.715   2
   3  -7  -4 48138.1 556.622   2
  -3   7   4 48952.8 564.784   2
   3   7  -3 47763.3 334.072   3
  -3   7   3 50595.5 525.402   2
   3  -7  -3 49956.3 518.198   2
  -3   7   2 594.179 85.5378   2
   3  -7  -2 524.943 76.4705   2
   3  -7  -1 2157.18 99.3869   2
  -3   7   1 2043.93 102.222   2
   3  -7  -1 2331.86 144.871   3
   3  -7   0 327.702 93.6383   3
  -3   7   0 349.677 55.4141   2
  -3   7  -1 23181.2 200.866   2
  -3   7  -1 25343.0 389.344   3
   3  -7   1 25452.2 401.605   3
   3   7   2 3578.05 195.719   2
   3  -7   2 3481.39 173.957   3
  -3   7  -2 3393.21 166.087   3
   3   7   3 16352.1 384.332   2
  -3   7  -3 16454.5 353.481   3
   3  -7   3 16441.9 363.416   3
   3   7   4 11034.0 338.141   2
  -3   7  -4 11088.6 308.949   3
   3   7   4 10532.0 258.339   1
   3   7   5 22593.5 485.646   2
  -3   7  -5 20552.4 231.747   2
   3   7   5 22349.3 387.037   1
  -3   7  -5 22687.7 455.694   3
  -3   7  -6 4960.79 234.452   3
   3   7   6 4628.01 193.834   1
  -3   7  -6 4708.10 133.108   2
   3   7   6 4829.87 257.035   2
  -3   7  -7 69123.4 549.156   2
   3   7   7 68075.4 907.374   2
  -3   7  -7 71802.2 897.490   3
   3   7   7 68089.0 715.440   1
  -3   7  -8 13886.2 426.125   3
  -3  -7  -8 14175.8 445.081   2
  -3   7  -8 13901.1 387.036   1
  -3   7  -8 13879.2 278.043   2
   3   7   8 13948.8 344.714   1
   3   7   8 14084.6 446.797   2
  -3   7  -9 6151.12 277.491   1
   3   7   9 5414.16 306.574   2
   3   7   9 5385.90 233.883   1
  -3   7  -9 5850.53 202.852   2
  -3   7 -10 2415.36 152.302   2
   3   7  10 2413.94 174.539   1
  -3   7 -10 2489.02 194.624   1
   3   7  10 2382.68 231.415   2
  -3   7 -11 3051.60 177.247   2
   3   7  11 2904.01 199.442   1
  -3   7 -11 2808.12 212.492   1
   3   7  11 2880.47 258.231   2
  -3   7 -12-17.5063 90.9472   2
  -3   7 -12-35.5995 117.261   1
   3   7  12 34.7899 102.004   1
   3   7  12 82.7004 158.105   2
  -3   7 -13 10017.3 339.013   2
   3   7  13 9671.31 360.427   1
  -3   7 -13 10563.3 410.278   1
   3   7  13 10448.1 472.681   2
  -3   7 -14 1175.65 173.887   1
   3   7  14 1266.13 223.413   2
   3   7  15 1761.30 254.810   2
  -3   7 -15 1722.65 217.323   1
  -3   7 -16 1297.85 199.347   1
   3   7  16 1904.37 274.444   2
   3   9 -18 5541.42 402.498   1
  -3   9  17 335.360 199.266   2
   3   9 -17 207.814 185.523   1
  -3   9  16 3808.21 335.296   2
   3   9 -16 4099.78 330.906   1
   3   9 -15 962.643 201.866   1
  -3   9  15 944.432 216.219   2
   3   9 -14 81.5807 153.431   1
  -3   9  14 130.837 164.948   2
   3   9 -13 6738.12 316.137   2
  -3   9  13 6767.39 381.920   2
   3   9 -13 7146.04 369.179   1
   3   9 -12 2436.12 234.573   1
  -3   9  12 2373.39 240.810   2
   3   9 -11 11773.5 434.019   1
  -3   9  11 11793.5 441.995   2
  -3   9  10 26376.1 602.761   1
   3   9 -10 25213.6 598.269   1
  -3   9  10 25106.5 609.709   2
   3  -9  -9 2770.24 214.851   2
  -3   9   9 2530.74 211.699   1
   3   9  -9 2553.22 218.956   1
  -3   9   9 2640.31 217.740   2
   3  -9  -8 7499.76 310.477   2
  -3   9   8 7821.85 323.241   1
   3   9  -8 7581.61 319.130   1
  -3   9   8 7590.76 321.958   2
  -3   9   7 344.465 129.297   1
   3  -9  -7 377.432 112.866   2
  -3   9   7 484.795 127.656   2
   3  -9  -6 6446.29 266.901   2
  -3   9   6 7279.42 297.526   1
  -3   9   6 6381.11 265.344   2
   3   9  -5 13077.6 256.884   3
   3  -9  -5 13094.8 344.078   2
  -3   9   5 13419.5 374.802   1
  -3   9   5 13416.5 348.643   2
   3  -9  -4 15300.4 344.138   2
  -3   9   4 16128.4 359.315   2
   3   9  -4 14825.1 236.286   3
   3   9  -3 3911.14 104.085   3
   3  -9  -3 4298.34 178.755   2
  -3   9   3 4351.09 185.850   2
  -3   9   2 25881.6 388.456   2
  -3   9   1 15254.2 273.604   2
   3  -9  -1 15207.1 321.711   3
   3  -9   0 783.516 110.091   3
  -3   9   0 949.942 84.9278   2
   3  -9   1 29669.2 465.692   3
  -3   9  -1 29800.6 300.023   2
  -3   9  -2 8828.35 147.397   2
   3  -9   2 9366.40 280.157   3
   3   9   2 9944.58 319.499   2
  -3   9  -2 9732.76 277.565   3
  -3   9  -3 232.521 87.9220   3
   3  -9   3 247.736 95.4187   3
   3   9   3 301.613 118.556   2
  -3   9  -3 188.569 33.0380   2
   3   9   4 23445.7 514.813   2
  -3   9  -4 24764.6 473.194   3
   3   9   5 2043.78 187.975   2
  -3   9  -5 2060.92 165.100   3
  -3   9  -5 1582.02 68.7778   2
   3   9   5 2034.28 156.340   1
   3   9   6 706.456 147.715   2
  -3   9  -6 706.715 119.206   3
  -3   9  -6 644.774 55.9451   2
   3   9   6 821.441 128.256   1
   3   9   7 3329.50 237.549   2
  -3   9  -7 3206.72 212.295   3
   3   9   7 3043.40 189.837   1
  -3   9  -7 3051.98 116.979   2
  -3   9  -8 20736.7 314.955   2
   3   9   8 21168.5 463.534   1
  -3   9  -8 21605.3 531.012   3
   3   9   8 21109.5 563.365   2
   3   9   9 397.095 151.464   2
  -3   9  -9 321.382 65.3657   2
   3   9   9 628.114 130.717   1
  -3   9  -9 313.075 110.855   1
   3   9  10 1550.48 165.562   1
  -3   9 -10 1604.98 118.731   2
  -3   9 -10 1481.58 173.595   1
   3   9  10 1487.01 211.234   2
  -3   9 -11 3942.70 183.843   2
   3   9  11 4055.06 238.693   1
  -3   9 -11 3933.32 256.327   1
   3   9  11 4107.73 304.107   2
   3   9  12 1201.07 212.174   2
  -3   9 -12 1020.73 116.407   2
  -3   9 -12 1210.33 169.394   1
   3   9  12 924.964 148.412   1
   3   9  13 5348.48 364.025   2
  -3   9 -13 5684.30 325.926   1
  -3   9 -14 636.890 164.263   1
   3   9  14 705.737 208.477   2
   3   9  15 334.848 192.825   2
  -3   9 -15 181.948 141.042   1
  -3   9 -16 9358.62 447.823   1
   3   9  16 8254.28 487.649   2
   3  11 -17 543.284 216.013   1
  -3  11  17 438.979 209.149   2
   3  11 -16 1165.38 234.347   1
  -3  11  16 859.080 235.170   2
   3  11 -15 905.194 209.768   1
  -3  11  15 878.338 218.430   2
  -3  11  14 37.4470 166.456   2
   3  11 -14 224.860 172.053   1
   3  11 -13 12299.9 498.729   1
  -3  11  13 11636.8 500.433   2
   3  11 -12 3437.03 284.468   1
  -3  11  12 3083.19 280.656   2
  -3  11  11 2912.95 257.179   2
   3  11 -11 2799.55 255.941   1
   3  11 -10 2022.20 223.537   1
  -3  11  10 2041.06 219.886   2
   3  11 -10 2055.11 178.803   3
  -3  11   9 7838.50 352.466   2
   3  11  -9 7894.68 356.487   1
   3  11  -9 7888.86 291.274   3
  -3  11   8 3530.56 248.863   1
   3 -11  -8 3353.35 230.350   2
  -3  11   8 3524.41 245.225   2
   3  11  -8 3555.13 191.127   3
   3 -11  -7 16090.9 442.108   2
  -3  11   7 16029.7 452.130   2
  -3  11   7 16617.4 474.807   1
   3  11  -7 15449.4 343.956   3
  -3  11   6 74.4016 117.100   1
   3  11  -6 60.5018 67.0851   3
   3 -11  -6 106.699 96.9488   2
  -3  11   6-0.62201 102.670   2
   3  11  -5 3581.50 143.899   3
   3 -11  -5 3968.05 214.654   2
  -3  11   5 4107.68 220.650   2
   3  11  -4 1253.57 84.9238   3
   3 -11  -4 1208.11 128.723   2
  -3  11   4 1249.07 141.208   2
  -3  11   3 1467.47 137.674   2
  -3  11   2 19011.4 367.503   2
   3 -11  -2 18242.3 368.249   3
  -3  11   1 37108.9 473.277   2
   3 -11  -1 35520.8 509.009   3
  -3  11   0 1218.05 100.685   2
   3 -11   0 953.249 112.698   3
   3 -11   1 12778.5 323.103   3
  -3  11  -1 13350.7 242.439   2
   3  11   1 12600.6 370.220   2
   3  11   2 1184.60 156.283   2
  -3  11  -2 1081.60 77.7478   2
   3 -11   2 932.612 121.208   3
  -3  11  -3 1324.17 73.5179   2
   3  11   3 1412.29 168.217   2
   3 -11   3 1523.85 144.894   3
  -3  11  -3 1673.50 151.455   3
  -3  11  -4 1537.09 71.9571   2
   3  11   4 1898.24 187.707   2
  -3  11  -4 1891.30 162.765   3
   3  11   5 33045.6 668.267   2
  -3  11  -5 34128.0 605.108   3
   3  11   6 313.387 123.571   1
   3  11   6 125.568 132.390   2
  -3  11  -6 108.850 97.5468   3
  -3  11  -6 154.201 40.0420   2
   3  11   7 11353.7 430.864   2
  -3  11  -7 11875.6 399.385   3
   3  11   7 11158.0 365.359   1
  -3  11  -7 10053.0 187.573   2
  -3  11  -8 4107.34 138.583   2
   3  11   8 4372.40 249.690   1
   3  11   8 4738.21 307.581   2
  -3  11  -9 189.990 58.0473   2
   3  11   9 145.879 154.621   2
   3  11   9 183.603 124.763   1
   3  11  10 685.499 188.217   2
  -3  11 -10 302.446 60.5479   2
   3  11  10 653.745 148.055   1
  -3  11 -10 427.855 131.555   1
   3  11  11 6806.75 319.885   1
   3  11  11 6978.13 400.951   2
  -3  11 -11 6877.86 357.433   1
   3  11  12 1252.68 223.261   2
  -3  11 -12 636.781 144.919   1
   3  11  13 4629.80 364.475   2
  -3  11 -13 4392.98 305.622   1
  -3  11 -14 772.044 171.529   1
   3  11  14 993.006 229.800   2
  -3  11 -15 3331.15 296.138   1
   3  11  15 2729.77 322.110   2
  -3  13  16 6237.00 437.808   2
   3  13 -16 7166.50 449.889   1
   3  13 -15 364.225 197.115   1
  -3  13  15 285.750 191.919   2
   3  13 -14 1511.53 241.847   1
  -3  13  14 1427.18 246.397   2
   3  13 -13 2987.86 293.366   1
  -3  13  13 3031.28 300.679   2
   3  13 -12 4481.66 332.138   1
  -3  13  12 4662.62 338.798   2
   3  13 -11 97.0759 110.120   3
  -3  13  11-4.51094 150.172   2
   3  13 -11-16.7523 154.970   1
   3  13 -10 16897.8 562.526   1
   3  13 -10 15935.1 435.708   3
  -3  13  10 16591.1 547.547   2
  -3  13   9 975.265 181.545   2
   3  13  -9 810.158 130.254   3
   3  13  -8 14941.5 369.984   3
  -3  13   8 16076.8 491.199   2
   3  13  -7 4859.73 205.718   3
  -3  13   7 4971.25 283.054   2
   3 -13  -7 5032.72 277.128   2
   3  13  -6 1481.20 118.930   3
  -3  13   6 1655.05 180.950   2
   3 -13  -6 1562.80 169.099   2
   3  13  -5 13346.6 265.893   3
  -3  13   5 13527.6 400.484   2
  -3  13   4 10742.5 344.829   2
  -3  13   3 112.073 95.9383   2
   3 -13  -2 23536.2 442.306   3
  -3  13   2 24828.1 456.972   2
  -3  13   1 2274.45 150.121   2
   3 -13  -1 1844.12 145.223   3
  -3  13   0 1357.40 115.493   2
   3 -13   0 918.939 113.321   3
   3  13   0 808.710 143.791   2
  -3  13  -1 6340.69 197.795   2
   3 -13   1 5952.79 245.326   3
   3  13   1 6079.30 292.621   2
   3 -13   2 13982.8 373.379   3
   3  13   2 14080.3 431.296   2
  -3 -13  -2 11919.4 164.426   3
  -3  13  -2 14270.3 267.153   2
   3  13   3 45.4323 122.938   2
  -3  13  -3 21.8604 52.2679   2
   3  13   4 22820.1 576.602   2
  -3  13  -4 21770.6 280.043   2
  -3  13  -4 23396.0 498.042   3
   3  13   5 3751.78 264.370   2
  -3  13  -5 2798.34 100.437   2
  -3  13  -5 3710.06 229.663   3
   3  13   6 4906.91 308.120   2
   3  13   6 5529.11 284.232   1
  -3  13  -6 3958.81 112.678   2
  -3  13  -6 4032.21 119.964   2
  -3  13  -6 5175.05 270.872   3
   3  13   7 161.531 152.261   2
  -3  13  -7 171.433 42.1394   2
   3  13   7 222.880 137.143   1
   3  13   8 691.286 163.839   1
   3  13   8 587.672 177.588   2
  -3  13  -8 460.061 55.3314   2
   3  13   9 1684.98 235.497   2
   3  13  10 9221.52 463.167   2
  -3  13 -10 9486.16 425.871   1
   3  13  11-18.7343 167.871   2
  -3  13 -11-68.4787 159.542   1
   3  13  12-112.906 182.524   2
  -3  13 -12-9.64163 150.467   1
   3  13  13 247.326 195.130   2
  -3  13 -13-248.478 191.229   1
  -3  13 -14 1709.63 226.765   1
  -3  15  15 232.172 197.703   2
   3  15 -15 365.732 192.410   1
   3  15 -14 122.184 187.682   1
  -3  15  14 258.103 194.981   2
   3  15 -13 7534.04 445.436   1
  -3  15  13 7747.87 453.681   2
   3  15 -12 337.241 176.475   1
  -3  15  12 504.482 186.167   2
   3  15 -11 1991.76 256.074   1
  -3  15  11 1901.98 246.006   2
   3  15 -10 546.159 184.951   1
   3  15 -10 377.066 117.812   3
  -3  15  10 665.046 182.429   2
  -3  15   9 847.804 188.799   2
   3  15  -9 737.652 126.371   3
  -3  15   8-31.9737 133.758   2
   3  15  -8 96.3387 90.1998   3
  -3  15   7 11744.3 430.952   2
   3  15  -7 11196.5 301.249   3
  -3  15   6-120.513 121.561   2
   3  15  -6 219.666 89.3406   3
  -3  15   5 11699.7 399.149   2
  -3  15   4 1693.22 177.698   2
   3 -15  -3 2394.88 176.514   3
  -3  15   3 2360.78 191.062   2
  -3  15   2 4868.23 233.422   2
   3 -15  -2 4329.86 213.025   3
   3  15  -1 1744.35 188.569   2
  -3  15   1 1648.34 150.674   2
   3 -15  -1 1529.81 142.201   3
   3  15   0 84.3400 117.911   2
   3 -15   0 85.0984 84.4777   3
  -3  15   0 139.058 88.1619   2
  -3  15  -1 4305.44 186.727   2
   3  15   1 3949.89 259.000   2
   3 -15   1 3850.31 213.399   3
  -3  15  -2 755.442 95.4655   2
   3 -15   2 613.692 117.166   3
  -3 -15  -2 400.590 30.3369   3
   3  15   2 683.443 157.316   2
   3  15   3 3189.29 251.272   2
  -3  15  -3 3476.54 147.061   2
  -3 -15  -3 3078.18 99.7615   3
  -3  15  -4 53.3349 57.1642   2
   3  15   4 130.358 142.474   2
  -3  15  -5 8898.69 189.441   2
   3  15   5 10466.9 434.211   2
   3  15   6 2106.51 243.225   2
  -3  15  -6 1792.20 84.1791   2
  -3  15  -7 7063.53 141.699   2
   3  15   7 9951.03 453.012   2
   3  15   8 298.097 173.468   2
   3  15   9 297.285 178.791   2
   3  15  10 1066.89 225.134   2
  -3  15 -11 1771.96 241.135   1
   3  15  11 2200.91 284.381   2
   3  15  12 75.2337 173.307   2
  -3  15 -12-55.7074 167.760   1
  -3  17  13 140.147 175.632   2
   3  17 -13-79.4798 202.540   1
   3  17 -12 268.500 192.025   1
  -3  17  12 205.310 180.882   2
  -3  17  11-108.796 178.073   2
   3  17 -11-117.469 179.545   1
   3  17 -10 15558.4 601.094   1
  -3  17  10 15137.1 580.211   2
  -3  17   9 140.137 159.472   2
  -3  17   8 4402.11 304.062   2
  -3  17   7 796.314 176.606   2
  -3  17   6 3829.84 274.034   2
  -3  17   5 458.336 143.856   2
  -3  17   4 5595.92 297.696   2
   3 -17  -4 5270.45 246.132   3
  -3  17   3 1933.43 189.689   2
   3 -17  -3 1646.95 152.558   3
   3 -17  -2 10643.3 336.187   3
  -3  17   2 11907.8 377.723   2
   3  17  -2 11125.3 408.074   2
  -3  17   1 152.036 105.694   2
   3  17  -1 89.7345 127.387   2
   3 -17  -1-193.327 110.730   3
   3 -17   0 551.853 120.366   3
  -3  17   0 734.198 122.092   2
   3  17   0 617.906 155.478   2
  -3  17  -1 74.5585 92.8963   2
   3  17   1-3.73765 131.201   2
   3 -17   1 25.0486 98.4329   3
  -3  17  -2 15748.8 346.737   2
   3  17   2 15376.8 511.183   2
  -3  17  -3 138.125 76.8998   2
   3  17   3 20.3661 139.131   2
   3  17   4 2487.78 255.487   2
  -3  17  -4 2459.18 130.278   2
   3  17   5 103.400 160.665   2
   3  17   6 5161.84 352.910   2
   3  17   7 385.226 184.571   2
   3  17   8 5943.85 395.117   2
   3  17   9 159.748 179.671   2
   3  17  10 3794.21 354.036   2
  -3  17 -11 392.726 176.177   1
  -3  19  11 3539.31 331.590   2
  -3  19  10 498.465 193.003   2
  -3  19   9 1903.03 256.356   2
  -3  19   8-11.6879 155.831   2
  -3  19   7 2278.77 247.505   2
  -3  19   6 61.1256 138.610   2
   3 -19  -6 353.467 128.815   3
   3 -19  -5 8291.54 313.354   3
  -3  19   5 8778.51 392.658   2
  -3  19   4 175.192 134.818   2
   3  19  -4 215.960 135.480   2
   3 -19  -4 135.448 97.3391   3
   3 -19  -3 4563.93 238.351   3
   3  19  -3 5458.57 308.546   2
  -3  19   3 5456.34 300.822   2
  -3  19   2 1706.63 182.718   2
   3 -19  -2 1197.52 142.911   3
   3  19  -2 1620.02 201.984   2
  -3  19   1 4533.18 254.769   2
   3  19  -1 4411.89 297.357   2
   3 -19  -1 4053.61 229.458   3
  -3  19   0 104.070 109.684   2
   3  19   0 154.506 143.648   2
   3 -19   0-74.2331 110.300   3
   3  19   1 4329.75 306.816   2
  -3  19  -1 4639.54 230.023   2
  -3  19  -2 368.892 104.092   2
   3  19   2 417.985 165.612   2
   3  19   3-32.3426 152.714   2
   3  19   4 61.4653 165.290   2
   3  19   5 2364.41 267.191   2
   3  19   6 666.546 198.344   2
   3  19   7 6381.23 418.253   2
   3  19   8 126.965 180.305   2
  -3  21   7 559.013 184.016   2
   3  21  -6 808.276 167.840   2
  -3  21   6 648.466 184.278   2
  -3  21   5 14.9290 142.797   2
   3  21  -5 73.1649 133.192   2
   3  21  -4 3437.94 271.941   2
  -3  21   4 3596.85 279.525   2
  -3  21   3 0.15542 127.325   2
   3  21  -3-9.82697 137.752   2
  -3  21   2 3915.88 261.969   2
   3  21  -2 3431.59 277.842   2
   3  21  -1-1.33533 146.325   2
   3  21   0-66.6240 158.034   2
   3  21   1 74.8576 157.016   2
   3  21   2 3529.70 304.653   2
   3  21   3 612.413 194.910   2
   3  21   4 2945.37 305.821   2
   3  21   5 35.3006 170.063   2
   4   0 -20 8737.18 491.519   1
   4   0 -19 511.333 220.152   1
   4   0 -18 934.128 230.745   1
   4   0 -17 291.497 185.763   1
   4   0 -16 1427.28 226.393   1
   4   0 -15 247.086 166.988   1
   4   0 -14 7994.45 364.797   1
   4   0 -13-45.2146 110.928   2
  -4   0  13 75.5600 110.594   1
   4   0 -13 194.116 145.014   1
  -4   0  12 506.060 124.274   1
   4   0 -12 617.408 150.967   1
   4   0 -12 481.066 127.219   2
  -4   0  11-11.7373 102.438   1
   4   0 -11-72.3467 122.585   1
   4   0 -11 8.92181 97.2025   2
   4   0 -10 25516.6 517.909   1
   4   0 -10 26064.3 531.236   2
  -4   0  10 26263.9 519.236   1
   4   0  -9-29.3958 117.218   1
  -4   0   9 96.4789 97.5681   1
   4   0  -9 61.6439 98.3732   2
  -4   0   8 57546.7 684.618   1
   4   0  -8 57027.6 706.666   2
   4   0  -8 58777.3 694.895   1
  -4   0   7 84.7190 95.4347   1
   4   0  -7-20.3712 108.625   1
  -4   0   6 26967.6 422.530   1
   4   0  -6 28569.9 428.752   1
  -4   0   5 73.2252 95.8964   1
   4   0  -5-0.55328 103.007   1
   4   0  -4 2707.73 140.008   1
  -4   0   4 2875.14 141.605   1
   4   0  -3 355.267 94.5074   1
  -4   0   3 29.6977 84.3381   1
  -4   0   2 25995.7 272.043   1
   4   0  -2 26675.1 279.956   1
  -4   0   1 198.718 56.8089   1
   4   0  -1 205.631 63.8090   1
   4   0   0 105530. 626.004   3
  -4   0   0 103637. 611.104   3
  -4   0  -1 2.59337 73.6482   3
   4   0   1 59.3928 84.3709   3
  -4   0  -2 7261.87 206.440   3
   4   0   2 7528.55 183.394   2
  -4   0  -3 108.963 43.0825   1
  -4   0  -3 146.644 82.8270   3
   4   0   3 87.3507 75.9000   2
  -4   0  -4 201400. 1180.95   3
  -4   0  -4 206387. 724.660   1
   4   0   4 205272. 1044.86   2
  -4   0  -5-108.390 100.597   3
  -4   0  -5 106.744 63.3786   1
   4   0   5 23.3795 82.0006   2
  -4   0  -5 75.3971 76.5645   2
  -4   0  -6 19055.2 295.422   1
   4   0   6 18550.6 372.164   2
  -4   0  -6 18403.5 368.502   2
   4   0   7 92.4010 92.9161   2
  -4   0  -7 55.1567 81.4022   2
  -4   0  -7 108.073 72.7322   1
  -4   0  -8 1779.85 119.871   1
   4   0   8 1878.30 154.100   2
  -4   0  -8 1890.30 154.755   2
   4   0   9-21.9672 98.4970   2
  -4   0  -9-111.033 90.3028   1
  -4   0  -9 98.9587 100.968   2
  -4   0 -10 42.1870 86.1994   1
  -4   0 -10 132.868 104.273   2
   4   0  10 50.6422 107.202   2
  -4   0 -11-89.5063 110.860   2
  -4   0 -11 131.591 108.774   1
   4   0  11-26.8771 118.634   2
  -4   0 -12 6716.98 271.370   1
   4   0  12 5657.49 304.545   2
  -4   0 -13 731.242 156.173   1
   4   0  13 101.287 135.891   2
   4   0  14 20518.9 597.672   2
  -4   0 -14 22582.5 536.599   1
  -4   0 -15-254.895 156.774   1
  -4   0 -16 13.5216 152.727   1
   4   2 -20 414.423 221.224   1
   4  -2 -20-124.285 213.597   1
   4   2 -19 588.377 223.996   1
   4  -2 -19 74.0314 195.504   1
   4   2 -18 324.473 192.697   1
   4  -2 -18-61.8573 187.807   1
   4  -2 -17 5686.15 370.228   1
   4   2 -17 6381.42 376.969   1
   4  -2 -16-88.8450 181.407   1
   4   2 -16-75.4128 159.912   1
   4   2 -15 7658.93 369.620   1
   4  -2 -15 7807.21 388.065   1
   4  -2 -14 574.672 186.753   1
   4   2 -14-165.104 156.733   1
   4  -2 -13 2487.70 235.106   1
  -4  -2  13 1879.63 190.725   1
   4   2 -13 1830.22 187.077   2
   4   2 -13 1894.40 203.966   1
  -4   2  13 1845.69 188.679   1
  -4   2  12 676.983 135.760   1
  -4  -2  12 741.486 137.564   1
   4   2 -12 426.231 138.054   1
   4  -2 -12 827.070 148.504   2
   4   2 -12 578.552 126.912   2
   4  -2 -12 1047.88 186.808   1
   4   2 -11 18676.7 475.825   1
  -4  -2  11 19169.4 474.584   1
   4  -2 -11 18806.1 486.170   2
  -4   2  11 19392.3 476.367   1
   4   2 -11 19248.6 477.938   2
   4  -2 -11 20182.8 491.407   1
   4  -2 -10 1040.41 144.094   2
  -4   2  10 1065.02 146.503   1
  -4  -2  10 944.193 132.087   1
   4   2 -10 707.171 133.946   1
   4   2 -10 1105.49 142.388   2
   4  -2 -10 1291.04 173.456   1
  -4  -2   9 16741.2 402.078   1
   4   2  -9 16355.3 405.614   1
  -4   2   9 16599.0 403.876   1
   4  -2  -9 17100.1 417.066   1
   4  -2  -9 15993.8 414.096   2
   4  -2  -8 1685.73 176.450   1
   4   2  -8 1432.87 155.652   1
  -4  -2   8 1298.05 135.769   1
  -4   2   8 1298.68 135.519   1
   4  -2  -8 1346.43 140.797   2
   4   2  -7 1005.53 141.497   1
   4  -2  -7 1083.45 135.501   2
   4  -2  -7 1607.97 167.008   1
  -4  -2   7 1152.02 130.585   1
  -4   2   7 1035.17 126.211   1
   4   2  -6 708.520 123.881   1
  -4   2   6 761.751 119.110   1
   4  -2  -6 585.133 126.396   1
  -4  -2   6 652.304 107.291   1
   4  -2  -6 704.688 108.859   2
  -4  -2   5 10520.1 253.834   1
   4  -2  -5 10190.4 260.212   1
   4   2  -5 10958.5 261.473   1
  -4   2   5 10256.6 258.360   1
   4  -2  -5 10484.1 259.726   2
   4  -2  -4 1515.50 139.121   1
  -4  -2   4 1703.06 122.252   1
  -4   2   4 1663.93 133.512   1
   4   2  -4 1746.64 128.283   1
   4   2  -3 526337. 1419.90   1
  -4   2   3 528231. 1495.66   1
  -4  -2   3 528633. 1396.49   1
   4  -2  -3 526177. 1508.39   1
  -4   2   2 12215.9 227.581   1
  -4  -2   2 12516.5 201.614   1
   4   2  -2 12498.6 203.532   1
   4   2  -1 4605.75 120.625   3
   4   2  -1 3780.11 102.341   1
  -4   2   1 4044.77 132.023   1
  -4  -2   0 196.222 65.3389   3
   4  -2   0 97.0707 93.0890   3
  -4   2   0 358.970 90.7297   3
   4   2   0 57.7949 36.7671   1
   4   2   0-3.39586 64.4535   3
  -4  -2  -1 28266.5 320.857   3
   4  -2   1 29547.6 394.211   3
  -4   2  -1 29401.7 387.080   3
   4   2   1 28780.7 326.752   3
   4  -2   2 10.5241 101.497   3
   4  -2   2 64.0522 50.2823   2
  -4  -2  -2 68.9070 68.8484   3
  -4   2  -2-16.9488 83.1548   3
   4  -2   3 115041. 603.851   2
   4   2   3 116319. 821.674   2
  -4   2  -3 116128. 859.955   3
   4   2   4 403.692 103.034   2
   4   2   4 360.346 51.9735   1
  -4   2  -4 518.239 103.016   3
  -4   2  -4 466.856 73.4503   1
  -4  -2  -4 491.909 62.5490   1
   4  -2   4 496.536 73.8351   2
   4   2   5 37757.4 534.892   2
  -4  -2  -5 38351.9 351.519   1
  -4   2  -5 36310.0 424.248   2
  -4   2  -5 38479.6 574.121   3
  -4   2  -5 38035.2 415.770   1
   4   2   5 38010.1 347.151   1
   4  -2   5 37436.0 434.774   2
   4   2   6 644.659 71.4051   1
  -4   2  -6 825.887 95.0865   1
   4   2   6 697.904 121.911   2
  -4   2  -6 800.091 94.3252   2
  -4  -2  -6 753.476 117.276   2
  -4   2  -6 673.093 119.749   3
  -4  -2  -6 614.052 81.9689   1
   4  -2   6 790.825 95.9041   2
  -4  -2  -7 1621.69 114.305   1
  -4   2  -7 1801.46 131.998   2
  -4   2  -7 1854.15 128.874   1
  -4  -2  -7 1876.29 156.500   2
  -4   2  -7 1754.57 163.665   3
   4   2   7 1804.93 108.768   1
   4   2   7 1768.52 164.894   2
   4  -2   7 1842.43 135.249   2
   4   2   8 453.017 120.161   2
   4   2   8 388.376 77.3888   1
  -4   2  -8 588.619 101.410   2
  -4   2  -8 395.486 94.1476   1
  -4  -2  -8 322.160 86.0777   1
  -4   2  -8 469.339 122.457   3
  -4  -2  -8 390.993 108.305   2
   4  -2   8 444.529 96.2477   2
  -4   2  -9 35550.6 535.030   1
  -4   2  -9 36341.8 695.025   3
  -4  -2  -9 35055.4 495.022   1
  -4   2  -9 34919.2 559.924   2
   4   2   9 35654.7 489.523   1
  -4  -2  -9 36542.7 647.880   2
   4  -2   9 35765.2 582.620   2
   4   2   9 34481.2 633.393   2
   4  -2  10 39.2691 93.4658   2
  -4  -2 -10 43.0588 98.7570   1
  -4  -2 -10 120.004 107.746   2
  -4   2 -10 55.8335 88.8250   2
  -4   2 -10 71.0041 93.3824   1
   4   2  10-48.1761 116.856   2
   4   2  10 20.2499 73.5491   1
   4  -2  11 4332.51 241.301   2
  -4   2 -11 4555.65 225.863   1
  -4   2 -11 4435.02 242.119   2
  -4  -2 -11 4092.90 216.926   1
   4   2  11 4359.21 207.692   1
   4   2  11 4319.76 274.070   2
  -4   2 -12 6.89070 101.313   2
  -4  -2 -12 50.5333 117.569   1
   4   2  12-50.9130 91.3157   1
   4  -2  12 88.5361 115.111   2
   4   2  12 149.884 135.020   2
  -4   2 -13 27.9323 106.333   1
  -4  -2 -13 28.5903 122.822   1
   4   2  13 22.9467 136.738   2
  -4   2 -14 36.7864 113.432   1
   4   2  14-157.640 158.379   2
  -4  -2 -14-49.4906 132.713   1
  -4  -2 -15 11533.9 407.574   1
  -4   2 -15 12549.2 424.962   1
   4   2  15 11859.9 501.445   2
  -4  -2 -16 222.770 158.044   1
   4   2  16 26.3646 162.887   2
   4  -4 -20 5122.90 396.335   1
   4   4 -20 5866.20 409.023   1
   4   4 -19 111.925 190.190   1
   4  -4 -19 314.658 210.040   1
   4  -4 -18 2032.22 271.870   1
   4   4 -18 2110.46 261.852   1
   4  -4 -17 782.768 217.277   1
   4   4 -17 572.117 195.387   1
   4  -4 -16 1924.93 250.909   1
   4   4 -16 1636.09 227.548   1
   4   4 -15 906.787 183.196   1
   4  -4 -15 1309.16 224.526   1
   4   4 -14 7565.06 371.658   1
   4  -4 -14 8300.65 389.043   1
   4  -4 -13 4989.83 301.905   1
   4   4 -13 5025.66 297.941   1
   4   4 -13 4745.43 278.255   2
   4  -4 -12 34595.4 703.652   2
   4   4 -12 35086.3 689.790   1
  -4   4  12 33691.4 659.391   1
   4  -4 -12 33427.9 669.333   1
  -4  -4  12 34365.7 665.761   1
   4   4 -12 34887.0 665.050   2
  -4   4  11 1109.70 144.586   1
   4  -4 -11 979.569 149.547   2
   4   4 -11 1336.46 152.204   2
   4   4 -11 1261.17 170.830   1
  -4  -4  11 1162.29 152.352   1
   4  -4 -11 1076.35 175.145   1
  -4   4  10 8639.60 317.554   1
  -4  -4  10 8903.06 318.909   1
   4  -4 -10 8883.56 334.483   1
   4   4 -10 9189.08 334.040   1
   4  -4 -10 8686.40 329.697   2
  -4   4   9 144.909 105.436   1
   4  -4  -9 57.0860 130.194   1
   4  -4  -9 63.7719 95.3448   2
   4   4  -9 79.3828 109.145   1
  -4  -4   9 120.638 97.2937   1
  -4  -4   8 3464.48 199.096   1
   4  -4  -8 3916.39 228.913   1
   4   4  -8 3564.73 214.756   1
  -4   4   8 3930.15 215.551   1
   4  -4  -8 3473.76 206.525   2
  -4   4   8 3560.37 216.589   2
   4  -4  -7 565.475 113.863   2
   4   4  -7 646.739 125.894   1
  -4   4   7 690.988 125.711   1
   4  -4  -7 604.734 142.805   1
  -4   4   7 495.452 122.755   2
  -4   4   6 46322.5 591.948   1
   4  -4  -6 47086.3 598.729   1
   4   4  -6 46128.5 581.749   1
  -4   4   6 46716.2 588.433   2
   4  -4  -6 47149.0 585.695   2
   4   4  -5 13351.7 306.665   1
  -4   4   5 12740.3 308.106   1
   4  -4  -5 13638.8 317.726   1
   4  -4  -5 12780.3 293.311   2
  -4   4   4 35243.0 470.476   1
   4   4  -4 32430.4 438.543   1
   4  -4  -4 32991.6 415.915   2
  -4   4   3 2535.16 151.002   1
   4  -4  -3 2521.75 121.246   2
   4   4  -3 2388.97 132.961   1
   4  -4  -2 25144.0 286.908   2
   4   4  -1 17319.4 166.430   3
   4  -4  -1 17730.3 203.528   2
   4  -4  -1 18955.1 317.546   3
   4  -4   0 45273.8 495.115   3
  -4  -4   0 43717.7 296.976   3
  -4  -4  -1 171.625 51.8613   3
   4  -4   1 44.5267 101.931   3
  -4   4  -1 247.894 91.0919   3
  -4   4  -2 2893.57 158.892   3
   4  -4   2 2984.46 166.092   3
  -4  -4  -2 3148.39 122.527   3
   4  -4   3 10079.0 284.740   3
   4   4   3 9925.78 178.293   1
   4   4   3 9734.92 282.589   2
  -4   4  -3 10011.2 278.454   3
   4  -4   3 9045.08 138.665   2
   4   4   4 60904.9 697.107   2
   4  -4   4 60643.3 419.851   2
  -4   4  -4 59852.4 692.336   3
   4   4   5 5482.52 155.753   1
   4   4   5 5550.19 240.669   2
  -4   4  -5 5617.75 151.827   2
  -4   4  -5 5770.96 243.420   3
   4  -4   5 5639.61 156.074   2
   4   4   6 15523.4 401.795   2
   4   4   6 15566.0 272.966   1
   4  -4   6 16018.6 287.189   2
  -4   4  -6 16241.6 334.424   1
  -4   4  -6 15982.6 407.787   3
  -4   4  -6 15381.3 272.416   2
   4   4   7 132.407 114.407   2
   4   4   7 112.845 66.0400   1
  -4   4  -7 56.7278 65.1756   2
  -4   4  -7 74.3088 82.8001   1
  -4   4  -7 9.81944 94.3901   3
   4   4   8 14154.1 300.690   1
   4   4   8 14279.2 424.350   2
  -4  -4  -8 14110.9 416.957   2
  -4   4  -8 14488.3 318.351   2
  -4   4  -8 14941.7 441.198   3
  -4  -4  -8 14089.8 300.768   1
  -4   4  -8 14648.5 350.872   1
   4   4   9 241.439 125.241   2
   4   4   9 249.252 80.2024   1
  -4  -4  -9 190.122 109.488   2
  -4   4  -9 237.621 89.0507   2
  -4   4  -9 215.779 100.237   1
  -4  -4  -9 263.766 102.749   1
   4   4  10 202.912 86.9740   1
   4   4  10 106.162 124.610   2
  -4   4 -10 120.039 101.395   1
  -4  -4 -10 162.450 107.218   1
  -4   4 -10 130.329 87.4467   2
  -4   4 -11 3157.43 199.303   2
  -4  -4 -11 2917.29 194.436   1
  -4   4 -11 3046.12 206.554   1
   4   4  11 2801.74 175.409   1
   4   4  11 2927.42 241.290   2
  -4   4 -12 32693.6 628.610   1
  -4   4 -12 32499.9 605.438   2
  -4  -4 -12 31602.4 560.025   1
   4   4  12 31859.4 559.849   1
   4   4  12 32109.5 734.011   2
  -4  -4 -13 907.796 160.561   1
  -4   4 -13 844.105 144.370   2
  -4   4 -13 484.479 125.884   1
   4   4  13 800.708 129.174   1
   4   4  13 790.408 184.898   2
  -4  -4 -14 10693.4 373.721   1
   4   4  14 10470.4 469.603   2
  -4   4 -14 11015.4 401.443   1
  -4  -4 -15 291.008 151.060   1
  -4   4 -15 57.3214 125.342   1
   4   4  15 105.396 164.954   2
  -4   4 -16 52.6683 133.089   1
   4   4  16-61.6336 164.986   2
   4   6 -19-43.6301 200.138   1
   4  -6 -19 284.461 214.967   1
   4  -6 -18 460.913 216.853   1
   4   6 -18 66.6413 186.939   1
   4  -6 -17 3680.87 322.658   1
   4   6 -17 3448.35 314.915   1
   4  -6 -16 256.113 190.501   1
   4   6 -16 145.387 164.381   1
   4  -6 -15 8779.33 418.145   1
   4   6 -15 8541.54 416.299   1
   4   6 -14 128.582 162.626   1
   4  -6 -14 249.393 173.916   1
   4  -6 -13 4206.86 291.654   1
  -4   6  13 4022.98 286.314   2
   4   6 -13 4194.67 260.422   2
   4   6 -13 4312.05 287.146   1
   4  -6 -12 223.731 158.783   1
   4   6 -12 181.118 142.576   1
  -4   6  12 93.3987 140.503   2
  -4   6  12 100.129 117.486   1
   4  -6 -11 20918.0 545.006   2
  -4   6  11 20943.8 549.571   2
   4   6 -11 21490.5 539.985   1
   4  -6 -11 21727.7 540.320   1
  -4   6  11 22129.2 534.520   1
   4   6 -10 218.866 129.485   1
   4  -6 -10 57.5641 100.904   2
  -4   6  10 160.314 117.177   1
   4  -6 -10 147.603 139.730   1
  -4   6  10 44.0490 118.513   2
   4  -6  -9 13655.1 410.271   2
   4   6  -9 13473.3 395.046   1
  -4   6   9 13847.4 397.369   1
  -4   6   9 13603.0 408.898   2
   4  -6  -9 13568.9 397.204   1
  -4   6   8 1012.45 154.853   1
  -4   6   8 545.202 129.044   2
   4  -6  -8 711.040 125.313   2
   4  -6  -8 600.963 143.402   1
   4   6  -8 591.443 129.467   1
   4  -6  -7 502.469 111.871   2
  -4   6   7 419.919 118.375   1
  -4   6   7 548.491 124.292   2
   4   6  -7 501.429 122.640   1
  -4   6   6 525.231 129.331   1
   4  -6  -6 433.153 107.031   2
   4   6  -6 251.790 112.381   1
  -4   6   6 407.822 114.278   2
   4  -6  -5 81550.5 748.165   2
  -4   6   5 83817.6 818.369   1
   4   6  -5 79335.3 768.018   1
   4  -6  -4 9252.41 242.535   2
  -4   6   4 9312.33 276.782   1
  -4   6   4 9616.79 250.329   2
   4  -6  -3 1074.05 96.6060   2
  -4   6   3 1114.23 105.520   2
   4  -6  -2 1807.26 98.8995   2
  -4   6   2 1774.49 102.045   2
   4  -6  -1 2157.07 86.4070   2
   4  -6  -1 2432.01 156.644   3
   4  -6   0 1369.46 129.614   3
   4  -6   0 1173.82 48.9002   2
   4  -6   1 16833.0 349.090   3
  -4  -6  -1 16526.9 192.848   3
  -4   6  -1 17954.9 346.424   3
   4  -6   2 1121.19 127.154   3
   4   6   2 1038.07 136.933   2
  -4   6  -2 1394.03 126.204   3
   4   6   3 209.634 109.286   2
   4  -6   3 238.081 103.531   3
  -4   6  -3 88.5481 87.2077   3
   4   6   4 87.1846 104.092   2
  -4   6  -4-163.840 103.577   3
   4   6   4 145.186 74.4035   1
  -4   6  -5 14307.1 380.699   3
   4   6   5 13730.8 277.356   1
   4   6   5 14164.2 390.751   2
  -4   6  -5 12311.9 175.764   2
  -4   6  -6 3625.62 213.324   3
   4   6   6 3451.30 219.982   2
  -4   6  -6 3375.62 115.039   2
   4   6   6 3525.07 159.937   1
   4   6   7 19563.3 490.229   2
  -4   6  -7 19984.9 497.059   3
  -4   6  -7 19791.9 299.527   2
  -4   6  -7 19894.6 420.054   1
   4   6   7 19542.7 361.039   1
  -4   6  -8 456.290 115.826   1
   4   6   8 252.592 131.598   2
  -4   6  -8 270.898 112.689   3
   4   6   8 88.1192 78.1687   1
  -4   6  -8 345.320 73.8041   2
   4   6   9 5861.99 225.576   1
  -4   6  -9 5928.23 208.277   2
  -4   6  -9 6481.35 277.318   1
   4   6   9 6100.64 314.651   2
   4   6  10 310.181 97.2787   1
  -4   6 -10 474.941 129.424   1
   4   6  10 198.707 141.629   2
  -4   6 -10 276.432 91.7802   2
  -4   6 -11 17012.5 392.982   2
   4   6  11 16069.2 396.735   1
  -4   6 -11 17145.1 469.974   1
   4   6  11 16504.6 533.259   2
   4   6  12 1118.26 200.942   2
   4   6  12 1006.62 137.168   1
  -4   6 -12 1044.27 156.986   1
  -4   6 -12 1153.60 142.938   2
  -4   6 -13 2227.29 208.369   1
  -4   6 -13 2418.69 190.327   2
   4   6  13 2483.25 186.511   1
   4   6  13 2488.67 261.088   2
  -4   6 -14 2754.38 225.827   1
   4   6  14 2876.57 289.846   2
  -4   6 -15 9997.45 421.016   1
   4   6  15 10847.0 516.155   2
  -4   6 -16-314.370 179.163   1
   4   6  16 364.554 192.324   2
   4   8 -19 652.238 227.448   1
   4   8 -18 5583.81 396.322   1
   4   8 -17 1042.54 230.803   1
   4  -8 -17 794.884 221.200   1
   4  -8 -16 976.211 221.014   1
   4   8 -16 1308.10 231.484   1
   4   8 -15 575.874 182.197   1
  -4   8  15 494.847 179.979   2
   4  -8 -15 371.824 182.506   1
  -4   8  14 5279.65 351.167   2
   4   8 -14 5410.71 342.110   1
   4   8 -13 5090.83 319.793   1
  -4   8  13 4840.56 323.498   2
   4   8 -12 49901.4 877.746   1
  -4   8  12 48818.2 888.088   2
   4   8 -11-119.343 140.946   1
  -4   8  11 287.407 145.304   1
  -4   8  11 86.6869 136.571   2
   4  -8 -10 1437.68 171.099   2
  -4   8  10 1597.62 185.989   2
  -4   8  10 1728.49 188.658   1
   4   8 -10 1619.22 184.617   1
  -4   8   9-22.9147 129.419   1
   4  -8  -9 104.625 108.393   2
   4   8  -9 32.3818 120.681   1
  -4   8   9 121.695 117.643   2
   4  -8  -8 15846.8 428.730   2
  -4   8   8 16585.1 443.539   1
   4   8  -8 15563.6 434.258   1
  -4   8   8 15767.1 433.508   2
  -4   8   7 8.53401 114.138   1
   4  -8  -7 142.959 98.8288   2
   4   8  -7-88.9304 118.953   1
  -4   8   7-10.0648 101.690   2
   4  -8  -6 28269.3 505.398   2
  -4   8   6 28834.2 509.974   2
  -4   8   6 29262.3 551.514   1
  -4   8   5 183.027 113.251   1
   4  -8  -5 152.658 83.6921   2
  -4   8   5 188.191 92.7587   2
   4  -8  -4 11618.5 282.393   2
  -4   8   4 12183.8 296.645   2
   4  -8  -3 1598.59 113.122   2
   4   8  -3 1129.88 50.4870   3
  -4   8   3 1573.76 119.589   2
   4  -8  -2 16128.6 272.343   2
  -4   8   2 16264.4 280.811   2
   4  -8  -1 804.548 120.504   3
  -4   8   1 749.242 74.9267   2
   4  -8   0 58901.0 650.576   3
   4  -8   1 3858.65 190.881   3
  -4  -8  -1 3472.42 77.5303   3
   4   8   2 27.2180 105.343   2
   4  -8   2 73.1494 92.9656   3
  -4   8  -2 38.4491 74.8546   3
  -4   8  -3 6533.90 246.383   3
   4   8   3 6231.26 269.171   2
   4  -8   3 6344.93 253.338   3
   4   8   4 7437.52 305.352   2
  -4   8  -4 7508.04 277.259   3
   4   8   5 36.8356 118.650   2
   4   8   5 217.780 89.6740   1
  -4   8  -5 26.1002 85.3064   3
   4   8   6 28747.7 605.227   2
   4   8   6 28023.7 462.527   1
  -4   8  -6 29700.2 587.319   3
   4   8   7 1370.03 132.987   1
  -4   8  -7 1006.92 67.3128   2
   4   8   7 1234.74 176.844   2
  -4   8  -7 1010.25 137.450   3
   4   8   8 20864.5 561.991   2
  -4   8  -8 20620.5 301.248   2
  -4   8  -8 21919.7 497.742   1
   4   8   8 21014.4 424.995   1
   4   8   9 2151.19 223.745   2
  -4   8  -9 2064.19 116.038   2
   4   8   9 1998.99 158.323   1
  -4   8  -9 2225.58 193.831   1
  -4   8 -10 6487.90 211.408   2
   4   8  10 7002.13 370.069   2
   4   8  10 6505.12 270.058   1
  -4   8 -10 6788.48 313.078   1
   4   8  11 2389.82 184.047   1
  -4   8 -11 3073.37 231.517   1
  -4   8 -11 2689.43 157.798   2
   4   8  11 2779.18 264.946   2
   4   8  12 15505.1 431.157   1
  -4   8 -12 16637.7 502.690   1
   4   8  12 15993.8 571.818   2
   4   8  13 384.810 174.408   2
  -4   8 -13 424.502 135.701   1
  -4   8 -14 6345.20 348.493   1
   4   8  14 6477.25 411.264   2
  -4   8 -15 1433.12 199.947   1
   4   8  15 1747.09 264.827   2
   4  10 -18-35.7855 193.000   1
   4  10 -17 2704.15 308.952   1
   4  10 -16 289.975 181.665   1
  -4  10  16 192.781 170.287   2
   4  10 -15 645.688 199.671   1
  -4  10  15 639.573 197.245   2
   4  10 -14 519.373 185.487   1
  -4  10  14 638.150 194.835   2
   4  10 -13 4306.49 308.996   1
  -4  10  13 4034.73 313.163   2
   4  10 -12 1702.21 217.259   1
  -4  10  12 1564.11 212.220   2
   4  10 -11 5931.23 334.066   1
  -4  10  11 6194.00 343.508   2
  -4  10  10 4858.38 296.103   2
   4  10 -10 4846.23 294.047   1
   4 -10  -9 22546.5 550.943   2
  -4  10   9 24074.5 582.146   1
   4  10  -9 23166.8 577.526   1
  -4  10   9 23122.4 565.396   2
   4  10  -8 1046.97 163.859   1
  -4  10   8 1516.29 185.603   1
   4 -10  -8 1218.74 156.299   2
  -4  10   8 1050.53 159.399   2
   4 -10  -7 516.245 124.225   2
  -4  10   7 569.274 129.047   2
  -4  10   7 822.108 161.412   1
  -4  10   6 43.7752 99.8918   2
  -4  10   6 64.1849 117.598   1
   4  10  -6 29.6064 61.4191   3
   4 -10  -6 101.596 92.3347   2
   4 -10  -5 2183.70 159.961   2
   4  10  -5 2141.43 105.465   3
  -4  10   5 2027.45 162.105   2
   4 -10  -4 3648.08 180.196   2
  -4  10   4 3675.22 187.910   2
   4  10  -4 3052.92 100.611   3
   4 -10  -3 30185.5 447.782   2
  -4  10   3 30335.9 456.304   2
  -4  10   2 508.052 85.7681   2
   4 -10  -2 689.108 116.427   3
   4 -10  -1 15109.4 352.403   3
  -4  10   1 15618.2 272.219   2
   4 -10   0 1683.56 144.671   3
  -4  10   0 1859.02 96.3596   2
   4 -10   1 2714.71 176.146   3
  -4  10  -1 2858.97 94.2204   2
   4  10   2 869.554 147.899   2
  -4  10  -2 602.770 37.2517   2
   4 -10   2 791.805 123.359   3
  -4  10  -3 35618.5 583.575   3
   4  10   3 35365.3 642.547   2
   4 -10   3 34926.0 594.754   3
   4  10   4 5078.88 275.432   2
  -4  10  -4 5362.11 247.613   3
   4  10   5 1715.06 151.904   1
   4  10   5 1572.31 188.835   2
  -4  10  -5 1682.42 160.500   3
  -4  10  -6 1067.99 143.963   3
   4  10   6 966.846 167.614   2
   4  10   6 1096.56 145.429   1
   4  10   7 4681.25 292.160   2
  -4  10  -7 3154.70 82.4724   2
   4  10   7 4377.29 227.077   1
  -4  10  -8 928.489 63.8667   2
   4  10   8 963.086 186.934   2
   4  10   8 631.342 134.936   1
   4  10   9 467.710 126.334   1
   4  10   9 178.388 149.622   2
  -4  10  -9 186.316 48.4473   2
  -4  10  -9 333.280 122.643   1
   4  10  10 170.782 113.521   1
   4  10  10 257.984 168.779   2
  -4  10 -10 73.9712 50.6366   2
  -4  10 -10 11.3133 117.656   1
   4  10  11 283.444 176.015   2
   4  10  11 124.119 114.893   1
  -4  10 -11 275.573 125.652   1
   4  10  12 834.971 204.573   2
  -4  10 -12 764.674 153.886   1
   4  10  13 703.498 205.171   2
  -4  10 -13 565.859 149.894   1
   4  10  14 1933.83 274.804   2
  -4  10 -14 2020.36 225.787   1
   4  10  15 4668.20 386.876   2
  -4  10 -15 5040.78 337.875   1
   4  12 -17 1130.26 248.457   1
  -4  12  17 998.142 240.485   2
   4  12 -16 331.159 194.731   1
  -4  12  16 225.988 180.101   2
   4  12 -15 528.285 193.206   1
  -4  12  15 698.123 203.290   2
   4  12 -14 13121.7 534.982   1
  -4  12  14 13665.6 564.229   2
  -4  12  13 1197.94 221.382   2
   4  12 -13 1137.31 208.981   1
   4  12 -12 2400.16 254.586   1
  -4  12  12 2404.03 259.824   2
   4  12 -11 1911.43 180.974   3
   4  12 -11 2256.65 245.286   1
  -4  12  11 2058.26 239.549   2
   4  12 -10 23.4687 95.3769   3
   4  12 -10-60.1093 151.010   1
  -4  12  10 162.950 143.884   2
   4  12  -9 7021.84 352.832   1
   4  12  -9 6699.17 263.902   3
  -4  12   9 7111.11 347.024   2
   4 -12  -8 16109.8 475.086   2
   4  12  -8 15822.0 364.832   3
  -4  12   8 16669.0 487.303   2
  -4  12   7 964.083 154.341   2
   4  12  -7 886.286 104.340   3
   4 -12  -7 847.857 140.639   2
   4 -12  -6 8343.55 315.957   2
  -4  12   6 8855.62 368.529   1
   4  12  -6 7736.33 212.734   3
  -4  12   6 8410.29 323.428   2
  -4  12   5 230.638 110.003   2
   4 -12  -5 269.324 99.2258   2
   4  12  -5 54.8645 54.1926   3
  -4  12   4 13199.7 351.773   2
  -4  12   3 903.229 116.429   2
   4 -12  -2 19266.6 416.419   3
  -4  12   2 20235.1 378.883   2
  -4  12   1 465.848 86.3235   2
   4 -12  -1 317.411 101.219   3
   4 -12   0 28329.8 512.657   3
  -4  12   0 30127.3 388.300   2
   4  12   1 1352.08 167.254   2
   4 -12   1 1340.84 142.236   3
  -4  12  -1 1397.15 88.9278   2
  -4  12  -2 9053.36 165.211   2
   4  12   2 9557.31 362.521   2
   4 -12   2 9738.52 322.541   3
   4  12   3 7093.46 327.384   2
   4 -12   3 7734.45 305.266   3
  -4  12  -3 5542.43 102.188   2
  -4  12  -4 22131.5 502.952   3
   4  12   4 22840.4 574.132   2
  -4  12  -5 121.906 104.157   3
   4  12   5 61.7968 129.971   2
   4  12   6 15971.9 513.149   2
   4  12   6 16191.3 433.968   1
   4  12   7 252.503 129.894   1
   4  12   7-13.7497 150.502   2
   4  12   8 3180.41 282.086   2
   4  12   8 2913.78 220.073   1
   4  12   9 2192.82 203.807   1
   4  12   9 2357.57 266.312   2
   4  12  10 3489.64 305.925   2
  -4  12 -10 3186.62 253.537   1
   4  12  10 3215.17 236.452   1
   4  12  11 232.137 171.985   2
  -4  12 -11 152.540 121.938   1
  -4  12 -12 2107.16 228.519   1
   4  12  12 2365.96 284.424   2
  -4  12 -13-191.528 161.832   1
   4  12  13 71.0579 174.029   2
  -4  12 -14 3188.93 283.187   1
   4  12  14 3316.79 352.143   2
   4  14 -16 476.204 216.872   1
  -4  14  16 545.584 219.161   2
   4  14 -15 3347.46 328.083   1
  -4  14  15 3127.57 322.032   2
  -4  14  14 996.347 227.574   2
   4  14 -14 940.895 221.368   1
   4  14 -13 297.723 183.042   1
  -4  14  13 381.940 186.337   2
   4  14 -12 3908.79 320.477   1
  -4  14  12 3801.21 316.773   2
   4  14 -11 7729.93 417.897   1
   4  14 -11 6795.38 305.492   3
  -4  14  11 7527.26 406.379   2
   4  14 -10 98.0052 98.2589   3
   4  14 -10-110.533 162.236   1
  -4  14  10-76.9582 145.043   2
  -4  14   9 5051.15 316.644   2
   4  14  -9 4876.71 226.517   3
   4  14  -8 4724.85 210.855   3
  -4  14   8 5126.42 304.324   2
  -4  14   7 46.9406 123.177   2
   4 -14  -7 159.701 117.437   2
   4  14  -7 36.9038 74.1651   3
   4  14  -6 1886.99 118.463   3
  -4  14   6 2074.25 194.839   2
  -4  14   5 14953.8 426.505   2
  -4  14   4 1956.18 170.558   2
   4 -14  -3 34414.1 580.167   3
  -4  14   3 36693.2 585.076   2
   4 -14  -2 34.2420 91.8852   3
  -4  14   2 16.8165 84.5840   2
  -4  14   1 4987.64 204.030   2
   4 -14  -1 4722.76 230.780   3
   4 -14   0 1538.90 150.136   3
   4  14   0 1887.74 193.919   2
  -4  14   0 1923.85 130.663   2
  -4  14  -1 167.531 68.8720   2
   4 -14   1 100.770 102.702   3
   4  14   1 54.9728 124.456   2
   4  14   2 7742.64 351.762   2
   4 -14   2 7822.53 309.003   3
  -4  14  -2 7552.77 182.891   2
   4 -14   3 30862.4 606.840   3
  -4  14  -3 26645.9 284.930   2
   4  14   3 30543.3 685.134   2
   4  14   4 3647.26 271.217   2
  -4  14  -4 2318.48 63.8103   2
   4  14   5 0.46400 144.602   2
   4  14   6 1085.49 171.955   1
   4  14   6 1015.96 196.665   2
   4  14   7 192.652 161.109   2
   4  14   7 264.378 141.151   1
   4  14   8 69.0042 157.925   2
   4  14   9 7828.48 431.940   2
   4  14  10 180.441 176.084   2
  -4  14 -10-282.186 175.689   1
   4  14  11 3531.74 336.543   2
  -4  14 -11 3049.36 275.279   1
   4  14  12 1466.69 265.082   2
  -4  14 -12 1503.44 223.312   1
  -4  16  14 2873.16 320.251   2
   4  16 -14 2971.49 324.314   1
  -4  16  13 53.1165 169.191   2
   4  16 -13 48.4771 177.445   1
   4  16 -12 3680.75 333.775   1
  -4  16  12 3672.60 324.415   2
   4  16 -11 3229.71 314.752   1
  -4  16  11 2995.25 293.452   2
   4  16 -10 418.604 179.850   1
  -4  16  10 512.971 174.381   2
  -4  16   9 1874.86 230.026   2
   4  16  -8 4571.53 205.282   3
  -4  16   8 4471.81 304.479   2
  -4  16   7 163.758 132.380   2
   4  16  -7 545.948 99.6408   3
  -4  16   6 4153.21 267.404   2
  -4  16   5 2821.87 219.707   2
   4 -16  -4 1962.37 178.632   3
  -4  16   4 1849.09 183.821   2
   4 -16  -3 2504.24 190.723   3
  -4  16   3 2751.05 198.592   2
   4 -16  -2 1915.02 172.131   3
  -4  16   2 2266.87 174.022   2
   4 -16  -1 3439.17 212.758   3
   4  16  -1 3723.66 260.988   2
  -4  16   1 3945.44 202.847   2
   4 -16   0 7217.04 301.519   3
   4  16   0 7374.57 349.278   2
  -4  16   0 7675.95 251.424   2
   4  16   1 2169.86 226.100   2
   4 -16   1 1976.40 181.689   3
  -4  16  -1 2312.19 141.880   2
  -4  16  -2 43.9343 61.6459   2
   4 -16   2-86.6171 116.667   3
   4  16   2 62.3719 140.862   2
  -4  16  -3 424.221 63.2957   2
   4  16   3 478.021 158.300   2
  -4  16  -4 141.248 35.4997   2
   4  16   4 111.156 144.052   2
   4  16   5 866.306 198.718   2
   4  16   6 9746.34 457.805   2
   4  16   7 1283.16 226.122   2
   4  16   8 1713.90 250.050   2
   4  16   9 543.793 198.988   2
   4  16  10 387.131 198.118   2
   4  16  11 881.725 228.616   2
  -4  16 -11 636.685 179.506   1
   4  18 -12 2559.81 311.615   1
  -4  18  12 2820.41 307.334   2
   4  18 -11 6335.63 427.085   1
  -4  18  11 5982.60 399.234   2
   4  18 -10 102.411 172.938   1
  -4  18  10-75.2823 162.389   2
  -4  18   9 5602.61 360.922   2
  -4  18   8 1191.00 201.672   2
  -4  18   7 97.0868 135.606   2
  -4  18   6 3198.31 261.387   2
  -4  18   5 3785.31 262.434   2
   4 -18  -5 3797.96 235.640   3
  -4  18   4 39.4986 116.914   2
   4 -18  -4 110.148 103.342   3
   4 -18  -3 9966.64 350.019   3
  -4  18   3 10835.6 373.382   2
  -4  18   2 440.704 120.380   2
   4  18  -2 372.789 150.990   2
   4 -18  -2 134.254 106.781   3
  -4  18   1 818.941 129.503   2
   4  18  -1 749.096 170.055   2
   4 -18  -1 781.352 137.898   3
   4  18   0 4496.42 305.386   2
   4 -18   0 4379.62 252.776   3
  -4  18   0 4886.54 224.616   2
   4  18   1 3972.93 293.432   2
   4 -18   1 3862.81 243.567   3
  -4  18  -1 4375.33 196.323   2
  -4  18  -2 170.286 75.9819   2
   4  18   2 86.7869 153.520   2
   4  18   3 1825.69 233.511   2
   4  18   4 1293.87 212.991   2
   4  18   5 6598.22 399.822   2
   4  18   6 3291.91 313.205   2
   4  18   7 300.889 189.549   2
   4  18   8 122.249 177.481   2
   4  18   9 4325.95 377.056   2
  -4  20   9 1357.93 232.393   2
  -4  20   8-128.016 165.796   2
   4 -20  -7 447.430 141.739   3
  -4  20   7 61.5844 151.145   2
   4 -20  -6 3366.20 232.139   3
  -4  20   6 3834.94 290.351   2
  -4  20   5 322.925 147.052   2
   4 -20  -5 241.596 114.318   3
  -4  20   4 28.1121 126.783   2
   4  20  -4 50.1469 140.248   2
   4 -20  -4-67.8374 118.401   3
   4 -20  -3 1452.53 166.956   3
  -4  20   3 1893.74 197.862   2
   4  20  -3 1650.64 215.553   2
  -4  20   2 748.643 148.708   2
   4  20  -2 870.836 180.009   2
   4 -20  -2 638.320 129.593   3
   4  20  -1 1163.06 203.377   2
   4 -20  -1 1144.83 154.710   3
  -4  20   1 1388.72 161.725   2
   4  20   0 1296.21 210.477   2
   4 -20   0 1195.80 161.777   3
   4  20   1 1469.11 223.134   2
   4  20   2 74.5207 160.177   2
   4  20   3 2299.36 283.267   2
   4  20   4 531.498 199.979   2
   4  20   5 5.28383 173.182   2
   4  20   6 2015.54 273.226   2
   4  22  -4-132.236 155.542   2
   4  22  -3 1988.89 242.689   2
   4  22  -2 1679.49 234.116   2
   4  22  -1 1531.31 229.611   2
   4  22   0 1205.85 218.937   2
   5  -1 -20 272.508 209.828   1
   5   1 -20 862.528 242.632   1
   5  -1 -19 2269.31 290.382   1
   5   1 -19 2749.44 308.353   1
   5   1 -18 583.053 209.719   1
   5  -1 -18 463.536 205.173   1
   5  -1 -17 3199.36 304.166   1
   5   1 -17 2903.50 282.768   1
   5   1 -16 9349.52 429.068   1
   5  -1 -16 9542.48 438.988   1
   5   1 -15 2287.56 243.912   1
   5  -1 -15 2451.10 253.967   1
   5   1 -14 3290.47 259.080   1
   5  -1 -14 3689.07 279.796   1
  -5   1  13 4620.38 269.649   1
   5   1 -13 4839.34 285.983   1
  -5  -1  13 4543.92 267.793   1
   5  -1 -13 4748.43 287.524   1
   5   1 -13 4274.32 269.901   2
   5  -1 -12 668.946 145.196   2
  -5  -1  12 653.497 138.776   1
  -5   1  12 764.211 143.269   1
   5  -1 -12 991.514 178.495   1
   5   1 -12 748.797 147.622   2
   5   1 -12 645.380 154.973   1
   5   1 -11 24499.9 541.043   1
   5  -1 -11 24837.0 541.387   1
  -5  -1  11 24678.7 529.364   1
   5  -1 -11 25377.7 558.387   2
   5   1 -11 25622.7 559.089   2
  -5   1  11 25148.5 540.291   1
  -5   1  10 15073.0 404.501   1
   5   1 -10 14918.2 414.081   1
   5  -1 -10 15324.2 416.915   1
   5   1 -10 15185.2 414.777   2
  -5  -1  10 15290.6 407.552   1
   5  -1 -10 15381.4 424.356   2
  -5  -1   9 602.758 122.833   1
   5  -1  -9 896.375 154.085   1
   5   1  -9 369.275 131.910   1
  -5   1   9 696.151 136.464   1
   5  -1  -9 438.688 121.635   2
  -5  -1   8 212.625 103.045   1
  -5   1   8 432.508 115.229   1
   5  -1  -8 500.012 145.633   1
   5   1  -8 141.888 115.985   1
   5  -1  -8 266.455 108.460   2
   5  -1  -7 2337.26 176.007   1
  -5   1   7 1925.13 144.577   1
   5   1  -7 1942.95 155.358   1
  -5  -1   7 2098.09 153.478   1
   5   1  -6 4171.78 193.186   1
  -5   1   6 4473.11 196.000   1
   5  -1  -6 4834.08 211.442   1
  -5  -1   6 4435.14 192.259   1
   5   1  -5 36281.8 465.474   1
  -5   1   5 35414.0 461.863   1
   5  -1  -5 35327.6 464.619   1
  -5  -1   5 36154.5 456.610   1
   5  -1  -4 42583.4 479.597   1
   5   1  -4 40848.1 454.181   1
  -5   1   4 43063.2 465.887   1
  -5  -1   4 41714.7 449.949   1
   5   1  -3 112516. 659.055   1
  -5  -1   3 111631. 655.137   1
  -5   1   3 108902. 672.145   1
   5   1  -2 71644.1 462.745   1
   5  -1  -2 71399.1 497.259   1
  -5  -1   2 71554.4 459.484   1
  -5   1   1 42109.6 342.504   1
   5   1  -1 42047.2 292.865   1
   5   1  -1 42507.9 406.630   3
   5  -1  -1 42911.2 453.148   3
  -5  -1   1 41380.5 290.807   1
  -5   1   0 3877.90 104.599   1
   5  -1   0 3643.78 169.618   3
   5   1   0 3399.33 146.759   3
  -5  -1   0 3528.75 141.669   3
  -5   1   0 3608.02 155.123   3
   5  -1   1 31958.1 434.113   3
  -5  -1  -1 32104.9 393.557   3
  -5   1  -1 31527.6 422.671   3
   5   1   1 31950.5 399.573   3
  -5   1  -2 44476.7 531.588   3
   5  -1   2 43732.4 410.606   2
   5  -1   2 45618.7 550.158   3
  -5  -1  -2 43588.1 501.752   3
  -5   1  -3 31772.7 476.790   3
   5  -1   3 31716.2 376.875   2
   5   1   3 31512.1 432.741   2
  -5  -1  -3 31481.6 455.658   3
  -5   1  -3 31826.9 279.692   1
  -5  -1  -4 20457.8 204.387   1
   5  -1   4 22948.4 351.658   2
   5   1   4 22510.0 390.165   2
  -5   1  -4 22948.1 436.724   3
  -5  -1  -4 22390.6 413.505   3
  -5   1  -4 23044.1 263.345   1
   5  -1   5 7802.62 229.177   2
   5   1   5 7975.59 258.718   2
  -5   1  -5 8008.82 282.319   3
  -5  -1  -5 8022.00 273.228   3
  -5   1  -5 8215.48 184.752   1
  -5  -1  -5 7767.06 153.672   1
  -5   1  -6 2020.93 113.736   1
   5  -1   6 2017.31 139.395   2
   5   1   6 1963.43 157.509   2
  -5  -1  -6 1821.23 154.244   3
  -5   1  -6 1887.68 162.365   3
  -5  -1  -6 1755.01 91.8550   1
   5   1   7 6902.19 271.279   2
  -5   1  -7 6419.39 238.019   2
  -5   1  -7 6816.36 203.455   1
   5  -1   7 6411.10 238.466   2
  -5  -1  -7 6474.44 180.472   1
  -5   1  -7 6721.51 289.982   3
  -5  -1  -7 6836.89 287.390   3
  -5   1  -8 36561.8 479.358   1
  -5   1  -8 36455.1 679.856   3
  -5   1  -8 35575.1 565.434   2
  -5  -1  -8 35078.5 602.519   2
  -5  -1  -8 36084.5 663.263   3
   5  -1   8 35911.7 571.619   2
  -5  -1  -8 35159.0 448.644   1
   5   1   8 36088.3 613.661   2
   5  -1   9 49.2543 93.5546   2
  -5  -1  -9 135.867 97.7645   2
   5   1   9 112.382 113.452   2
  -5  -1  -9 14.6135 89.8271   1
  -5   1  -9 86.9961 94.3587   2
  -5   1  -9 126.731 86.4307   1
  -5  -1 -10 8195.78 265.112   1
  -5  -1 -10 8932.21 346.078   2
  -5   1 -10 9097.07 276.700   1
  -5   1 -10 9185.21 329.588   2
   5  -1  10 9071.06 333.722   2
   5   1  10 8726.54 347.188   2
  -5   1 -11 2264.54 159.752   1
  -5  -1 -11 1995.76 156.993   1
  -5   1 -11 2461.92 202.392   2
   5   1  11 2558.32 218.244   2
   5  -1  11 2500.75 209.922   2
  -5  -1 -12 501.237 120.901   1
  -5   1 -12 655.958 120.984   1
  -5   1 -12 725.251 143.605   2
   5  -1  12 785.239 154.632   2
   5   1  12 733.554 167.571   2
  -5  -1 -13 9664.09 335.375   1
  -5   1 -13 10397.1 347.065   1
   5  -1  13 10025.2 408.236   2
   5   1  13 10318.7 430.742   2
  -5   1 -14 2273.03 201.508   1
  -5  -1 -14 1906.30 192.110   1
   5  -1  14 2132.64 226.192   2
   5   1  14 1862.11 229.269   2
  -5  -1 -15 414.737 158.520   1
   5   1  15 428.937 165.302   2
   5   1  16 4825.33 349.132   2
   5   3 -20 277.252 211.922   1
   5  -3 -20-117.361 208.748   1
   5   3 -19 2912.61 302.386   1
   5  -3 -19 2153.00 296.542   1
   5   3 -18 1495.06 246.655   1
   5  -3 -18 1507.88 250.605   1
   5  -3 -17 5005.49 354.066   1
   5   3 -17 5174.21 350.320   1
   5   3 -16 1387.99 222.001   1
   5  -3 -16 1262.65 225.648   1
   5  -3 -15 2790.66 264.125   1
   5   3 -15 2803.05 259.641   1
   5  -3 -14-126.199 181.007   1
   5   3 -14 83.2358 158.903   1
   5  -3 -13 16943.6 507.292   1
   5   3 -13 16472.4 499.945   1
   5   3 -13 17229.9 501.509   2
  -5   3  12 5080.46 276.291   1
   5   3 -12 4356.56 267.820   1
   5  -3 -12 4592.07 277.050   1
  -5  -3  12 4685.01 268.383   1
   5   3 -12 4619.92 266.400   2
   5  -3 -12 4267.06 269.320   2
   5   3 -11 13809.5 417.092   1
  -5   3  11 13483.6 409.468   1
   5  -3 -11 13509.0 421.933   1
  -5  -3  11 14170.9 417.849   1
   5  -3 -11 13833.6 432.309   2
   5   3 -10 9113.85 336.450   1
   5  -3 -10 9246.36 336.952   1
  -5   3  10 9579.58 336.861   1
  -5  -3  10 9706.22 338.739   1
   5  -3 -10 9098.15 338.131   2
   5   3  -9 1158.36 163.820   1
  -5  -3   9 1061.69 144.374   1
   5  -3  -9 1177.97 169.801   1
   5  -3  -9 1081.43 148.428   2
  -5   3   9 1082.58 138.989   1
   5   3  -8 13760.5 364.737   1
  -5  -3   8 14296.6 366.582   1
   5  -3  -8 13829.2 372.592   1
  -5   3   8 13583.1 355.425   1
   5  -3  -8 13468.7 363.309   2
   5  -3  -7 2624.17 190.908   1
  -5   3   7 2671.17 177.740   1
  -5  -3   7 2453.08 166.288   1
   5  -3  -7 2320.77 170.079   2
   5   3  -7 2331.65 174.047   1
   5   3  -6 2122.81 154.057   1
   5  -3  -6 1925.55 163.309   1
  -5  -3   6 2036.06 146.508   1
  -5   3   6 1958.33 154.412   1
   5  -3  -6 1898.77 142.393   2
  -5  -3   5 1679.37 133.415   1
   5  -3  -5 1798.43 160.567   1
   5  -3  -5 1831.47 134.393   2
   5   3  -5 1718.75 143.984   1
  -5   3   5 2090.75 154.457   1
  -5  -3   4 87602.3 671.850   1
  -5   3   4 88584.8 718.494   1
   5  -3  -4 90589.9 730.954   1
   5   3  -4 86405.5 681.790   1
  -5   3   3 3523.50 165.355   1
   5   3  -3 2574.18 133.612   1
  -5   3   2 1017.57 111.923   1
   5   3  -2 686.504 81.3754   1
   5   3  -1 1128.15 78.4798   1
   5   3  -1 1278.23 86.3625   3
   5  -3  -1 1254.44 135.892   3
   5   3   0 534.226 53.5806   1
  -5  -3   0 607.778 74.1777   3
   5  -3   0 451.041 108.881   3
   5   3   0 562.660 76.9781   3
  -5   3  -1 35771.9 479.606   3
  -5  -3  -1 34289.2 377.699   3
   5  -3   1 35627.5 490.590   3
   5  -3   2 32514.4 281.770   2
  -5  -3  -2 32010.6 398.627   3
   5  -3   2 33207.5 490.982   3
  -5   3  -2 32996.5 483.105   3
   5  -3   3 14154.9 346.829   3
   5  -3   3 13819.4 209.172   2
  -5  -3  -3 13387.0 286.524   3
  -5   3  -3 14122.7 344.631   3
   5   3   3 14145.0 332.309   2
   5   3   4 11285.5 161.837   1
  -5   3  -4 11915.4 331.041   3
   5   3   4 12299.2 323.190   2
  -5  -3  -4 12184.2 298.899   3
   5  -3   4 11917.5 221.270   2
  -5   3  -5 16712.0 297.672   1
  -5   3  -5 16738.5 407.628   3
   5   3   5 16046.7 383.451   2
  -5  -3  -5 16253.9 367.147   3
   5   3   5 15941.7 219.075   1
   5  -3   5 16407.2 285.547   2
   5   3   6 22.5014 50.0364   1
   5   3   6-11.5361 104.587   2
   5  -3   6 15.3297 65.0815   2
  -5   3  -6 22.4282 68.6330   1
  -5   3  -6 53.8836 96.2057   3
   5   3   7 13504.8 388.439   2
   5   3   7 13249.2 247.112   1
  -5   3  -7 13910.2 415.833   3
  -5   3  -7 13391.0 302.010   2
  -5   3  -7 14104.8 311.579   1
  -5  -3  -7 13718.3 253.657   1
   5  -3   7 13857.6 312.220   2
   5   3   8 3009.48 215.607   2
  -5   3  -8 2957.52 170.056   1
  -5  -3  -8 3012.81 150.217   1
  -5   3  -8 2870.73 165.852   2
  -5   3  -8 2870.45 216.723   3
   5   3   8 2854.69 135.163   1
   5  -3   8 2986.57 172.122   2
   5   3   9 8245.20 339.174   2
  -5  -3  -9 7971.01 238.992   1
  -5   3  -9 8175.15 276.755   2
   5  -3   9 8207.53 281.806   2
   5   3   9 7895.23 229.055   1
  -5   3  -9 8127.73 271.837   1
  -5   3 -10 6205.19 257.160   1
  -5  -3 -10 6103.47 232.332   1
  -5   3 -10 5882.04 254.241   2
   5   3  10 6131.33 219.661   1
   5  -3  10 6055.45 262.596   2
   5   3  10 6030.66 310.522   2
  -5   3 -11 25011.3 510.285   1
  -5   3 -11 23995.3 515.313   2
   5   3  11 23232.9 437.861   1
   5   3  11 24127.6 611.875   2
  -5  -3 -11 23352.7 448.181   1
   5   3  12 11.3703 135.210   2
  -5   3 -12 36.4436 103.144   2
   5   3  12-17.4732 82.4331   1
  -5   3 -12-55.9728 113.447   1
  -5  -3 -12 183.624 125.120   1
  -5  -3 -13 11797.1 363.555   1
  -5   3 -13 12696.5 394.879   1
  -5   3 -13 12009.2 413.344   2
   5   3  13 11494.0 469.159   2
  -5  -3 -14 4747.43 259.339   1
   5   3  14 4786.71 331.800   2
  -5   3 -14 4286.40 251.502   1
  -5   3 -15 1494.98 181.529   1
   5   3  15 1423.51 234.144   2
   5   3  16 1971.44 268.607   2
   5   5 -20 228.805 202.335   1
   5  -5 -20 301.925 224.759   1
   5  -5 -19 663.122 232.358   1
   5   5 -19 589.313 207.361   1
   5   5 -18-169.442 195.620   1
   5  -5 -18 200.356 199.776   1
   5   5 -17 212.545 178.393   1
   5  -5 -17 781.925 219.115   1
   5   5 -16 3135.43 287.384   1
   5  -5 -16 3838.61 316.695   1
   5   5 -15 893.940 190.598   1
   5  -5 -15 1383.20 228.632   1
   5   5 -14 16323.7 529.847   1
   5  -5 -14 15768.9 524.153   1
   5   5 -13 16427.4 514.058   1
   5   5 -13 15954.3 486.934   2
   5  -5 -13 16237.1 511.303   1
   5   5 -12 8821.74 370.787   1
   5  -5 -12 9047.42 380.013   1
  -5   5  12 9032.54 363.853   1
  -5   5  11 4908.22 265.134   1
   5  -5 -11 5008.00 287.679   1
   5   5 -11 4958.67 276.175   1
   5  -5 -11 4732.35 273.025   2
  -5   5  10 20101.0 486.347   1
   5  -5 -10 20028.4 501.349   1
   5   5 -10 19308.9 488.128   1
   5  -5 -10 19769.6 494.073   2
   5  -5  -9 83.9494 98.0599   2
   5   5  -9 228.933 122.085   1
  -5   5   9 223.989 115.636   1
   5  -5  -9 293.558 144.135   1
   5  -5  -8 21346.8 472.384   1
   5   5  -8 21178.5 465.804   1
  -5   5   8 21554.0 464.914   1
   5  -5  -8 21560.2 463.380   2
  -5   5   7 45679.1 651.806   1
   5  -5  -7 44734.4 642.505   1
   5  -5  -7 44325.9 624.298   2
   5   5  -7 42369.1 611.719   1
  -5   5   6 1484.57 150.830   1
   5  -5  -6 1648.60 167.827   1
   5  -5  -6 1200.14 130.897   2
   5   5  -6 964.562 134.881   1
  -5   5   5 1744.36 157.205   1
   5  -5  -5 1787.83 132.001   2
   5   5  -5 1959.06 147.136   1
   5   5  -4 877.240 115.165   1
   5  -5  -4 1070.22 103.153   2
  -5   5   4 1098.63 135.402   1
   5   5  -3 69.5680 83.9154   1
  -5   5   3 120.608 100.966   1
   5  -5  -3 115.786 64.2819   2
   5  -5  -2 22749.5 282.000   2
   5   5  -1 21942.7 211.132   3
   5  -5  -1 23794.4 402.479   3
   5  -5  -1 23219.9 238.269   2
  -5  -5   0 668.631 63.0177   3
   5  -5   0 467.814 113.896   3
   5  -5   0 404.442 34.1394   2
  -5   5  -1 3511.38 180.886   3
   5  -5   1 3203.31 180.370   3
  -5  -5  -1 3298.10 115.135   3
  -5   5  -2 7942.37 258.664   3
   5  -5   2 7859.84 267.672   3
  -5  -5  -2 7649.31 189.066   3
   5   5   3 1900.96 163.007   2
   5   5   3 1986.60 100.655   1
  -5   5  -3 1985.40 157.019   3
   5  -5   3 1724.77 155.306   3
  -5  -5  -3 1863.44 115.234   3
   5   5   4 9781.35 194.167   1
   5   5   4 9571.99 312.426   2
  -5   5  -4 9895.49 314.985   3
  -5  -5  -4 9512.41 254.722   3
   5   5   5 159.899 63.4888   1
   5   5   5 153.713 114.333   2
  -5   5  -5 62.6919 102.609   3
   5   5   6 571.772 131.539   2
  -5   5  -6 372.773 113.779   3
   5   5   6 282.657 63.0807   1
   5   5   7 14461.7 423.221   2
   5   5   7 14567.8 278.585   1
  -5   5  -7 14753.9 280.053   2
  -5   5  -7 14946.5 442.635   3
  -5   5  -7 14908.3 351.953   1
   5   5   8 4093.32 255.122   2
  -5   5  -8 4058.68 171.740   2
  -5   5  -8 3877.75 202.527   1
   5   5   8 4100.04 165.828   1
  -5   5  -9 8.70799 93.9824   1
   5   5   9-2.66178 127.269   2
   5   5   9 29.6137 70.6886   1
  -5   5  -9 91.4177 78.7284   2
   5   5  10 16105.6 511.799   2
  -5   5 -10 16163.0 374.609   2
   5   5  10 16126.4 356.347   1
  -5   5 -10 16930.8 432.850   1
   5   5  11 4184.50 200.368   1
  -5   5 -11 4366.79 220.980   2
  -5   5 -11 4440.34 249.694   1
   5   5  11 4178.41 288.240   2
  -5   5 -12 2100.89 196.233   1
   5   5  12 1951.47 230.731   2
  -5   5 -12 2217.19 182.283   2
   5   5  12 1877.80 154.203   1
  -5   5 -13 8475.90 351.168   1
   5   5  13 9055.32 441.401   2
  -5   5 -14 11407.3 418.930   1
   5   5  14 11391.7 502.941   2
  -5   5 -15-243.849 152.063   1
   5   5  15 113.070 171.264   2
   5  -7 -19 1990.82 287.545   1
   5   7 -19 1732.64 273.772   1
   5   7 -18 25.7426 192.646   1
   5  -7 -18 304.059 203.923   1
   5   7 -17 621.900 198.503   1
   5  -7 -17 570.046 208.302   1
   5  -7 -16 1001.71 227.184   1
   5   7 -16 1066.61 221.814   1
   5   7 -15 2984.19 281.855   1
   5  -7 -15 3057.05 288.782   1
   5   7 -14 1193.08 200.551   1
   5  -7 -14 1073.54 207.682   1
   5   7 -13 25868.2 652.362   1
   5  -7 -13 25762.8 644.117   1
   5  -7 -12 3749.47 275.172   1
  -5   7  12 3348.50 259.737   2
   5   7 -12 3508.46 264.489   1
   5  -7 -11 6218.91 314.153   2
   5  -7 -11 6126.97 316.971   1
  -5   7  11 6309.97 313.415   1
  -5   7  11 6276.85 321.320   2
   5   7 -11 6574.92 321.577   1
   5  -7 -10 6035.24 297.023   2
   5   7 -10 5639.62 291.994   1
   5  -7 -10 5821.30 299.698   1
  -5   7  10 5893.71 297.061   2
  -5   7  10 6073.34 294.207   1
   5  -7  -9 184.241 105.885   2
  -5   7   9 145.139 119.220   2
  -5   7   9 459.796 140.966   1
   5   7  -9 145.610 114.690   1
  -5   7   8 242.151 118.127   2
  -5   7   8 215.457 116.928   1
   5  -7  -8 235.723 107.502   2
   5   7  -8 171.129 113.342   1
  -5   7   7 26849.8 532.286   1
   5  -7  -7 25474.5 496.707   2
   5   7  -7 25470.3 513.206   1
  -5   7   7 25782.9 497.346   2
   5  -7  -6 11923.7 326.785   2
   5   7  -6 11417.0 334.499   1
  -5   7   6 12808.2 367.742   1
  -5   7   6 12109.4 329.263   2
   5  -7  -5 37643.1 518.366   2
  -5   7   5 38380.8 593.764   1
   5   7  -5 37474.1 559.265   1
  -5   7   5 38502.0 528.682   2
   5  -7  -4 19308.8 344.405   2
  -5   7   4 19187.7 350.121   2
  -5   7   4 19221.1 409.971   1
   5  -7  -3 3332.67 140.894   2
   5  -7  -2 10603.9 206.521   2
   5  -7  -1 29650.0 472.858   3
   5  -7  -1 28018.3 275.519   2
   5  -7   0 3768.27 191.083   3
  -5  -7  -1 2980.76 93.9116   3
   5  -7   1 2855.53 175.680   3
   5  -7   2 287.394 107.097   3
  -5  -7  -2 287.527 55.7057   3
  -5   7  -2 501.327 114.018   3
   5   7   3 4673.75 238.151   2
  -5  -7  -3 4933.58 162.697   3
  -5   7  -3 5237.28 231.882   3
   5  -7   3 4850.58 239.369   3
   5   7   4 10077.5 241.854   1
   5   7   4 9932.88 340.416   2
  -5   7  -4 10387.6 331.860   3
   5   7   5 7311.50 312.088   2
   5   7   5 6995.79 213.282   1
  -5   7  -5 7567.86 300.163   3
   5   7   6 1616.14 176.151   2
  -5   7  -6 1502.24 161.395   3
   5   7   6 1903.79 131.195   1
   5   7   7 25680.7 598.485   2
   5   7   7 25394.9 413.989   1
  -5   7  -7 26484.8 596.028   3
   5   7   8 808.519 163.828   2
  -5   7  -8 946.589 86.8568   2
  -5   7  -8 859.769 133.800   1
   5   7   8 712.112 100.921   1
  -5   7  -9 294.446 81.8446   2
   5   7   9 48.8343 134.317   2
  -5   7  -9 152.877 111.606   1
   5   7   9-96.4605 96.1744   1
   5   7  10 5374.25 328.168   2
   5   7  10 5359.20 228.689   1
  -5   7 -10 5306.51 203.704   2
  -5   7 -10 5710.46 283.036   1
  -5   7 -11 18450.1 497.139   1
  -5   7 -11 17568.0 379.246   2
   5   7  11 17626.2 583.291   2
   5   7  11 17341.2 405.502   1
   5   7  12 6.91578 154.003   2
  -5   7 -12 99.2565 123.822   1
   5   7  13 17683.4 620.581   2
  -5   7 -13 18530.2 536.105   1
  -5   7 -14 554.836 143.912   1
   5   7  14 906.451 215.533   2
  -5   7 -15-169.736 170.985   1
   5   7  15-8.45220 175.226   2
   5   9 -19 1712.15 281.927   1
   5   9 -18 3223.24 333.840   1
   5   9 -17 111.327 189.874   1
   5   9 -16 1599.29 245.366   1
   5   9 -15 2486.59 269.524   1
   5   9 -14 563.069 184.262   1
  -5   9  14 391.919 172.295   2
   5   9 -13-17.2256 152.934   1
  -5   9  13 138.071 151.407   2
   5   9 -12 263.550 150.986   1
  -5   9  12 197.173 148.453   2
   5   9 -11 598.218 160.162   1
  -5   9  11 613.456 162.792   2
   5  -9 -10 31399.3 663.159   2
   5   9 -10 29871.6 653.198   1
  -5   9  10 31668.0 669.079   2
   5  -9  -9 10913.6 384.554   2
  -5   9   9 11430.4 403.304   1
   5   9  -9 11050.3 396.122   1
  -5   9   9 11446.0 397.511   2
  -5   9   8 368.695 126.711   2
   5  -9  -8 297.780 109.752   2
   5   9  -8 291.586 134.357   1
  -5   9   8 428.681 139.668   1
   5  -9  -7 10110.0 331.523   2
  -5   9   7 10595.2 369.653   1
   5   9  -7 10145.5 353.274   1
  -5   9   7 10159.5 339.653   2
  -5   9   6 256.863 121.817   1
   5  -9  -6 296.147 92.3936   2
  -5   9   6 261.377 104.032   2
   5  -9  -5 1293.14 122.511   2
  -5   9   5 1303.22 160.481   1
  -5   9   5 1304.00 134.250   2
   5  -9  -4 14164.9 315.794   2
  -5   9   4 14047.5 325.600   2
  -5   9   3 300.427 82.9302   2
   5  -9  -3 343.164 75.7801   2
   5  -9  -2 34928.8 398.371   2
   5  -9  -2 34506.5 534.115   3
  -5   9   2 35964.9 418.602   2
   5  -9  -1 11532.8 321.827   3
  -5   9   1 11828.5 212.744   2
   5  -9   0 1061.46 131.649   3
  -5  -9  -1 860.887 42.4063   3
   5  -9   1 877.691 125.769   3
  -5   9  -2 25906.8 489.631   3
   5  -9   2 25749.7 505.288   3
  -5  -9  -2 24994.2 273.158   3
   5   9   2 25362.0 534.416   2
   5   9   3 175.754 121.761   2
  -5  -9  -3 197.777 55.0352   3
   5  -9   3 245.511 113.118   3
  -5   9  -3 305.502 96.5751   3
   5   9   4 3810.45 239.458   2
  -5   9  -4 4193.97 227.304   3
   5   9   5 9543.03 373.685   2
  -5   9  -5 9981.90 351.178   3
   5   9   5 9325.18 276.424   1
  -5   9  -6 143.968 95.3071   3
   5   9   6 87.8327 136.494   2
   5   9   6 195.095 94.9173   1
   5   9   7 6683.60 249.441   1
   5   9   7 7139.05 347.417   2
   5   9   8 1043.63 183.121   2
   5   9   8 1229.76 140.897   1
   5   9   9 378.402 104.988   1
   5   9   9 372.321 159.688   2
  -5   9  -9 620.510 142.996   1
   5   9  10 6192.00 366.427   2
   5   9  10 5732.97 257.181   1
  -5   9 -10 5866.92 181.780   2
  -5   9 -10 6663.29 318.200   1
   5   9  11 695.717 191.692   2
   5   9  11 394.771 113.919   1
  -5   9 -11 758.047 162.876   1
  -5   9 -12 2801.47 241.791   1
   5   9  12 2449.71 272.448   2
   5   9  13-63.2036 166.268   2
  -5   9 -13-60.3411 137.803   1
  -5   9 -14 2588.70 245.222   1
   5   9  14 2636.73 305.031   2
   5  11 -18 133.521 195.489   1
   5  11 -17 4724.93 376.050   1
   5  11 -16 1440.71 245.899   1
  -5  11  16 1423.41 246.867   2
   5  11 -15 4652.52 351.984   1
  -5  11  15 4382.02 349.609   2
   5  11 -14 702.019 193.501   1
  -5  11  14 796.172 203.858   2
   5  11 -13 8179.61 412.714   1
  -5  11  13 8357.20 421.064   2
   5  11 -12 1502.45 212.969   1
  -5  11  12 1371.09 214.281   2
  -5  11  11 209.410 143.811   2
   5  11 -11 179.762 145.353   1
   5  11 -10 125.292 142.120   1
  -5  11  10 196.417 139.900   2
   5 -11  -9 3284.63 236.424   2
   5  11  -9 3168.55 252.520   1
  -5  11   9 3222.95 245.191   2
   5 -11  -8 232.488 113.055   2
   5  11  -8 126.666 128.917   1
  -5  11   8 176.684 120.945   2
  -5  11   7 4777.67 282.363   1
   5 -11  -7 4495.82 241.153   2
  -5  11   7 4420.31 248.810   2
  -5  11   6 661.374 154.833   1
   5 -11  -6 552.171 112.161   2
  -5  11   6 565.566 123.940   2
   5  11  -6 463.617 70.1672   3
   5 -11  -5 22328.0 446.412   2
   5  11  -5 20065.0 255.648   3
  -5  11   5 22721.1 458.947   2
   5 -11  -4 8728.84 268.199   2
  -5  11   4 9027.05 281.518   2
   5 -11  -3 463.069 84.4572   2
  -5  11   3 385.000 91.5063   2
   5 -11  -2 11259.8 331.973   3
  -5  11   2 11498.9 264.005   2
   5 -11  -1 36548.6 589.399   3
  -5  11   1 38567.6 423.413   2
   5 -11   0 122.252 103.260   3
  -5  11   0 300.691 55.8697   2
   5 -11   1 9777.67 326.695   3
   5 -11   2 8126.21 309.217   3
   5  11   2 8459.35 342.424   2
  -5 -11  -2 6697.19 123.094   3
  -5  11  -3 5130.10 249.603   3
   5  11   3 5026.00 283.128   2
   5 -11   3 5276.41 268.521   3
  -5 -11  -3 4931.33 139.213   3
  -5  11  -4 9114.38 336.993   3
   5  11   4 9101.99 371.441   2
   5  11   5 7809.02 363.805   2
   5  11   5 7849.25 287.893   1
  -5  11  -5 8394.15 336.458   3
   5  11   6-102.233 143.083   2
   5  11   6 116.846 110.888   1
   5  11   7 16411.8 542.516   2
   5  11   7 15868.5 414.873   1
   5  11   8 69.5854 150.258   2
   5  11   8-172.315 111.580   1
   5  11   9 369.190 121.559   1
   5  11   9 543.784 184.045   2
  -5  11  -9 338.159 133.334   1
   5  11  10 55.1117 109.218   1
   5  11  10 58.7643 161.346   2
  -5  11 -10 44.5181 118.365   1
   5  11  11 2728.67 290.942   2
  -5  11 -11 2469.08 231.267   1
   5  11  12 50.3783 170.512   2
  -5  11 -12-77.2802 129.979   1
   5  11  13 4100.83 355.012   2
  -5  11 -13 4237.10 304.863   1
   5  13 -17 320.450 214.726   1
   5  13 -16 4983.55 390.733   1
  -5  13  16 4811.37 388.822   2
   5  13 -15 1267.31 241.183   1
  -5  13  15 1320.57 245.385   2
   5  13 -14 1.46654 173.961   1
  -5  13  14 162.593 177.329   2
  -5  13  13 75.8809 164.213   2
   5  13 -13-223.785 180.977   1
   5  13 -12 1189.10 163.247   3
   5  13 -12 1438.75 228.522   1
  -5  13  12 1598.97 232.853   2
   5  13 -11 794.387 135.507   3
   5  13 -11 632.679 183.584   1
  -5  13  11 887.580 188.895   2
   5  13 -10 8286.84 302.844   3
  -5  13  10 8804.90 401.365   2
   5  13 -10 8833.63 418.377   1
   5  13  -9 212.601 90.3657   3
   5  13  -9 98.0154 140.896   1
  -5  13   9 367.078 142.031   2
   5 -13  -8 92.8550 117.018   2
   5  13  -8 90.4291 77.2837   3
  -5  13   8 178.588 131.244   2
   5  13  -7 974.786 97.8936   3
   5 -13  -7 1060.39 148.429   2
  -5  13   7 1085.76 159.340   2
   5  13  -6 2955.22 125.177   3
   5 -13  -6 3103.09 210.465   2
  -5  13   6 3164.02 220.521   2
   5 -13  -5 177.418 92.9037   2
  -5  13   5-5.32692 101.755   2
  -5  13   4 31280.6 541.407   2
   5 -13  -3 1329.89 156.456   3
  -5  13   3 1135.28 126.455   2
   5 -13  -2 2205.02 176.036   3
  -5  13   2 2201.52 143.631   2
   5 -13  -1 97.3887 104.138   3
  -5  13   1 192.263 74.4118   2
   5 -13   0 5476.12 256.613   3
  -5  13   0 6093.90 172.501   2
   5 -13   1 2298.73 190.294   3
   5  13   1 2263.56 212.765   2
  -5  13  -1 1982.71 89.7045   2
   5  13   2 38029.5 743.291   2
   5 -13   2 37671.9 673.954   3
   5  13   3-59.6713 139.007   2
  -5 -13  -3 90.0231 31.3007   3
   5 -13   3 48.1703 118.695   3
   5  13   4 10569.0 426.159   2
  -5 -13  -4 10722.2 219.251   3
   5  13   5 3951.23 289.737   2
   5  13   6 192.368 124.830   1
   5  13   6 244.588 155.584   2
   5  13   7 368.263 140.423   1
   5  13   7 255.791 166.884   2
   5  13   8 325.634 176.182   2
   5  13   8 122.784 124.614   1
   5  13   9 335.592 178.751   2
   5  13  10 8774.56 469.087   2
  -5  13 -10 8504.99 401.617   1
   5  13  11 134.754 185.381   2
  -5  13 -11-85.5315 134.509   1
   5  13  12 100.973 183.972   2
  -5  13 -12-90.9036 149.449   1
   5  15 -15 1026.64 241.660   1
  -5  15  15 1410.45 268.767   2
  -5  15  14 41.2488 171.805   2
   5  15 -14 175.600 187.712   1
   5  15 -13 10057.2 503.306   1
  -5  15  13 10201.4 496.181   2
   5  15 -12 141.736 170.972   1
  -5  15  12 267.317 176.418   2
   5  15 -11 1353.92 232.314   1
  -5  15  11 1102.07 200.744   2
   5  15 -10 160.961 92.8474   3
   5  15 -10 329.441 173.702   1
  -5  15  10 211.008 156.671   2
   5  15  -9 3983.01 308.354   1
   5  15  -9 3489.69 190.205   3
  -5  15   9 3837.37 285.177   2
   5  15  -8 1322.34 119.646   3
  -5  15   8 1267.93 183.383   2
  -5  15   7 2672.79 226.524   2
   5  15  -7 2481.15 131.415   3
  -5  15   6-29.1922 115.803   2
  -5  15   5 1057.10 147.884   2
   5 -15  -4 4333.00 243.748   3
  -5  15   4 4350.94 232.835   2
  -5  15   3-2.81866 95.9237   2
   5 -15  -3 211.173 118.625   3
  -5  15   2 22.8261 86.8147   2
   5 -15  -2-71.3413 114.551   3
   5 -15  -1 12202.9 385.152   3
  -5  15   1 13694.9 318.401   2
   5  15   0 203.589 136.087   2
   5 -15   0 242.707 111.467   3
  -5  15   0 375.431 83.7623   2
   5 -15   1 2690.40 211.720   3
   5  15   1 2691.01 238.938   2
  -5  15  -1 2738.85 119.256   2
   5  15   2 1766.15 213.183   2
  -5  15  -2 1549.94 72.7915   2
   5 -15   2 1691.09 182.662   3
   5 -15   3-177.853 135.796   3
   5  15   3 40.6524 138.048   2
   5  15   4 194.551 154.847   2
  -5 -15  -4 84.6584 32.7388   3
   5  15   5 1611.40 225.328   2
   5  15   6 519.496 180.983   2
   5  15   7 5155.82 359.329   2
   5  15   8 2373.94 275.968   2
   5  15   9 440.920 197.901   2
   5  15  10 237.586 192.964   2
   5  15  11 1509.37 258.983   2
  -5  15 -11 1280.30 209.715   1
   5  17 -13-104.201 203.291   1
  -5  17  13 162.679 188.088   2
   5  17 -12 3291.55 330.722   1
  -5  17  12 3615.11 332.581   2
   5  17 -11 894.318 221.312   1
  -5  17  11 807.158 203.550   2
   5  17 -10 6240.21 399.278   1
  -5  17  10 6434.48 382.503   2
  -5  17   9-37.1373 141.918   2
  -5  17   8 3604.17 276.854   2
  -5  17   7 1674.48 206.208   2
  -5  17   6 5286.13 301.283   2
  -5  17   5 49.2842 116.933   2
   5 -17  -5 249.396 129.677   3
  -5  17   4 9420.81 349.820   2
   5 -17  -4 9057.01 346.121   3
  -5  17   3 407.874 120.331   2
   5 -17  -3 261.804 117.111   3
   5 -17  -2 3299.72 225.811   3
  -5  17   2 3777.05 209.670   2
  -5  17   1 213.796 93.7194   2
   5 -17  -1 39.2342 120.548   3
   5  17  -1 356.165 152.328   2
   5 -17   0 1526.54 180.942   3
   5  17   0 1649.23 214.921   2
  -5  17   0 1615.96 129.066   2
   5  17   1 202.259 147.873   2
   5 -17   1 150.410 119.172   3
  -5  17  -1 222.276 69.5191   2
   5  17   2 6144.15 361.547   2
   5 -17   2 5924.29 311.619   3
  -5  17  -2 5222.83 147.097   2
   5  17   3 72.1680 156.668   2
   5  17   4 6150.13 377.291   2
   5  17   5 83.3088 160.448   2
   5  17   6 114.250 171.614   2
   5  17   7 713.218 205.903   2
   5  17   8 3639.71 340.561   2
   5  17   9-7.79023 175.508   2
   5  19 -11 3298.25 337.482   1
  -5  19  11 3254.26 314.772   2
   5  19 -10 227.249 184.964   1
  -5  19  10 276.407 173.509   2
  -5  19   9 1279.50 223.736   2
  -5  19   8-9.81180 145.426   2
  -5  19   7 3672.98 284.306   2
   5 -19  -6 682.454 156.213   3
  -5  19   6 352.085 142.700   2
   5 -19  -5 3069.31 228.227   3
  -5  19   5 3383.55 252.484   2
   5 -19  -4 1024.44 157.959   3
  -5  19   4 1277.61 168.906   2
  -5  19   3-38.3128 113.876   2
   5 -19  -3-158.402 133.915   3
   5  19  -3 55.5236 143.763   2
   5 -19  -2-183.372 133.438   3
  -5  19   2 31.9207 101.799   2
   5  19  -1 5261.16 339.468   2
   5 -19  -1 4904.25 283.299   3
  -5  19   1 5469.79 242.636   2
   5  19   0 36.1521 145.859   2
   5 -19   0-9.73784 114.204   3
   5 -19   1 657.410 147.238   3
   5  19   1 663.016 181.612   2
   5  19   2 139.147 163.217   2
   5  19   3 175.280 166.633   2
   5  19   4 1463.02 241.999   2
   5  19   5 1006.56 226.744   2
   5  19   6-41.6149 177.072   2
   5  19   7 3783.84 352.411   2
  -5  21   7 178.453 159.352   2
  -5  21   6 114.054 146.950   2
   5  21  -5 244.199 166.213   2
  -5  21   5 199.643 143.989   2
   5  21  -4 6205.40 368.190   2
   5  21  -3 121.489 158.416   2
   5 -21  -3-26.2300 121.063   3
   5  21  -2 4156.16 323.311   2
   5 -21  -2 3983.99 264.257   3
   5 -21  -1 43.4404 119.315   3
   5  21  -1 195.671 161.503   2
   5 -21   0 21.4807 120.895   3
   5  21   0-35.3335 164.399   2
   5  21   1 267.916 180.726   2
   5  21   2 5873.84 395.627   2
   5  21   3 101.287 170.766   2
   6   0 -20 6422.03 434.410   1
   6   0 -19 531.453 226.206   1
   6   0 -18 7959.23 436.275   1
   6   0 -17 403.158 194.624   1
   6   0 -16 3657.61 307.601   1
   6   0 -15 158.316 176.634   1
   6   0 -14 33628.2 717.299   1
   6   0 -13 95.5903 147.365   1
   6   0 -12 32331.1 651.220   1
   6   0 -12 32407.6 672.321   2
  -6   0  12 32581.9 647.883   1
   6   0 -11-42.9272 110.735   2
   6   0 -11-35.0005 126.148   1
  -6   0  11-41.3247 110.044   1
   6   0 -10 11075.9 362.960   2
   6   0 -10 10461.7 352.785   1
  -6   0  10 10725.5 347.858   1
   6   0  -9 108.476 124.788   1
  -6   0   9 43.5713 96.5683   1
  -6   0   8 2848.79 186.377   1
   6   0  -8 3166.83 202.179   1
   6   0  -7 1.65810 113.707   1
  -6   0   7 124.389 98.9483   1
   6   0  -6 16892.2 356.311   1
  -6   0   6 17030.3 350.478   1
   6   0  -5 97.3592 103.169   1
  -6   0   5 143.721 93.5601   1
  -6   0   4 170114. 924.174   1
   6   0  -4 169105. 919.228   1
   6   0  -3 96.6211 86.0720   1
  -6   0   3-48.7450 82.0777   1
   6   0  -2 2603.39 118.859   1
  -6   0   2 2502.79 113.869   1
   6   0  -1 57.9190 93.5326   3
  -6   0   1-8.99319 55.9458   1
   6   0  -1 25.8840 55.4041   1
  -6   0   0 26748.4 388.152   3
  -6   0   0 26048.9 212.084   1
   6   0   0 27561.1 403.802   3
   6   0   1 59.6491 92.1345   3
  -6   0  -1-15.9605 77.1108   3
   6   0   2 9594.33 272.759   3
  -6   0  -2 8877.23 256.921   3
  -6   0  -3-21.1860 94.1933   3
   6   0   3 70.8315 75.8942   2
   6   0   4 6829.89 226.574   2
  -6   0  -4 6096.44 121.660   1
  -6   0  -4 6788.68 257.139   3
  -6   0  -5 10.1196 86.5643   3
   6   0   5-33.0689 82.8557   2
  -6   0  -5 19.1025 45.1360   1
   6   0   6 30300.8 501.940   2
  -6   0  -6 30698.7 340.257   1
  -6   0  -6 30653.9 576.024   3
  -6   0  -7 193.092 71.6525   1
   6   0   7 118.772 90.3362   2
  -6   0  -7-22.7820 101.552   3
   6   0   8 879.879 130.375   2
  -6   0  -8 745.872 87.0608   1
  -6   0  -8 712.293 137.458   3
   6   0   9 37.3396 107.576   2
  -6   0  -9-152.072 88.7621   1
  -6   0 -10 3077.70 166.480   1
   6   0  10 3037.64 222.964   2
  -6   0 -11 56.1285 91.5789   1
   6   0  11-19.7574 118.592   2
  -6   0 -12 20553.7 447.964   1
   6   0  12 21151.2 569.740   2
   6   0  13 114.051 141.311   2
  -6   0 -13-360.514 146.660   1
   6   0  14 9442.37 429.093   2
   6   0  15-2.10136 146.002   2
   6  -2 -20-171.244 216.121   1
   6   2 -20 531.093 225.858   1
   6   2 -19 674.245 222.985   1
   6  -2 -19 89.6390 199.628   1
   6  -2 -18-227.238 217.335   1
   6   2 -18 233.830 198.758   1
   6  -2 -17 13060.9 531.232   1
   6   2 -17 13014.8 520.766   1
   6   2 -16 24.6640 165.602   1
   6  -2 -16-13.4214 188.493   1
   6  -2 -15 10510.9 446.696   1
   6   2 -15 10934.2 442.525   1
   6  -2 -14 511.936 178.203   1
   6   2 -14-2.96214 154.145   1
   6   2 -13 278.904 151.639   1
   6   2 -13 237.334 130.380   2
  -6   2  12 2442.11 206.033   1
   6  -2 -12 2547.26 239.848   1
   6  -2 -12 2149.78 201.060   2
   6   2 -12 2031.19 202.328   1
  -6  -2  12 1994.19 183.506   1
   6   2 -12 2274.32 206.241   2
   6  -2 -11 23971.6 552.371   1
  -6   2  11 23435.5 542.414   1
   6   2 -11 22280.3 527.003   1
  -6  -2  11 23328.0 530.399   1
   6  -2 -11 22520.3 538.551   2
  -6   2  10 618.370 127.151   1
   6  -2 -10 803.920 169.637   1
   6   2 -10 121.206 134.908   1
   6  -2 -10 389.910 113.484   2
  -6  -2  10 328.315 104.284   1
   6  -2  -9 6845.55 291.065   1
  -6   2   9 6302.86 265.138   1
   6   2  -9 6030.55 270.081   1
   6  -2  -9 6337.60 276.117   2
  -6  -2   9 6159.97 260.365   1
   6  -2  -8 141.804 131.754   1
  -6  -2   8 227.318 100.679   1
   6   2  -8 81.5539 127.890   1
  -6   2   8 93.9485 106.070   1
   6  -2  -8 229.696 102.926   2
   6   2  -7 10449.4 306.384   1
   6  -2  -7 10816.3 317.432   1
  -6   2   7 10604.4 303.160   1
  -6  -2   7 10718.8 296.988   1
   6   2  -6 6950.39 243.866   1
   6  -2  -6 6993.90 255.516   1
  -6   2   6 7446.95 247.346   1
  -6  -2   6 7420.38 237.583   1
   6   2  -5 11217.4 279.771   1
   6  -2  -5 12080.5 305.070   1
  -6  -2   5 11507.5 272.203   1
  -6   2   5 12129.7 296.641   1
   6   2  -4 997.477 111.431   1
   6  -2  -4 700.703 116.988   1
  -6   2   4 841.716 112.550   1
  -6  -2   4 796.030 97.5882   1
  -6   2   3 105857. 725.852   1
   6   2  -3 103071. 660.735   1
   6  -2  -3 105483. 719.945   1
  -6  -2   3 104561. 655.315   1
   6   2  -2 5947.90 151.214   1
  -6   2   2 5763.46 173.327   1
  -6  -2   2 5870.00 149.286   1
   6   2  -1 3126.54 97.8700   1
   6  -2  -1 3430.09 175.248   3
  -6   2   1 3131.40 126.154   1
   6   2  -1 3121.04 134.712   3
   6   2   0 707.718 42.6997   1
   6  -2   0 970.659 127.508   3
   6   2   0 864.524 98.9387   3
  -6  -2   0 1125.12 100.788   3
  -6  -2  -1 30687.7 408.389   3
   6  -2   1 31070.6 467.655   3
  -6   2  -1 31544.4 468.810   3
   6   2   1 31138.2 416.200   3
  -6  -2  -2 895.468 99.2940   3
   6  -2   2 959.432 83.7552   2
  -6   2  -2 970.017 119.112   3
   6  -2   2 846.313 126.336   3
   6  -2   3 40220.6 424.086   2
   6   2   3 40701.8 550.031   2
   6  -2   3 40603.6 594.006   3
  -6  -2  -3 39701.2 528.126   3
  -6   2  -3 40573.2 586.034   3
  -6   2  -4 514.667 105.823   3
   6  -2   4 501.616 79.1987   2
  -6  -2  -4 518.377 103.772   3
   6   2   4 585.332 113.779   2
  -6   2  -4 521.131 68.9244   1
   6  -2   5 4346.17 173.933   2
   6   2   5 4140.78 207.749   2
  -6   2  -5 4204.12 223.761   3
  -6  -2  -5 4065.47 206.437   3
  -6   2  -5 4493.38 146.062   1
   6  -2   6 112.588 77.3130   2
  -6   2  -6 89.2821 66.4712   1
  -6  -2  -6 241.730 57.3243   1
   6   2   6 62.8446 99.5669   2
  -6   2  -6 148.830 121.370   3
  -6  -2  -6 78.0817 91.8824   3
   6   2   7 7073.75 287.686   2
  -6  -2  -7 7277.81 301.750   3
  -6   2  -7 7058.04 313.691   3
  -6  -2  -7 7491.85 179.189   1
   6  -2   7 6762.69 241.255   2
  -6   2  -7 7089.00 210.192   1
   6  -2   8 1031.11 123.857   2
  -6   2  -8 1019.98 112.114   1
   6   2   8 993.484 153.441   2
  -6  -2  -8 792.845 137.515   3
  -6  -2  -8 984.430 102.412   1
  -6   2  -9 53647.7 635.745   1
  -6  -2  -9 51324.2 544.195   1
   6  -2   9 51537.3 715.455   2
   6   2   9 51966.5 814.853   2
  -6   2 -10 5530.73 234.492   1
   6  -2  10 5245.39 258.136   2
  -6  -2 -10 5389.00 210.637   1
   6   2  10 5144.56 290.600   2
   6   2  11 149.797 140.345   2
  -6  -2 -11 226.085 116.583   1
   6  -2  11 68.1901 109.609   2
  -6   2 -11 183.049 106.282   1
   6   2  12 63.3461 144.000   2
  -6   2 -12-210.525 120.532   1
  -6  -2 -12 172.823 118.204   1
   6  -2  12 80.2930 114.193   2
   6  -2  13 2245.51 215.748   2
  -6  -2 -13 2379.90 185.232   1
   6   2  13 2229.22 236.615   2
  -6   2 -13 1921.36 171.140   1
  -6   2 -14 189.744 117.380   1
   6   2  14 90.8484 147.055   2
   6   2  15 5585.53 375.070   2
   6   4 -20 2254.34 294.693   1
   6  -4 -20 2177.90 304.230   1
   6   4 -19 972.284 227.567   1
   6  -4 -19 1420.63 265.848   1
   6   4 -18 4133.02 338.360   1
   6  -4 -18 4191.15 349.579   1
   6  -4 -17 1760.36 265.151   1
   6   4 -17 1584.03 242.042   1
   6   4 -16 234.899 179.843   1
   6  -4 -16 866.155 222.536   1
   6   4 -15 5576.53 338.668   1
   6  -4 -15 6205.67 366.301   1
   6   4 -14 17968.3 552.273   1
   6  -4 -14 18925.3 571.572   1
   6  -4 -13 163.849 169.121   1
   6   4 -13-213.336 159.224   1
   6   4 -13-58.4987 114.343   2
   6   4 -12 17339.8 500.696   1
  -6   4  12 17152.0 489.462   1
   6  -4 -12 17217.1 506.956   1
  -6  -4  12 16971.8 483.839   1
   6  -4 -12 16839.9 500.710   2
   6   4 -11 3252.57 237.342   1
  -6   4  11 2886.99 216.781   1
  -6  -4  11 3395.08 227.062   1
   6  -4 -11 3160.78 246.488   1
   6  -4 -11 3079.94 226.799   2
   6  -4 -10 846.246 133.247   2
   6  -4 -10 848.004 169.069   1
   6   4 -10 1026.06 162.998   1
  -6  -4  10 860.183 134.657   1
  -6   4  10 739.792 137.647   1
  -6   4   9 3393.58 213.841   1
  -6  -4   9 3071.42 197.610   1
   6  -4  -9 3383.83 230.145   1
   6  -4  -9 3302.63 210.386   2
   6   4  -9 3367.11 217.254   1
   6  -4  -8 18383.4 442.792   1
   6   4  -8 16263.7 404.796   1
  -6   4   8 18276.9 433.210   1
  -6  -4   8 16777.3 403.866   1
   6  -4  -8 16558.2 413.140   2
  -6  -4   7 5837.06 233.410   1
  -6   4   7 6114.94 254.592   1
   6  -4  -7 5804.34 237.967   2
   6   4  -7 6105.05 250.523   1
   6  -4  -7 6101.32 267.791   1
  -6   4   6 97639.4 886.219   1
  -6  -4   6 98377.4 845.285   1
   6  -4  -6 99603.0 897.375   1
   6   4  -6 101344. 876.922   1
   6   4  -5 72.6339 94.3194   1
  -6   4   5 23.4559 105.103   1
   6  -4  -5 121.175 117.543   1
   6  -4  -5 117.480 84.9757   2
  -6   4   4 3094.78 174.485   1
   6   4  -4 3476.50 163.228   1
   6  -4  -4 3624.75 158.249   2
   6   4  -3 17600.7 303.383   1
  -6   4   3 19046.3 351.418   1
  -6   4   2 3009.04 155.231   1
   6   4  -2 2260.70 119.328   1
   6   4  -2 2826.59 112.668   3
   6   4  -1 116.087 58.3397   1
   6  -4  -1 260.754 115.224   3
   6   4  -1 31.8556 62.1606   3
   6  -4   0 7151.08 253.704   3
   6   4   0 7271.63 177.696   3
  -6  -4   0 7099.88 174.614   3
   6  -4   1 510.970 111.687   3
  -6   4  -1 867.425 129.621   3
  -6  -4  -1 622.003 80.6659   3
   6   4   2 2159.62 72.4509   1
   6  -4   2 2254.88 79.1390   2
   6  -4   2 2418.68 175.402   3
  -6  -4  -2 2405.41 127.943   3
  -6   4  -2 2571.09 166.729   3
   6  -4   3 1187.95 71.3819   2
   6   4   3 1325.30 145.760   2
   6  -4   3 1239.28 143.940   3
  -6   4  -3 1298.50 138.630   3
   6   4   3 1127.61 55.4430   1
  -6  -4  -3 1163.05 110.884   3
   6   4   4 7075.16 130.332   1
   6   4   4 8541.36 297.310   2
  -6  -4  -4 8490.15 259.001   3
  -6   4  -4 8997.40 307.688   3
   6  -4   4 8660.61 181.786   2
  -6  -4  -5 1591.64 138.203   3
   6   4   5 1802.41 165.061   2
  -6   4  -5 1622.73 154.493   3
   6  -4   5 1756.15 101.658   2
   6   4   5 1488.72 73.4340   1
   6   4   6 26059.9 540.513   2
  -6  -4  -6 26675.3 514.689   3
  -6   4  -6 26597.9 566.304   3
   6   4   6 24965.5 293.743   1
   6  -4   6 26965.2 384.739   2
  -6   4  -6 27352.4 425.051   1
   6   4   7 1356.99 171.097   2
   6   4   7 1286.91 85.9506   1
  -6   4  -7 1471.79 172.275   3
  -6   4  -7 1425.09 124.870   1
  -6  -4  -7 1465.35 157.117   3
   6  -4   7 1563.32 118.671   2
   6   4   8 2942.65 224.823   2
  -6  -4  -8 2876.34 212.754   3
   6   4   8 2764.47 126.762   1
  -6   4  -8 2692.75 167.115   1
   6  -4   8 2919.19 166.106   2
   6   4   9 2298.49 217.410   2
   6   4   9 2318.91 129.323   1
   6  -4   9 2494.56 164.780   2
  -6   4  -9 2330.97 169.441   1
   6   4  10 968.305 172.062   2
  -6   4 -10 1017.11 136.188   1
   6   4  10 876.643 99.3754   1
   6   4  11 1092.79 185.733   2
  -6   4 -11 1117.74 150.387   1
   6   4  11 940.575 108.772   1
  -6   4 -12 30927.9 605.443   1
   6   4  12 30054.5 738.122   2
   6   4  13 536.949 177.438   2
  -6   4 -13 518.713 133.924   1
  -6   4 -14 1340.70 164.995   1
   6   4  14 1512.91 235.119   2
   6   4  15 360.974 185.594   2
   6  -6 -20 119.094 226.268   1
   6   6 -20-187.741 213.715   1
   6  -6 -19 86.0345 208.452   1
   6   6 -19-201.597 206.697   1
   6   6 -18-128.837 195.342   1
   6  -6 -18 254.576 219.556   1
   6  -6 -17 1528.24 254.082   1
   6   6 -17 952.487 217.782   1
   6   6 -16-391.590 200.953   1
   6  -6 -16 163.265 187.592   1
   6   6 -15 17190.8 574.169   1
   6  -6 -15 16929.6 569.683   1
   6   6 -14 1341.13 215.040   1
   6  -6 -14 1288.82 226.012   1
   6  -6 -13 2001.92 241.251   1
   6   6 -13 1514.37 211.257   1
   6  -6 -12 1769.94 217.189   1
   6   6 -12 1467.47 192.606   1
  -6   6  11 10329.6 382.454   1
   6  -6 -11 10134.7 392.407   1
   6   6 -11 10125.5 386.091   1
   6  -6 -11 10276.4 392.418   2
   6  -6 -10-6.19968 101.004   2
   6   6 -10 107.310 119.911   1
  -6   6  10 146.705 122.476   1
   6  -6 -10 49.6895 142.690   1
   6  -6  -9 13166.4 395.763   2
   6  -6  -9 12773.8 400.133   1
   6   6  -9 12850.2 395.896   1
  -6   6   9 13576.0 405.119   1
   6   6  -8 296.279 118.324   1
   6  -6  -8 478.150 111.326   2
   6  -6  -8 509.673 146.448   1
  -6   6   8 892.965 153.828   1
  -6   6   7 8893.94 313.498   1
   6   6  -7 10186.6 320.623   1
   6  -6  -7 9380.44 304.219   2
   6   6  -6 13184.7 348.346   1
  -6   6   6 13894.1 378.606   1
   6  -6  -6 14120.7 343.043   2
  -6   6   5 84922.9 858.141   1
   6  -6  -5 83396.4 755.910   2
   6   6  -5 81843.0 803.419   1
   6   6  -4 2012.02 146.620   1
  -6   6   4 2095.06 166.128   1
   6  -6  -4 2085.36 128.555   2
  -6   6   3 38165.5 538.369   1
   6   6  -3 36237.2 475.685   1
   6  -6  -3 38404.0 426.549   2
   6   6  -2 2407.93 81.2812   3
   6  -6  -2 2466.80 105.973   2
   6   6  -1 13943.9 185.946   3
   6  -6  -1 15244.9 362.605   3
   6  -6  -1 14143.1 194.382   2
   6  -6   0 611.483 119.202   3
   6  -6   0 475.335 32.9979   2
   6  -6   1 45776.0 636.090   3
  -6   6  -1 45652.8 616.497   3
  -6  -6  -1 44742.7 410.798   3
  -6   6  -2 3510.65 200.425   3
   6  -6   2 3054.84 193.610   3
  -6  -6  -2 2817.25 126.329   3
   6  -6   3 476.166 122.389   3
   6   6   3 511.305 73.5599   1
   6   6   3 559.309 133.116   2
  -6  -6  -3 504.820 78.8128   3
  -6   6  -3 739.930 127.187   3
   6   6   4 279.940 64.1749   1
   6   6   4 168.123 111.657   2
  -6   6  -4 223.810 99.0049   3
  -6  -6  -4 235.670 75.7809   3
   6   6   5 39247.6 675.437   2
  -6  -6  -5 39220.6 565.613   3
  -6   6  -5 40978.6 691.932   3
   6   6   5 37937.4 402.314   1
  -6   6  -6 649.979 127.353   3
   6   6   6 720.846 150.189   2
  -6  -6  -6 629.262 108.971   3
   6   6   6 591.713 77.7124   1
   6   6   7 452.137 147.383   2
   6   6   7 456.432 75.0758   1
  -6   6  -7 760.090 116.680   1
  -6  -6  -7 651.390 113.799   3
   6   6   8 191.079 135.014   2
   6   6   8 56.9406 68.4351   1
  -6   6  -8-4.60004 94.2649   1
   6   6   9 16371.3 519.349   2
  -6   6  -9 16451.2 417.223   1
   6   6   9 15624.9 323.983   1
   6   6  10 534.737 95.0447   1
  -6   6 -10 565.002 127.194   1
   6   6  10 599.978 166.899   2
   6   6  11 14110.6 337.392   1
  -6   6 -11 15580.5 442.890   1
   6   6  11 14702.2 532.064   2
   6   6  12 1067.90 207.745   2
  -6   6 -12 1291.39 174.297   1
  -6   6 -13 5902.18 310.454   1
   6   6  13 6343.26 387.955   2
   6   6  14-58.3297 173.544   2
  -6   6 -14 73.7256 129.464   1
   6   6  15 1109.52 236.584   2
   6  -8 -19 1.93955 208.567   1
   6   8 -19-297.391 231.019   1
   6   8 -18 3939.02 347.557   1
   6  -8 -18 3620.22 337.040   1
   6  -8 -17 1279.26 239.879   1
   6   8 -17 1405.16 250.418   1
   6   8 -16 6759.34 407.415   1
   6  -8 -16 6538.45 389.650   1
   6   8 -15 1045.58 216.416   1
   6  -8 -15 677.542 198.703   1
   6   8 -14 977.171 207.793   1
   6  -8 -14 655.035 192.151   1
   6   8 -13 911.668 194.608   1
   6  -8 -13 569.954 185.795   1
   6   8 -12 21151.9 586.775   1
   6   8 -11 1993.50 215.101   1
   6   8 -10 274.392 135.424   1
   6  -8 -10 589.601 139.269   2
  -6   8  10 830.785 166.855   1
   6  -8  -9 1771.69 176.289   2
   6   8  -9 1568.23 182.708   1
  -6   8   9 1831.06 196.242   1
   6  -8  -8 15585.8 421.076   2
  -6   8   8 16573.4 459.485   1
  -6   8   8 15757.8 424.169   2
   6   8  -8 14696.7 427.793   1
   6  -8  -7 9795.46 317.850   2
  -6   8   7 10218.1 358.005   1
   6   8  -7 9912.47 340.436   1
   6  -8  -6 13427.2 346.687   2
   6   8  -6 13191.1 373.967   1
  -6   8   6 14223.4 408.952   1
   6  -8  -5-9.27634 75.9646   2
  -6   8   5 103.902 114.448   1
   6   8  -5-60.6266 106.291   1
   6  -8  -4 206.160 71.9974   2
  -6   8   4 102.408 107.039   1
   6  -8  -3 13666.5 268.199   2
   6  -8  -2 38662.5 392.753   2
   6  -8  -2 39427.0 585.536   3
   6  -8  -1 1388.50 70.9081   2
   6  -8  -1 1489.14 152.292   3
   6  -8   0 11149.3 333.874   3
   6  -8   1 3067.71 196.169   3
  -6  -8  -1 3168.57 101.745   3
   6  -8   2 151.841 107.147   3
  -6  -8  -2 88.2718 48.6243   3
   6  -8   3 578.957 130.126   3
  -6  -8  -3 656.107 76.9626   3
   6   8   3 693.032 141.139   2
  -6   8  -3 732.603 126.671   3
   6   8   4 3045.66 152.088   1
   6   8   4 3078.22 225.366   2
  -6   8  -4 3243.29 215.453   3
  -6  -8  -4 2969.46 150.773   3
  -6  -8  -5 816.344 101.530   3
  -6   8  -5 914.633 143.402   3
   6   8   5 798.711 153.209   2
   6   8   5 837.767 102.501   1
   6   8   6 34681.9 699.974   2
  -6  -8  -6 35378.0 563.567   3
   6   8   6 33576.2 470.974   1
   6   8   7 1422.47 192.412   2
   6   8   7 1602.55 127.878   1
   6   8   8 347.250 157.185   2
   6   8   8 107.135 79.5106   1
  -6   8  -8 384.232 120.991   1
   6   8   9 451.457 169.031   2
   6   8   9 272.822 92.5502   1
  -6   8  -9 677.249 143.436   1
   6   8  10 5576.98 229.414   1
   6   8  10 5631.26 353.006   2
  -6   8 -10 6306.40 303.010   1
  -6   8 -11 734.021 157.536   1
   6   8  11 705.919 196.608   2
  -6   8 -12 8427.22 369.710   1
   6   8  12 7962.57 431.905   2
   6   8  13 1329.42 233.284   2
  -6   8 -13 1409.26 193.801   1
  -6   8 -14 6162.91 343.332   1
   6   8  14 5745.43 407.040   2
   6  10 -18 1749.80 286.527   1
   6  10 -17 4279.57 359.189   1
   6  10 -16 189.537 180.136   1
   6  10 -15 4423.12 336.046   1
   6  10 -14 5078.92 345.591   1
   6  10 -13 963.359 196.188   1
  -6  10  13 925.614 196.737   2
   6  10 -12 397.000 157.225   1
  -6  10  12 412.793 160.803   2
   6  10 -11 3571.93 277.280   1
  -6  10  11 3670.76 267.794   2
  -6  10  10 930.443 170.276   2
   6  10 -10 810.285 164.258   1
   6 -10  -9 163.554 110.545   2
   6  10  -9 156.898 128.431   1
  -6  10   9 191.816 125.721   2
  -6  10   8 153.964 135.710   1
   6 -10  -8 40.1739 98.9441   2
   6  10  -8-24.5892 126.074   1
  -6  10   8 116.549 111.793   2
   6 -10  -7 792.825 122.546   2
  -6  10   7 776.183 162.206   1
   6  10  -7 645.901 139.344   1
  -6  10   7 778.667 131.338   2
   6 -10  -6 11752.3 337.628   2
  -6  10   6 12982.2 416.236   1
  -6  10   6 12430.4 353.985   2
   6 -10  -5 7036.79 249.430   2
  -6  10   5 7070.11 260.318   2
  -6  10   5 7974.63 322.779   1
   6 -10  -4 2471.74 146.699   2
  -6  10   4 2517.70 157.338   2
   6 -10  -3 26213.6 392.643   2
   6 -10  -2 8637.90 205.428   2
   6 -10  -2 8687.16 306.340   3
   6 -10  -1 4037.63 219.969   3
   6 -10   0 1538.02 159.202   3
   6 -10   1 12852.5 384.880   3
   6  10   2 581.880 148.323   2
   6 -10   2 395.455 121.656   3
  -6 -10  -2 459.706 50.1255   3
   6  10   3 25975.1 598.190   2
   6 -10   3 26656.3 571.250   3
  -6 -10  -3 26589.0 341.251   3
  -6  10  -3 26816.1 561.645   3
   6  10   4-83.3372 128.090   2
  -6 -10  -4 133.556 61.4327   3
   6  10   5 6623.55 335.874   2
  -6 -10  -5 6728.00 226.704   3
   6  10   5 6277.55 240.036   1
   6  10   6 1370.19 143.192   1
   6  10   6 1305.13 193.833   2
  -6 -10  -6 1359.55 129.645   3
   6  10   7-28.7543 147.161   2
   6  10   7 25.8622 96.5374   1
   6  10   8 132.743 157.317   2
   6  10   8 135.220 103.157   1
   6  10   9 8797.19 427.758   2
   6  10   9 8401.71 291.863   1
  -6  10  -9 9487.42 378.884   1
   6  10  10 1371.07 228.323   2
  -6  10 -10 1665.51 200.688   1
   6  10  11 5408.22 377.668   2
  -6  10 -11 5821.70 326.725   1
  -6  10 -12 2250.71 231.997   1
   6  10  12 2150.03 277.857   2
   6  10  13-112.815 181.159   2
  -6  10 -13 201.023 150.463   1
   6  12 -17 715.209 229.288   1
   6  12 -16 846.868 239.895   1
   6  12 -15 526.311 205.333   1
  -6  12  14 4771.12 352.837   2
   6  12 -14 4598.25 351.770   1
   6  12 -13 231.585 163.763   1
  -6  12  13 272.360 161.041   2
   6  12 -12 4195.51 307.844   1
  -6  12  12 3981.36 298.433   2
  -6  12  11 1073.54 188.244   2
   6  12 -11 1097.06 196.376   1
   6  12 -10 280.333 151.764   1
  -6  12  10 94.7288 136.886   2
   6  12  -9 244.510 145.925   1
  -6  12   9 410.326 145.014   2
   6 -12  -8 3902.82 246.997   2
   6  12  -8 3803.89 265.595   1
  -6  12   8 3800.16 249.769   2
   6 -12  -7 340.490 109.926   2
   6  12  -7 148.523 64.9843   3
  -6  12   7 321.719 124.126   2
   6 -12  -6 4132.66 219.741   2
  -6  12   6 3975.64 227.037   2
   6  12  -6 3525.45 121.720   3
   6  12  -5 301.275 35.1589   3
   6 -12  -5 597.101 109.314   2
  -6  12   5 702.496 122.696   2
   6 -12  -4 6492.19 235.724   2
  -6  12   4 6863.21 249.713   2
   6 -12  -3 729.356 140.987   3
  -6  12   3 440.614 93.2875   2
   6 -12  -2 5437.94 260.541   3
  -6  12   2 5622.75 192.537   2
   6 -12  -1 972.354 140.860   3
   6 -12   0 18260.4 464.080   3
   6 -12   1 3033.21 212.748   3
   6  12   2 1773.04 204.517   2
   6 -12   2 1747.35 182.615   3
   6  12   3 572.934 163.848   2
   6 -12   3 622.573 144.741   3
  -6 -12  -3 436.131 52.8500   3
   6  12   4 5704.81 326.843   2
  -6 -12  -4 6055.69 178.355   3
   6  12   5 135.911 111.899   1
   6  12   5 104.732 147.257   2
  -6 -12  -5 11.4900 64.5246   3
   6  12   6 14568.4 520.252   2
  -6 -12  -6 14898.3 348.015   3
   6  12   6 13666.9 388.901   1
   6  12   7 8.66993 153.466   2
  -6 -12  -7-41.9023 90.7882   3
   6  12   7 8.74060 110.207   1
   6  12   8 1926.08 181.784   1
   6  12   8 2368.29 261.426   2
   6  12   9 6136.19 390.933   2
   6  12  10 1483.57 241.892   2
  -6  12 -10 1563.46 208.269   1
   6  12  11 279.865 190.653   2
  -6  12 -11 252.383 144.791   1
   6  12  12 2731.73 310.448   2
  -6  12 -12 2890.21 266.566   1
   6  14 -16 3.50627 195.274   1
   6  14 -15 2011.20 277.987   1
  -6  14  15 2242.81 289.572   2
   6  14 -14 2869.69 305.410   1
  -6  14  14 2841.72 298.006   2
  -6  14  13 891.283 219.419   2
   6  14 -13 925.925 220.843   1
   6  14 -12 1086.75 154.318   3
  -6  14  12 1359.85 221.942   2
   6  14 -12 1413.23 235.624   1
   6  14 -11 3291.66 211.730   3
   6  14 -11 3676.29 316.747   1
  -6  14  11 3697.42 295.590   2
   6  14 -10 41.7221 89.3446   3
   6  14 -10-45.4661 154.974   1
  -6  14  10 131.040 144.322   2
   6  14  -9 3020.67 269.275   1
  -6  14   9 3236.79 254.876   2
   6  14  -9 2766.06 164.354   3
   6  14  -8 99.8108 70.8531   3
  -6  14   8 213.250 133.990   2
   6 -14  -7 621.445 129.140   2
   6  14  -7 511.559 70.7035   3
  -6  14   7 751.440 145.756   2
   6 -14  -6 2901.92 203.048   2
  -6  14   6 2660.69 206.619   2
  -6  14   5 18296.0 449.292   2
   6 -14  -4 371.076 138.467   3
  -6  14   4 129.681 100.693   2
   6 -14  -3 2218.57 195.739   3
  -6  14   3 2440.90 164.410   2
   6 -14  -2 4593.51 254.988   3
  -6  14   2 5153.39 201.801   2
   6 -14  -1-123.031 134.110   3
  -6  14   1 107.858 68.0523   2
   6 -14   0-65.4679 128.431   3
   6  14   1 732.674 169.364   2
   6 -14   1 1064.72 165.826   3
   6 -14   2 2426.28 213.489   3
   6  14   2 2210.68 228.847   2
   6  14   3 27108.9 680.176   2
   6 -14   3 27558.2 636.856   3
  -6 -14  -4 688.583 61.7188   3
   6  14   4 952.700 201.381   2
   6  14   5 121.864 125.277   1
   6  14   5 15.3079 153.199   2
  -6 -14  -5 61.7809 55.9965   3
   6  14   6 4428.67 267.441   1
   6  14   6 4117.48 321.297   2
   6  14   7 29.6026 125.563   1
   6  14   7 91.6211 163.363   2
   6  14   8 1628.32 247.425   2
   6  14   9 3767.31 334.791   2
   6  14  10 532.449 204.115   2
  -6  14 -10 363.149 147.434   1
   6  14  11 990.275 235.609   2
  -6  14 -11 1059.29 198.084   1
  -6  16  14 2667.68 311.059   2
   6  16 -14 3028.85 327.019   1
  -6  16  13 359.165 183.555   2
   6  16 -13 239.201 187.108   1
   6  16 -12 4628.72 361.718   1
  -6  16  12 4389.63 341.167   2
   6  16 -11 1261.22 233.076   1
  -6  16  11 1189.67 211.362   2
   6  16 -10 105.764 166.874   1
  -6  16  10 269.799 150.893   2
   6  16  -9 93.2109 160.642   1
  -6  16   9 186.333 141.191   2
  -6  16   8 6379.72 343.742   2
  -6  16   7 6.59035 121.670   2
  -6  16   6 5848.18 298.390   2
   6 -16  -5 1051.79 172.816   3
  -6  16   5 644.859 140.197   2
   6 -16  -4 4388.99 258.699   3
  -6  16   4 4462.76 237.331   2
   6 -16  -3 905.742 155.576   3
  -6  16   3 958.483 132.084   2
   6 -16  -2 303.686 123.414   3
  -6  16   2 491.824 102.033   2
   6 -16  -1-97.6478 137.333   3
  -6  16   1 89.3297 76.5372   2
   6 -16   0 8130.30 348.483   3
   6  16   0 8589.59 402.463   2
  -6  16   0 8472.49 209.872   2
   6  16   1 3062.93 271.554   2
   6 -16   1 3016.01 233.678   3
   6  16   2 423.741 164.737   2
   6 -16   2 349.934 136.939   3
   6  16   3 768.030 199.100   2
   6  16   4 2262.14 261.553   2
   6  16   5 1243.86 218.643   2
   6  16   6 6001.35 391.302   2
   6  16   7 204.049 181.632   2
   6  16   8 2677.81 297.044   2
   6  16   9 1131.63 246.413   2
   6  18 -12 957.328 236.238   1
  -6  18  12 1095.76 230.360   2
   6  18 -11 1785.96 275.335   1
  -6  18  11 2003.80 262.257   2
   6  18 -10 382.798 198.767   1
  -6  18  10 256.775 170.855   2
   6  18  -9 3545.60 325.618   1
  -6  18   9 3698.04 298.324   2
  -6  18   8 500.498 169.387   2
  -6  18   7 170.758 139.850   2
   6 -18  -6 2799.05 235.747   3
  -6  18   6 2823.72 237.208   2
   6 -18  -5 8018.85 354.416   3
  -6  18   5 8546.13 355.247   2
   6 -18  -4 33.5770 124.078   3
  -6  18   4 296.303 125.205   2
  -6  18   3 3993.03 226.298   2
   6 -18  -3 3078.41 233.934   3
   6 -18  -2-61.4785 135.341   3
  -6  18   2 285.174 102.903   2
   6  18  -1 333.359 162.864   2
   6 -18  -1 231.993 120.181   3
  -6  18   1 294.179 91.1691   2
   6  18   0 2184.65 251.509   2
   6 -18   0 2118.27 212.293   3
   6  18   1 1318.95 216.609   2
   6 -18   1 1334.62 187.564   3
   6 -18   2-87.9085 139.787   3
   6  18   2-176.043 171.182   2
   6  18   3 4196.45 331.652   2
   6  18   4 28.3751 166.397   2
   6  18   5 1974.80 263.524   2
   6  18   6 3077.43 319.725   2
   6  18   7 1399.92 257.841   2
  -6  20   9 409.553 176.429   2
   6 -20  -8 895.823 183.866   3
  -6  20   8 519.249 181.334   2
   6 -20  -7 1250.22 187.557   3
  -6  20   7 1161.06 193.223   2
   6 -20  -6 2619.69 231.376   3
  -6  20   6 3197.45 261.244   2
  -6  20   5 2199.55 218.095   2
   6 -20  -5 1708.19 198.943   3
   6 -20  -4 199.621 130.022   3
  -6  20   4 406.504 136.438   2
   6  20  -3 3802.21 310.158   2
   6 -20  -3 3489.24 255.307   3
   6  20  -2 2533.35 272.784   2
   6 -20  -2 2253.21 220.447   3
   6  20  -1 285.617 168.867   2
   6 -20  -1 130.894 127.731   3
   6  20   0 2216.53 262.206   2
   6 -20   0 2162.56 223.119   3
   6  20   1 1765.47 254.440   2
   6 -20   1 1396.31 196.511   3
   6  20   2 578.636 197.649   2
   6  20   3 254.234 182.822   2
   6  20   4 417.672 200.718   2
   7  -1 -20 838.972 252.215   1
   7   1 -20 1425.24 272.233   1
   7  -1 -19 5039.39 387.679   1
   7   1 -19 5391.09 388.092   1
   7  -1 -18 4404.20 355.827   1
   7   1 -18 4144.60 338.422   1
   7   1 -17 478.248 203.348   1
   7  -1 -17 752.887 230.374   1
   7   1 -16 11645.8 480.185   1
   7  -1 -16 12114.1 491.399   1
   7   1 -15 8509.91 404.439   1
   7  -1 -15 8418.22 408.662   1
   7   1 -14 258.293 167.272   1
   7  -1 -14 436.691 180.024   1
   7   1 -13 2965.54 249.497   1
   7  -1 -13 3633.31 271.503   1
   7   1 -12 3675.30 263.015   1
   7   1 -12 3422.22 246.323   2
  -7  -1  12 3493.89 243.337   1
   7  -1 -12 3198.78 246.944   2
   7  -1 -12 3948.24 269.361   1
  -7   1  12 3580.14 245.777   1
  -7   1  11 3171.88 217.221   1
   7  -1 -11 3281.82 223.785   2
  -7  -1  11 3003.31 213.408   1
   7  -1 -11 3284.21 237.769   1
   7   1 -11 3270.62 231.356   1
  -7   1  10 26226.3 539.470   1
   7   1 -10 25932.7 541.363   1
   7  -1 -10 26737.2 559.231   2
   7  -1 -10 26218.0 549.697   1
  -7  -1  10 26209.8 539.940   1
  -7   1   9 3462.93 210.628   1
   7   1  -9 3586.74 219.944   1
   7  -1  -9 3693.03 231.295   1
  -7  -1   9 3505.04 204.460   1
  -7   1   8 7192.19 270.523   1
   7   1  -8 7268.91 277.683   1
   7  -1  -8 7777.71 291.850   1
  -7  -1   8 6985.00 266.658   1
  -7   1   7 13479.3 345.505   1
   7   1  -7 13480.8 347.913   1
  -7  -1   7 13670.1 344.624   1
   7  -1  -7 13777.8 359.689   1
   7  -1  -6 2253.80 178.283   1
  -7   1   6 1692.99 140.413   1
   7   1  -6 1523.62 147.312   1
  -7  -1   6 1839.97 148.340   1
   7  -1  -5 52345.2 600.793   1
  -7   1   5 52256.7 583.722   1
   7   1  -5 52705.6 574.160   1
  -7  -1   5 53092.4 571.454   1
   7  -1  -4 13301.4 292.052   1
  -7   1   4 13392.1 282.548   1
   7   1  -4 13451.2 277.886   1
  -7  -1   4 13274.5 271.734   1
  -7   1   3 1052.15 105.609   1
   7   1  -3 1059.87 103.884   1
   7  -1  -3 1046.64 114.947   1
  -7  -1   3 967.663 94.2483   1
  -7  -1   2 444.536 70.6029   1
  -7   1   2 454.803 78.9707   1
   7  -1  -2 278.847 76.7974   1
   7   1  -2 603.188 106.050   3
   7  -1  -2 577.099 116.150   3
   7   1  -2 530.949 79.7868   1
   7   1  -1 17362.5 211.784   1
   7   1  -1 17078.8 321.246   3
   7  -1  -1 17614.8 349.474   3
  -7  -1   1 16834.5 203.651   1
  -7   1   1 17324.7 242.682   1
   7  -1   0 164.135 99.6754   3
  -7   1   0 398.258 66.5912   1
   7   1   0 47.3026 90.1032   3
  -7  -1   0 509.633 104.058   3
  -7  -1   0 141.596 28.6255   1
   7   1   1 17585.7 351.870   3
  -7   1  -1 17177.5 365.805   3
   7  -1   1 17820.5 376.644   3
  -7  -1  -1 17446.3 347.264   3
  -7   1  -1 16526.2 192.384   1
   7   1   2 30338.8 484.688   3
   7  -1   2 30473.9 516.020   3
  -7  -1  -2 29615.3 470.497   3
  -7   1  -2 29484.2 495.570   3
  -7   1  -3 699.665 115.360   3
  -7   1  -3 620.788 49.1609   1
  -7  -1  -3 534.776 100.527   3
   7  -1   3 741.409 93.5642   2
   7   1   3 786.672 111.610   2
  -7   1  -4 12577.3 362.474   3
   7  -1   4 12502.8 292.091   2
   7   1   4 12435.9 322.260   2
  -7  -1  -4 11787.3 341.273   3
  -7   1  -4 11607.8 181.634   1
  -7   1  -5 16363.0 232.231   1
   7  -1   5 16107.9 348.684   2
   7   1   5 15595.7 376.699   2
  -7  -1  -5 15863.4 406.420   3
  -7   1  -5 16355.8 431.752   3
  -7  -1  -6 112.425 41.0801   1
   7  -1   6 160.463 89.5456   2
   7   1   6 96.5109 89.8133   2
  -7  -1  -6 163.517 106.091   3
  -7   1  -6 130.997 60.9031   1
  -7   1  -6 153.807 104.765   3
   7  -1   7 8422.19 286.212   2
   7   1   7 8425.14 307.801   2
  -7  -1  -7 8490.87 337.549   3
  -7   1  -7 8950.23 210.970   1
  -7   1  -7 8456.04 349.980   3
  -7  -1  -7 7990.96 169.940   1
   7   1   8 29009.3 581.771   2
  -7   1  -8 30366.7 404.186   1
  -7  -1  -8 28512.4 353.183   1
   7  -1   8 29010.1 541.719   2
   7  -1   9 810.632 132.750   2
   7   1   9 982.408 157.016   2
  -7   1  -9 1092.74 115.299   1
  -7  -1  -9 967.764 100.087   1
   7  -1  10 842.812 143.738   2
   7   1  10 955.034 157.681   2
  -7   1 -10 901.972 112.297   1
  -7  -1 -10 1020.67 113.408   1
  -7   1 -11 6710.37 242.145   1
  -7  -1 -11 7671.69 246.547   1
   7  -1  11 7311.04 331.970   2
   7   1  11 7368.78 349.766   2
  -7  -1 -12 205.084 114.748   1
  -7   1 -12-107.903 104.671   1
   7  -1  12-48.7358 128.717   2
   7   1  12 37.6766 136.241   2
   7  -1  13 5265.82 313.745   2
   7   1  13 5296.38 330.399   2
   7  -1  14 2019.07 229.410   2
   7   1  14 1931.86 241.677   2
   7   1  15 33.7494 153.483   2
   7   3 -20 282.465 217.304   1
   7  -3 -20-43.6348 210.382   1
   7   3 -19 3604.43 337.268   1
   7  -3 -19 3265.24 337.015   1
   7   3 -18 241.624 198.583   1
   7  -3 -18 183.875 205.189   1
   7   3 -17 815.018 205.111   1
   7  -3 -17 904.741 228.348   1
   7  -3 -16 1558.86 235.827   1
   7   3 -16 1713.51 235.752   1
   7  -3 -15 1740.12 244.321   1
   7   3 -15 1846.80 239.482   1
   7  -3 -14 983.935 200.106   1
   7   3 -14 1123.58 199.399   1
   7  -3 -13 20591.4 569.521   1
   7   3 -13 20495.0 558.621   1
   7  -3 -12 265.634 150.400   1
  -7   3  12 370.685 128.866   1
   7   3 -12 34.0040 149.834   1
  -7  -3  12 295.652 120.867   1
   7  -3 -12 231.738 121.148   2
  -7   3  11 2191.49 193.523   1
   7   3 -11 2212.72 204.231   1
   7  -3 -11 2373.71 222.779   1
  -7  -3  11 2421.83 193.910   1
   7  -3 -11 2566.22 205.882   2
  -7  -3  10 89.1693 98.5151   1
   7  -3 -10 220.333 136.085   1
   7   3 -10-99.7536 143.226   1
  -7   3  10 39.9072 115.806   1
   7  -3 -10 188.293 109.278   2
   7   3  -9 8597.34 322.374   1
  -7   3   9 8926.51 323.383   1
   7  -3  -9 9087.41 337.674   1
  -7  -3   9 8810.19 315.207   1
   7  -3  -9 9051.64 334.315   2
  -7   3   8 823.612 133.813   1
   7   3  -8 1011.74 149.836   1
  -7  -3   8 775.499 120.591   1
   7  -3  -8 783.942 127.470   2
   7  -3  -8 854.113 157.465   1
  -7  -3   7 26610.5 471.098   1
   7   3  -7 25902.8 478.229   1
   7  -3  -7 27697.7 510.043   1
  -7   3   7 26518.8 487.926   1
   7  -3  -6 751.238 150.666   1
   7   3  -6 509.971 126.541   1
  -7   3   6 899.327 137.502   1
  -7  -3   6 438.051 105.658   1
   7   3  -5 18758.7 359.298   1
   7  -3  -5 18566.8 381.993   1
  -7  -3   5 18820.5 353.662   1
  -7   3   5 18108.3 367.690   1
   7   3  -4 35819.1 452.939   1
  -7   3   4 35251.2 486.758   1
  -7  -3   4 35137.3 440.873   1
   7  -3  -4 34458.4 477.575   1
  -7   3   3 1782.06 133.420   1
  -7  -3   3 1496.65 103.902   1
   7   3  -3 1456.58 112.359   1
   7   3  -2 5568.39 171.949   3
  -7   3   2 4844.59 176.652   1
   7  -3  -2 5108.50 222.160   3
   7   3  -2 5164.02 151.875   1
   7   3  -1 1676.45 86.6375   1
   7   3  -1 1530.29 110.673   3
  -7   3   1 1869.47 119.374   1
   7  -3  -1 1790.99 157.777   3
   7   3   0 82.9518 33.8301   1
   7   3   0 138.056 78.4951   3
   7  -3   0-29.1929 106.396   3
   7  -3   1 6223.32 250.003   3
   7   3   1 6416.11 208.659   3
  -7  -3  -1 6361.98 204.454   3
  -7   3  -1 6662.21 251.769   3
   7  -3   2 8432.53 187.223   2
   7  -3   2 8368.92 295.434   3
  -7  -3  -2 8326.98 243.979   3
  -7   3  -2 8480.70 286.828   3
   7  -3   3 622.479 74.1208   2
   7  -3   3 525.029 124.554   3
   7   3   3 638.031 117.685   2
  -7   3  -3 538.975 112.929   3
  -7  -3  -3 378.335 85.3571   3
   7  -3   4 6080.17 180.277   2
   7   3   4 6083.56 255.998   2
  -7   3  -4 6384.37 275.501   3
  -7  -3  -4 6084.73 238.041   3
   7  -3   5 11721.1 267.384   2
   7   3   5 11425.8 349.034   2
  -7   3  -5 11790.9 381.210   3
  -7   3  -5 11852.7 250.672   1
  -7  -3  -5 11060.7 338.024   3
   7  -3   6 66.3472 69.4599   2
   7   3   6 25.3817 109.096   2
  -7   3  -6-21.9215 109.486   3
  -7  -3  -6 18.9536 90.8356   3
  -7   3  -6-10.9956 69.0222   1
   7   3   7 3985.28 245.287   2
  -7  -3  -7 3654.05 230.393   3
  -7   3  -7 4147.93 174.572   1
   7  -3   7 3951.17 188.604   2
   7   3   8 4361.35 260.917   2
  -7  -3  -8 4400.35 263.225   3
   7  -3   8 4470.74 210.362   2
  -7   3  -8 4452.00 192.017   1
   7   3   9 262.084 139.583   2
  -7   3  -9 342.099 101.155   1
   7  -3   9 207.004 96.3596   2
  -7   3 -10 3398.58 196.856   1
   7  -3  10 3457.21 216.822   2
   7   3  10 3180.56 251.144   2
  -7   3 -11 21553.1 460.438   1
   7  -3  11 21377.0 512.350   2
   7   3  11 20457.6 587.327   2
   7   3  12 358.309 158.379   2
   7  -3  12 272.126 120.154   2
  -7   3 -12 433.529 122.050   1
  -7   3 -13 2495.10 189.349   1
   7   3  13 2433.95 257.287   2
   7   3  14 387.883 180.574   2
   7   5 -20 747.570 235.106   1
   7  -5 -20 976.548 264.571   1
   7  -5 -19 1781.28 279.398   1
   7   5 -19 1775.73 275.169   1
   7   5 -18 3977.69 345.726   1
   7  -5 -18 4386.82 363.228   1
   7  -5 -17 39.4879 190.909   1
   7   5 -17-231.455 200.614   1
   7   5 -16 15023.4 555.113   1
   7  -5 -16 15484.6 570.144   1
   7   5 -15 1639.65 233.880   1
   7  -5 -15 2403.64 280.621   1
   7  -5 -14 669.653 202.238   1
   7   5 -14 513.872 171.048   1
   7   5 -13 5061.45 311.765   1
   7  -5 -13 4662.17 310.081   1
   7   5 -12 5013.33 303.485   1
   7  -5 -12 5472.71 320.062   1
   7   5 -11 2650.64 223.851   1
  -7   5  11 2430.56 209.171   1
  -7  -5  11 2522.82 200.437   1
   7  -5 -11 2711.98 232.785   1
   7  -5 -11 2464.47 206.691   2
  -7   5  10 6618.54 301.254   1
  -7  -5  10 6226.85 285.130   1
   7  -5 -10 6407.26 297.952   2
   7  -5 -10 6409.85 315.924   1
   7   5 -10 6247.91 297.807   1
   7  -5  -9 570.087 120.854   2
   7   5  -9 570.666 136.298   1
  -7   5   9 516.873 129.352   1
   7  -5  -9 442.680 157.520   1
   7  -5  -8 57634.7 780.653   1
  -7   5   8 57755.7 773.272   1
   7  -5  -8 59007.6 766.881   2
   7   5  -8 59462.7 778.037   1
  -7   5   7 73223.2 849.524   1
   7  -5  -7 72816.4 846.611   1
   7  -5  -7 72926.1 806.531   2
   7   5  -7 73410.2 821.099   1
  -7   5   6 103304. 972.742   1
   7   5  -6 96452.1 887.875   1
   7   5  -5 87.6691 94.5382   1
  -7   5   5 238.547 115.867   1
   7  -5  -5 137.452 80.9002   2
   7   5  -4 21506.7 382.058   1
  -7   5   4 23448.6 436.472   1
   7  -5  -4 23204.4 378.259   2
  -7   5   3 154.805 102.396   1
   7   5  -3 10.9399 80.4253   1
   7   5  -2 12752.4 218.041   3
   7   5  -2 12200.1 249.631   1
   7  -5  -2 13783.9 349.030   3
  -7   5   2 13120.2 304.411   1
   7  -5  -1 6679.78 254.775   3
   7   5  -1 6012.76 164.856   3
   7   5  -1 6224.90 168.243   1
   7   5   0 12900.1 246.228   3
   7  -5   0 14729.6 373.214   3
  -7  -5  -1 1273.64 100.734   3
   7  -5   1 1001.56 131.973   3
  -7   5  -1 1444.25 150.670   3
   7  -5   2 116.645 31.6227   2
  -7  -5  -2 41.1436 65.8982   3
   7  -5   2 194.910 111.275   3
  -7   5  -2 226.940 107.545   3
   7   5   3 1081.89 58.9823   1
   7  -5   3 1113.85 147.004   3
   7   5   3 1122.41 149.679   2
  -7   5  -3 1250.87 149.839   3
  -7  -5  -3 962.208 98.9466   3
   7  -5   3 966.237 59.4420   2
   7   5   4 29032.0 568.264   2
  -7   5  -4 30023.8 586.139   3
  -7  -5  -4 28237.4 477.587   3
   7  -5   4 28146.6 302.803   2
   7   5   5 3245.30 222.368   2
  -7   5  -5 3207.20 223.067   3
  -7  -5  -5 3104.93 184.165   3
   7  -5   5 3257.71 122.874   2
   7   5   5 2606.80 86.6082   1
   7   5   6 139.856 41.1374   1
   7   5   6 99.6556 119.882   2
  -7  -5  -6 204.432 96.6864   3
  -7   5  -6 169.451 83.2594   1
   7  -5   6 164.563 62.9971   2
   7   5   7 3020.29 229.427   2
   7   5   7 2484.64 102.766   1
  -7   5  -7 3033.94 173.329   1
  -7  -5  -7 3059.66 207.772   3
   7  -5   7 3052.25 148.947   2
   7   5   8 12018.7 431.114   2
   7   5   8 10876.4 220.884   1
  -7   5  -8 12387.4 334.117   1
  -7  -5  -8 12353.1 412.311   3
   7   5   9 2254.74 223.258   2
   7   5   9 1825.98 108.865   1
  -7   5  -9 2186.90 167.773   1
   7   5  10 11084.3 450.527   2
   7   5  10 10116.1 245.913   1
  -7   5 -10 11823.5 355.829   1
  -7   5 -11 2758.84 205.928   1
   7   5  11 2735.42 262.126   2
   7   5  12 621.931 185.251   2
  -7   5 -12 852.373 148.219   1
  -7   5 -13 3551.49 244.108   1
   7   5  13 3261.07 298.618   2
   7   5  14 765.971 201.592   2
   7   7 -19 2777.38 311.259   1
   7  -7 -19 2883.65 322.618   1
   7  -7 -18 367.883 218.010   1
   7   7 -18 104.244 189.320   1
   7   7 -17-37.1915 190.883   1
   7  -7 -17 554.275 219.121   1
   7  -7 -16 759.418 226.054   1
   7   7 -16 769.011 207.137   1
   7   7 -15 397.235 185.139   1
   7  -7 -15 248.414 192.053   1
   7   7 -14 2017.15 238.625   1
   7  -7 -14 1829.13 246.204   1
   7  -7 -13 19025.4 569.472   1
   7   7 -13 18313.9 559.906   1
   7   7 -12 682.875 169.047   1
   7  -7 -12 1128.74 208.454   1
   7  -7 -11 533.950 137.492   2
   7   7 -11 396.872 151.447   1
   7  -7 -11 567.996 173.037   1
   7  -7 -10 255.010 114.168   2
   7   7 -10 274.157 140.067   1
   7  -7 -10 311.629 148.758   1
  -7   7  10 585.308 147.204   1
   7   7  -9 248.943 125.926   1
   7  -7  -9 407.214 120.460   2
  -7   7   9 670.835 155.317   1
   7   7  -8 1387.67 162.979   1
  -7   7   8 1031.29 157.783   1
   7  -7  -8 1151.12 140.390   2
  -7   7   7 34877.2 629.677   1
   7   7  -7 31798.6 572.986   1
   7  -7  -7 32122.1 548.454   2
  -7   7   6 1334.34 161.985   1
   7   7  -6 845.882 134.361   1
   7  -7  -6 998.009 118.317   2
   7   7  -5 14490.7 360.956   1
  -7   7   5 14105.6 383.536   1
   7  -7  -5 14164.8 321.302   2
   7  -7  -4 536.026 86.8180   2
  -7   7   4 625.563 129.460   1
   7   7  -4 424.078 103.058   1
   7   7  -3 883.674 66.7550   3
   7   7  -3 692.585 104.791   1
   7  -7  -3 903.244 87.9933   2
   7   7  -2 2342.30 83.8496   3
   7  -7  -2 2637.04 192.710   3
   7  -7  -2 2341.08 104.245   2
   7  -7  -1 21739.9 459.740   3
   7  -7  -1 20400.8 235.024   2
   7  -7   0 7108.34 281.575   3
   7  -7   1-55.2970 114.737   3
  -7  -7  -1 229.513 62.2683   3
   7  -7   2 390.784 123.321   3
  -7  -7  -2 403.063 72.9252   3
  -7   7  -2 617.041 130.812   3
  -7  -7  -3 5575.38 194.668   3
   7   7   3 5877.42 282.621   2
   7   7   3 5553.01 163.065   1
  -7   7  -3 6013.14 275.793   3
   7  -7   3 5732.39 279.487   3
   7   7   4 20398.3 508.724   2
   7   7   4 19285.5 296.413   1
  -7  -7  -4 20535.9 391.858   3
  -7   7  -4 20756.2 505.409   3
   7   7   5 18885.8 513.368   2
  -7  -7  -5 18875.1 405.599   3
   7   7   5 17898.3 286.922   1
   7   7   6 7619.33 345.849   2
   7   7   6 7181.60 190.043   1
  -7  -7  -6 7502.64 280.119   3
   7   7   7 173.753 141.300   2
  -7  -7  -7 111.160 92.0983   3
   7   7   7 24.4885 67.5489   1
  -7   7  -7 130.394 99.2591   1
   7   7   8 2302.79 230.814   2
  -7  -7  -8 2255.93 191.852   3
  -7   7  -8 2235.73 183.691   1
   7   7   8 2212.52 125.738   1
   7   7   9 149.556 70.6381   1
   7   7   9 12.9079 140.363   2
  -7   7  -9-3.42262 105.122   1
   7   7  10 14939.2 537.644   2
  -7   7 -10 14845.9 425.485   1
   7   7  11 6753.53 393.198   2
  -7   7 -11 7217.59 322.302   1
   7   7  12 77.8212 155.457   2
  -7   7 -12 128.056 125.960   1
  -7   7 -13 4635.06 286.129   1
   7   7  13 4215.24 349.629   2
   7   7  14 31.0274 172.690   2
   7   9 -19 913.463 239.976   1
   7   9 -18 4562.54 376.154   1
   7   9 -17 244.857 189.581   1
   7   9 -16 2751.37 290.323   1
   7   9 -15 51.7616 174.013   1
   7   9 -14 149.701 165.860   1
   7   9 -13 2921.59 271.198   1
   7   9 -12 57.9043 151.858   1
   7   9 -11 2141.31 219.143   1
   7  -9 -10 9319.36 371.547   2
   7   9 -10 8933.29 378.574   1
   7  -9  -9 3350.14 224.553   2
   7   9  -9 3254.22 238.848   1
   7  -9  -8 13436.8 395.234   2
  -7   9   8 13899.5 445.937   1
   7   9  -8 13227.8 419.245   1
   7  -9  -7 65.3815 88.6716   2
  -7   9   7 42.0001 121.633   1
   7   9  -7-92.0624 126.288   1
   7  -9  -6 420.588 98.2537   2
   7   9  -6 344.898 123.985   1
  -7   9   6 697.938 151.649   1
   7   9  -5-17.7957 107.760   1
   7  -9  -5 165.602 77.3953   2
  -7   9   5 199.331 120.745   1
   7  -9  -4 23130.1 387.648   2
  -7   9   4 24697.4 523.824   1
   7  -9  -3 55.5764 56.4489   2
   7  -9  -2 14537.3 243.838   2
   7  -9  -2 14648.7 403.187   3
   7  -9  -1 95.0447 34.9956   2
   7  -9  -1 110.834 111.191   3
   7  -9   0 6018.80 272.732   3
   7  -9   1 2523.89 198.764   3
   7  -9   2 12789.5 402.450   3
   7   9   2 12612.1 412.592   2
  -7  -9  -2 12696.9 233.421   3
   7  -9   3 190.357 120.668   3
   7   9   3 206.878 126.579   2
  -7  -9  -3 67.4936 64.1162   3
   7   9   4 18140.3 346.133   1
   7   9   4 18983.3 525.961   2
  -7  -9  -4 18763.8 356.100   3
   7  -9   4 19070.7 517.798   3
   7   9   5 7327.74 351.836   2
   7   9   5 6434.80 221.736   1
  -7  -9  -5 7039.46 245.242   3
   7   9   6 1077.73 185.345   2
  -7  -9  -6 1235.75 132.373   3
   7   9   6 1434.95 127.418   1
   7   9   7 846.605 173.426   2
  -7  -9  -7 918.454 128.754   3
   7   9   7 957.854 112.533   1
   7   9   8 10620.7 453.734   2
   7   9   8 9564.47 275.291   1
  -7  -9  -8 10688.6 370.002   3
  -7   9  -8 11209.6 379.820   1
   7   9   9 245.319 160.886   2
  -7   9  -9 418.085 134.969   1
   7   9  10 5379.38 365.225   2
  -7   9 -10 5894.10 305.991   1
  -7   9 -11 540.858 149.098   1
   7   9  11 668.059 200.659   2
  -7   9 -12 37.3637 132.363   1
   7   9  12-140.032 175.302   2
  -7   9 -13 2550.30 242.028   1
   7   9  13 2768.48 308.130   2
   7  11 -18 416.153 224.602   1
   7  11 -17 320.904 204.319   1
   7  11 -16 1894.94 263.160   1
   7  11 -15 6748.78 415.255   1
   7  11 -14 532.693 188.930   1
   7  11 -13 6049.00 371.180   1
   7  11 -12-28.5507 158.456   1
   7  11 -11 2153.90 232.756   1
   7  11 -10 17.7694 147.164   1
   7 -11  -9 1515.38 176.382   2
   7  11  -9 1351.66 192.401   1
   7 -11  -8 278.295 108.074   2
   7  11  -8 375.314 141.223   1
   7 -11  -7 11743.3 364.102   2
   7  11  -7 11694.3 411.073   1
   7 -11  -6 13.2369 81.7200   2
   7 -11  -5 24558.9 454.226   2
  -7  11   5 25634.3 584.599   1
   7 -11  -4 2146.61 138.748   2
   7 -11  -3 461.872 79.9108   2
   7 -11  -3 503.133 135.222   3
   7 -11  -2 4865.81 254.834   3
   7 -11  -1 9543.56 350.677   3
   7 -11   0-139.347 128.771   3
   7 -11   1 5087.68 267.196   3
   7  11   2 7920.23 356.759   2
   7 -11   2 7715.46 332.998   3
  -7 -11  -2 7595.30 153.073   3
   7  11   3 458.397 155.621   2
   7 -11   3 374.986 139.432   3
  -7 -11  -3 399.592 65.2639   3
   7  11   4 5697.06 326.761   2
  -7 -11  -4 5815.11 190.649   3
   7  11   5 9691.21 420.447   2
  -7 -11  -5 10123.1 278.528   3
   7  11   5 9683.05 305.431   1
   7  11   6 363.364 160.543   2
  -7 -11  -6 366.288 93.4532   3
   7  11   6 310.953 108.407   1
   7  11   7 7167.67 272.020   1
  -7 -11  -7 8042.82 295.035   3
   7  11   7 8007.67 407.626   2
   7  11   8 2174.42 257.226   2
  -7 -11  -8 1973.64 174.741   3
   7  11   9 3053.54 292.742   2
  -7  11  -9 3138.69 247.838   1
   7  11  10 2835.85 300.389   2
  -7  11 -10 2938.71 251.904   1
   7  11  11 3057.77 315.179   2
  -7  11 -11 3305.62 268.329   1
  -7  11 -12 983.222 191.459   1
   7  11  12 842.617 224.430   2
   7  13 -17 245.734 207.728   1
   7  13 -16 5604.34 409.848   1
   7  13 -15-175.818 189.227   1
   7  13 -14 216.201 178.202   1
   7  13 -13-179.649 178.111   1
  -7  13  12 327.481 158.981   2
   7  13 -12 265.785 169.748   1
  -7  13  11-15.5719 135.581   2
   7  13 -11-63.8385 159.004   1
   7  13 -10 3724.48 292.245   1
  -7  13  10 3742.20 276.685   2
  -7  13   9 684.902 156.461   2
   7  13  -9 756.597 102.697   3
   7  13  -9 866.167 185.864   1
   7 -13  -8 1902.55 187.819   2
   7  13  -8 2069.98 123.307   3
   7  13  -8 2189.14 228.025   1
  -7  13   8 2075.89 203.237   2
   7 -13  -7 419.424 117.721   2
   7  13  -7 391.182 62.2369   3
  -7  13   7 399.349 127.228   2
   7 -13  -6 882.736 129.966   2
   7  13  -6 337.124 38.4856   3
  -7  13   6 708.113 132.070   2
   7 -13  -5 1945.90 153.890   2
  -7  13   5 2206.90 169.104   2
   7 -13  -4 6318.44 235.037   2
   7 -13  -4 5827.55 291.272   3
   7 -13  -3 398.536 135.794   3
   7 -13  -2 59.5367 117.488   3
   7 -13  -1 1544.35 175.809   3
   7 -13   0 6908.40 317.659   3
   7  13   1 4106.84 281.270   2
   7 -13   1 3695.00 251.269   3
   7  13   2 20993.1 598.474   2
   7 -13   2 21586.8 562.080   3
   7  13   3 570.045 172.472   2
  -7 -13  -3 433.988 46.9412   3
   7 -13   3 352.508 145.171   3
   7  13   4 5914.88 350.078   2
  -7 -13  -4 5447.06 163.672   3
   7  13   5 2808.67 268.485   2
   7  13   5 2668.24 202.183   1
  -7 -13  -5 2878.78 144.049   3
   7  13   6 233.879 124.202   1
   7  13   6 269.794 169.683   2
   7  13   7 65.9498 160.152   2
   7  13   8 5199.32 373.135   2
   7  13   9 41.7139 173.204   2
   7  13  10 4815.95 375.960   2
  -7  13 -10 5143.10 331.684   1
   7  13  11 345.902 205.078   2
  -7  13 -11 513.599 177.047   1
   7  15 -15 3018.88 332.083   1
   7  15 -14-149.361 198.184   1
   7  15 -13 7601.32 451.387   1
  -7  15  13 7498.92 428.655   2
  -7  15  12-39.4536 155.394   2
   7  15 -12-136.707 184.621   1
   7  15 -11 1630.87 240.706   1
  -7  15  11 1166.85 200.789   2
   7  15 -10 272.283 168.195   1
  -7  15  10 280.896 151.303   2
   7  15  -9 1993.35 246.108   1
  -7  15   9 1940.88 220.123   2
   7  15  -8-38.3318 56.1179   3
   7  15  -8-58.1658 151.261   1
  -7  15   8-11.5570 125.963   2
   7 -15  -7 11888.0 402.118   2
  -7  15   7 11817.2 408.004   2
   7 -15  -6 4269.51 238.653   2
  -7  15   6 4505.98 256.016   2
   7 -15  -5 6784.89 321.731   3
  -7  15   5 7240.01 292.406   2
   7 -15  -4 937.270 167.370   3
  -7  15   4 1017.52 133.692   2
   7 -15  -3 1150.02 170.695   3
   7 -15  -2 1415.17 174.956   3
   7 -15  -1 10666.8 400.970   3
   7  15   0 155.697 154.792   2
   7 -15   0-52.7733 130.505   3
   7  15   1 1640.57 221.456   2
   7 -15   1 1523.41 190.203   3
   7  15   2 6893.42 378.008   2
   7 -15   2 6245.90 337.399   3
   7  15   3 1258.75 215.589   2
   7 -15   3 1433.77 202.968   3
   7  15   4 84.5057 153.326   2
   7  15   5 4484.90 336.973   2
   7  15   6 503.397 183.278   2
   7  15   7 8624.39 467.822   2
   7  15   8 284.139 198.877   2
   7  15   9 405.969 198.400   2
  -7  17  13 213.137 175.082   2
   7  17 -13 14.6416 198.971   1
  -7  17  12 309.561 180.541   2
   7  17 -12 494.188 210.476   1
   7  17 -11 226.213 190.176   1
  -7  17  11 210.762 158.233   2
   7  17 -10 1501.01 249.187   1
  -7  17  10 1555.39 222.107   2
   7  17  -9 502.356 185.721   1
  -7  17   9 351.388 153.306   2
  -7  17   8 3603.14 269.535   2
  -7  17   7 249.831 136.607   2
   7 -17  -6 9305.34 388.331   3
  -7  17   6 10072.5 381.662   2
   7 -17  -5 1001.46 174.638   3
  -7  17   5 1026.16 149.390   2
   7 -17  -4 3512.47 251.846   3
  -7  17   4 3829.30 222.525   2
   7 -17  -3-80.1592 143.001   3
  -7  17   3 288.610 102.460   2
   7 -17  -2 4194.48 273.298   3
   7 -17  -1 474.019 148.531   3
   7  17  -1 893.369 191.083   2
   7 -17   0 1911.14 214.998   3
   7  17   0 1998.00 243.999   2
   7 -17   1 121.606 128.581   3
   7  17   1-17.4260 160.957   2
   7  17   2 1033.20 211.131   2
   7 -17   2 942.702 180.376   3
   7  17   3 306.491 178.745   2
   7  17   4 10876.7 507.896   2
   7  17   5-31.2586 176.839   2
   7  17   6 314.654 186.790   2
   7  17   7 706.732 214.681   2
   7  19 -11 526.287 212.514   1
  -7  19  11 419.367 186.126   2
   7  19 -10 850.621 226.739   1
  -7  19  10 1055.23 211.056   2
   7  19  -9 425.563 197.012   1
  -7  19   9 469.784 173.021   2
  -7  19   8 449.445 163.244   2
   7 -19  -7 3160.10 263.508   3
  -7  19   7 3131.83 257.957   2
   7 -19  -6 127.620 140.031   3
  -7  19   6 34.9665 123.786   2
   7 -19  -5 3113.17 250.069   3
  -7  19   5 3470.67 239.100   2
   7 -19  -4-131.653 138.741   3
  -7  19   4-62.1166 110.706   2
   7 -19  -3-87.0082 141.157   3
   7  19  -2-69.3113 159.234   2
   7 -19  -2-71.9283 143.543   3
   7  19  -1 8810.08 445.262   2
   7 -19  -1 8185.96 391.548   3
   7  19   0 218.591 175.292   2
   7 -19   0 130.913 135.576   3
   7  19   1 926.942 211.027   2
   7 -19   1 1083.31 187.936   3
   7  19   2 972.550 215.259   2
   7  19   3 174.841 178.091   2
   7  19   4 113.134 183.583   2
   7  19   5 2391.23 304.667   2
   7 -21  -6 770.750 178.661   3
   7 -21  -5 48.9088 143.361   3
   7  21  -4 3322.16 309.802   2
   7 -21  -4 2968.92 252.639   3
   7  21  -3-1.86243 163.749   2
   7 -21  -3-202.740 151.900   3
   7  21  -2 2923.19 298.903   2
   7 -21  -2 2516.38 242.215   3
   7 -21  -1 252.283 143.377   3
   7  21  -1 316.886 182.829   2
   7 -21   0 642.740 170.947   3
   7  21   0 811.422 219.605   2
   8   0 -21-301.935 237.286   1
   8   0 -20 9780.42 525.094   1
   8   0 -19 670.210 235.271   1
   8   0 -18 968.864 240.243   1
   8   0 -17 337.214 196.956   1
   8   0 -16 5970.57 371.415   1
   8   0 -15 240.956 180.524   1
   8   0 -14 11474.2 445.234   1
   8   0 -13 201.525 157.274   1
   8   0 -12 21888.6 553.709   1
   8   0 -12 21799.5 557.503   2
  -8   0  12 21834.6 545.092   1
  -8   0  11-43.0094 111.977   1
   8   0 -11 73.4718 135.594   1
   8   0 -10 2348.21 214.289   1
  -8   0  10 2331.55 193.862   1
   8   0  -9 196.537 133.965   1
  -8   0   9 38.4264 97.5090   1
  -8   0   8 13606.3 363.204   1
   8   0  -8 14015.5 378.755   1
   8   0  -7 187.264 125.639   1
  -8   0   7-19.6044 89.8399   1
  -8   0   6 111878. 905.856   1
   8   0  -6 112185. 914.132   1
  -8   0   5 69.7246 80.6798   1
   8   0  -5 235.392 112.778   1
   8   0  -4 588.979 104.221   1
  -8   0   4 847.576 100.264   1
  -8   0   3-61.6470 73.5692   1
   8   0  -3 43.5340 80.6661   1
  -8   0   2 469.655 74.1780   1
   8   0  -2 987.431 134.101   3
   8   0  -2 840.745 94.1995   1
  -8   0   1-112.623 61.0777   1
   8   0  -1-1.90991 94.5058   3
  -8   0   0 17555.0 192.196   1
   8   0   0 18755.6 390.119   3
   8   0   1 38.9236 93.0035   3
  -8   0  -1 140.767 94.4428   3
   8   0   2 16922.1 397.978   3
  -8   0  -2 16719.1 386.824   3
   8   0   3 15.3212 78.5932   2
  -8   0  -3-3.42764 91.1283   3
   8   0   4 4907.70 213.146   2
  -8   0  -4 4735.43 242.288   3
   8   0   5 63.2381 86.2239   2
  -8   0  -5-120.264 112.282   3
   8   0   6 51405.9 697.970   2
  -8   0  -6 51025.2 804.476   3
  -8   0  -7-118.377 58.1846   1
   8   0   7 41.9226 100.804   2
   8   0   8 8044.27 318.235   2
  -8   0  -8 6805.43 175.790   1
   8   0   9-6.51366 108.053   2
  -8   0  -9-255.821 87.7340   1
  -8   0 -10 1850.12 121.297   1
   8   0  10 2200.99 204.309   2
   8   0  11-178.845 132.557   2
  -8   0 -11-145.689 96.7166   1
   8   0  12 3532.14 266.981   2
   8   0  13 56.9200 143.318   2
   8   0  14 4290.54 318.159   2
   8  -2 -20 18.0926 216.043   1
   8   2 -20 528.651 233.652   1
   8  -2 -19 186.094 204.185   1
   8   2 -19 456.926 215.560   1
   8  -2 -18 95.0664 203.042   1
   8   2 -18 419.677 213.582   1
   8  -2 -17 13447.1 551.706   1
   8   2 -17 13280.1 534.520   1
   8  -2 -16-8.77333 191.835   1
   8   2 -16 181.034 181.604   1
   8  -2 -15 1425.19 223.407   1
   8   2 -15 1924.66 233.359   1
   8  -2 -14 1295.38 212.348   1
   8   2 -14 1611.58 214.428   1
   8  -2 -13 935.687 193.230   1
   8   2 -13 1218.74 190.338   1
   8  -2 -12 420.699 165.411   1
  -8   2  12 582.501 141.777   1
   8  -2 -12 498.881 136.116   2
   8   2 -12 530.607 155.667   1
  -8  -2  12 485.342 125.316   1
  -8   2  11 24534.9 558.173   1
  -8  -2  11 24003.7 544.070   1
   8  -2 -11 24076.7 576.481   1
   8   2 -11 23459.5 557.115   1
   8  -2 -11 24735.4 579.312   2
  -8  -2  10 243.713 110.452   1
   8  -2 -10 137.162 146.135   1
  -8   2  10 230.447 115.342   1
   8  -2 -10 308.590 120.508   2
   8   2 -10 160.325 128.037   1
   8  -2  -9 11855.3 381.877   1
  -8   2   9 12209.7 366.668   1
   8   2  -9 12142.9 374.386   1
  -8  -2   9 12243.7 357.980   1
  -8  -2   8-74.5963 99.0188   1
   8  -2  -8-124.401 142.510   1
  -8   2   8-24.8809 109.052   1
   8   2  -8-81.2020 125.785   1
   8   2  -7 2043.04 173.360   1
   8  -2  -7 2332.84 193.962   1
  -8   2   7 2606.29 179.758   1
  -8  -2   7 2288.94 161.327   1
  -8   2   6 139.892 95.7118   1
  -8  -2   6 128.193 82.6131   1
   8   2  -6 63.7821 104.261   1
   8  -2  -6 206.671 125.577   1
   8   2  -5 7982.59 249.379   1
  -8   2   5 9013.11 267.956   1
   8  -2  -5 8710.04 279.552   1
  -8  -2   5 8069.25 239.768   1
   8  -2  -4 5190.52 207.303   1
   8   2  -4 4948.38 183.230   1
  -8   2   4 5323.19 200.306   1
  -8  -2   4 4784.13 173.673   1
   8   2  -3 13214.6 253.900   1
  -8  -2   3 13254.7 248.396   1
  -8   2   3 12967.2 276.492   1
  -8   2   2 16336.0 291.536   1
   8   2  -2 16793.0 323.625   3
   8   2  -2 17052.5 253.134   1
  -8  -2   2 16401.0 243.938   1
   8  -2  -2 17219.6 375.450   3
  -8   2   1 5417.27 165.766   1
   8   2  -1 5915.52 207.095   3
   8  -2  -1 6012.72 238.823   3
   8   2  -1 6393.55 135.173   1
   8   2   0 2798.87 156.999   3
   8  -2   0 2553.67 173.680   3
  -8   2   0 2721.50 119.339   1
  -8   2  -1 27371.1 303.259   1
   8   2   1 26616.2 450.414   3
   8  -2   1 27803.5 506.538   3
  -8  -2  -1 26168.8 441.653   3
  -8   2  -1 27474.9 497.847   3
   8  -2   2-10.7411 102.147   3
  -8  -2  -2 57.4368 83.5896   3
  -8   2  -2 72.6236 96.9867   3
   8  -2   3 18872.9 333.769   2
   8  -2   3 18835.6 454.938   3
  -8  -2  -3 18196.1 406.811   3
  -8   2  -3 18837.3 448.496   3
   8   2   3 18574.3 412.948   2
   8  -2   4 944.943 101.704   2
  -8   2  -4 909.038 72.4173   1
  -8  -2  -4 900.549 124.708   3
  -8   2  -4 926.554 136.998   3
   8   2   4 1111.15 135.049   2
  -8  -2  -5 606.069 118.784   3
   8  -2   5 770.262 100.609   2
   8   2   5 709.445 127.906   2
  -8   2  -5 629.082 123.035   3
  -8   2  -5 726.832 71.3044   1
   8  -2   6 62.5148 78.4366   2
  -8   2  -6 98.4161 62.6068   1
   8   2   6 39.0404 104.167   2
  -8  -2  -6 77.5338 98.5442   3
  -8   2  -7 2503.13 127.180   1
   8   2   7 2180.17 192.197   2
  -8  -2  -7 2365.76 208.304   3
   8  -2   7 2500.52 172.881   2
   8   2   8 1248.57 166.686   2
  -8   2  -8 1361.52 110.564   1
   8  -2   8 1250.66 138.321   2
   8   2   9 10367.8 398.368   2
  -8   2  -9 10746.0 270.353   1
   8  -2   9 10321.1 346.492   2
  -8   2 -10 2769.23 165.333   1
   8  -2  10 2313.11 191.456   2
   8   2  10 2146.57 217.244   2
   8   2  11 1192.42 192.190   2
  -8   2 -11 1316.53 132.385   1
   8  -2  11 1351.05 172.259   2
   8   2  12 524.284 161.723   2
   8  -2  12 341.416 131.890   2
   8  -2  13 87.5206 127.991   2
   8   2  13 64.2726 146.268   2
   8   2  14-73.4850 155.714   2
   8  -4 -20 4233.16 392.844   1
   8   4 -20 4360.90 378.176   1
   8   4 -19 1267.29 246.864   1
   8  -4 -19 1296.40 270.081   1
   8   4 -18 202.182 186.249   1
   8  -4 -18 396.316 216.692   1
   8  -4 -17 1504.40 264.158   1
   8   4 -17 1342.75 233.902   1
   8  -4 -16 928.213 230.744   1
   8   4 -16 452.735 190.239   1
   8   4 -15 139.496 166.631   1
   8  -4 -15 218.443 196.162   1
   8   4 -14 19883.2 588.019   1
   8  -4 -14 20842.8 614.173   1
   8  -4 -13 261.354 177.532   1
   8   4 -13-59.5968 163.329   1
   8   4 -12 6548.73 329.434   1
   8  -4 -12 6877.29 350.654   1
   8   4 -11 1905.15 204.003   1
  -8   4  11 1794.52 186.405   1
  -8  -4  11 1993.72 189.109   1
   8  -4 -11 1801.81 219.555   1
   8  -4 -11 1843.70 188.372   2
   8   4 -10 4522.00 260.787   1
  -8   4  10 3922.92 236.956   1
  -8  -4  10 4578.35 246.681   1
   8  -4 -10 3988.42 266.257   1
   8  -4 -10 4277.41 247.426   2
   8   4  -9 9446.09 338.943   1
  -8  -4   9 9107.30 323.947   1
  -8   4   9 9391.51 338.437   1
   8  -4  -9 9719.05 355.404   1
   8  -4  -9 9920.28 343.975   2
   8   4  -8 40991.3 646.618   1
  -8   4   8 43957.3 678.082   1
  -8  -4   8 41909.6 639.255   1
   8  -4  -8 42131.4 661.174   2
   8  -4  -8 44009.1 684.896   1
   8   4  -7 15564.3 387.170   1
   8  -4  -7 16255.2 418.819   1
  -8  -4   7 16012.7 379.611   1
  -8   4   7 15741.5 397.539   1
   8  -4  -7 15729.8 389.364   2
  -8  -4   6 52094.6 632.644   1
   8  -4  -6 52127.0 682.497   1
  -8   4   6 51014.6 668.391   1
   8   4  -6 52544.3 645.085   1
  -8   4   5 380.646 107.404   1
   8   4  -5 615.327 110.905   1
  -8   4   4 4591.70 209.219   1
   8   4  -4 3867.62 176.536   1
  -8   4   3 458.623 106.411   1
   8   4  -3 506.567 86.5576   1
   8  -4  -2 9258.33 304.604   3
   8   4  -2 8381.45 198.625   1
  -8   4   2 9314.12 255.863   1
   8   4  -2 8544.32 217.415   3
  -8   4   1 45.1659 81.4408   1
   8   4  -1 105.149 55.9940   1
   8   4  -1-67.3017 83.0964   3
   8  -4  -1 39.9903 101.135   3
   8  -4   0 9094.18 310.028   3
   8   4   0 8827.63 238.588   3
   8   4   0 8076.21 144.431   1
  -8  -4  -1 6934.04 219.672   3
   8  -4   1 6612.83 272.104   3
  -8   4  -1 7201.62 277.666   3
   8  -4   2 26519.3 316.097   2
   8  -4   2 27125.8 545.126   3
  -8  -4  -2 26641.9 439.708   3
  -8   4  -2 27518.2 541.176   3
   8  -4   3 3189.97 123.974   2
   8  -4   3 3207.75 222.045   3
   8   4   3 3188.10 208.483   2
  -8  -4  -3 2875.44 169.370   3
  -8   4  -3 3194.92 209.322   3
   8  -4   4 13629.9 256.592   2
  -8  -4  -4 12900.1 350.518   3
   8   4   4 13325.6 390.677   2
  -8   4  -4 13626.2 414.167   3
   8   4   5 1034.36 154.095   2
  -8   4  -5 968.220 100.087   1
  -8  -4  -5 909.204 123.103   3
  -8   4  -5 880.449 147.232   3
   8  -4   5 1057.58 95.9347   2
   8   4   6 5044.18 275.398   2
  -8  -4  -6 4944.64 254.817   3
  -8   4  -6 5103.90 192.299   1
   8  -4   6 5176.02 189.090   2
  -8   4  -7 602.858 94.8998   1
   8   4   7 602.595 150.274   2
  -8  -4  -7 612.932 135.028   3
   8  -4   7 687.372 100.661   2
   8   4   8 2046.21 207.725   2
   8  -4   8 2134.04 150.494   2
  -8   4  -8 2299.11 154.090   1
   8   4   9 47.1901 131.873   2
  -8   4  -9 6.21384 91.4392   1
   8  -4   9-4.76414 85.8503   2
   8   4  10 3375.29 275.618   2
  -8   4 -10 3581.20 201.220   1
   8  -4  10 3423.08 208.587   2
   8   4  11 843.130 190.414   2
  -8   4 -11 786.873 133.248   1
   8   4  12 8784.06 431.935   2
   8   4  13-215.159 170.510   2
   8   4  14 3294.48 310.661   2
   8  -6 -20 126.786 228.684   1
   8   6 -20-203.661 221.154   1
   8   6 -19 828.903 241.335   1
   8  -6 -19 872.306 255.083   1
   8   6 -18 132.930 187.968   1
   8  -6 -18 210.377 212.831   1
   8   6 -17 1193.12 229.463   1
   8  -6 -17 1450.21 250.751   1
   8   6 -16-302.819 205.879   1
   8  -6 -16 260.799 199.239   1
   8   6 -15 12632.2 511.964   1
   8  -6 -15 12880.0 513.747   1
   8  -6 -14 3990.67 316.852   1
   8   6 -14 3786.34 299.685   1
   8   6 -13 811.763 197.163   1
   8  -6 -13 752.349 205.394   1
   8  -6 -12 308.533 179.339   1
   8   6 -12 324.524 157.331   1
   8  -6 -11 363.681 137.254   2
   8   6 -11 353.010 147.862   1
   8  -6 -11 470.757 179.479   1
  -8   6  10 1578.25 183.338   1
   8  -6 -10 1522.79 172.808   2
   8   6 -10 1570.49 186.918   1
   8  -6 -10 1592.24 205.914   1
   8  -6  -9 55298.8 831.340   1
  -8   6   9 55955.0 826.069   1
   8  -6  -9 57213.9 808.634   2
   8   6  -9 56851.2 819.660   1
   8   6  -8 684.658 137.635   1
  -8   6   8 864.363 154.342   1
   8  -6  -8 549.984 119.182   2
  -8   6   7 4512.10 250.408   1
   8   6  -7 3283.94 211.861   1
   8  -6  -7 3625.13 207.253   2
  -8   6   6 3236.31 207.178   1
   8   6  -6 3161.70 193.049   1
   8  -6  -6 3181.99 180.524   2
  -8   6   5 6180.68 263.032   1
   8   6  -5 5078.85 218.252   1
   8  -6  -5 5709.64 216.861   2
  -8   6   4 236.124 115.427   1
   8  -6  -4 211.929 73.2279   2
   8   6  -4 124.593 84.7525   1
  -8   6   3 39395.3 572.032   1
   8   6  -3 38728.0 388.418   3
   8   6  -3 38061.4 494.946   1
   8  -6  -3 40570.7 461.542   2
   8   6  -2 189.306 59.9911   3
  -8   6   2 425.121 103.662   1
   8  -6  -2 605.986 135.823   3
   8   6  -2 305.123 78.3452   1
   8  -6  -2 402.710 65.5999   2
   8   6  -1 2317.55 116.849   3
   8   6  -1 2464.78 123.985   1
   8  -6  -1 2836.15 195.878   3
   8  -6   0 41.0500 112.137   3
   8   6   0 30.4564 54.4900   1
  -8  -6  -1 6927.18 204.714   3
   8  -6   1 6915.34 294.982   3
   8  -6   2 2216.33 190.945   3
  -8  -6  -2 2112.62 132.138   3
  -8   6  -2 2340.86 190.474   3
   8   6   3 16657.7 209.652   1
   8   6   3 19166.4 487.056   2
   8  -6   3 19443.9 502.102   3
  -8  -6  -3 19106.1 381.914   3
  -8   6  -3 19999.9 498.994   3
   8   6   4 31.4311 118.498   2
  -8   6  -4 9.46226 104.221   3
  -8  -6  -4-48.8190 83.4617   3
   8  -6   4 81.3741 32.5819   2
   8   6   4 23.1747 30.8121   1
   8   6   5 10214.1 385.607   2
  -8  -6  -5 9974.67 316.808   3
   8  -6   5 9986.83 182.974   2
   8   6   6 241.589 38.1688   1
   8   6   6 278.653 137.209   2
  -8  -6  -6 467.250 112.649   3
  -8   6  -7 2506.74 171.824   1
   8   6   7 2530.28 231.205   2
  -8  -6  -7 2363.98 196.162   3
   8   6   7 1776.56 79.3439   1
   8   6   8 156.512 136.368   2
   8   6   8 114.046 41.8866   1
  -8   6  -8 123.365 93.6698   1
   8   6   9 15722.7 534.644   2
  -8   6  -9 15748.8 402.812   1
   8   6  10 119.376 156.277   2
  -8   6 -10 131.122 105.796   1
   8   6  11 4235.56 322.400   2
  -8   6 -11 4497.56 245.826   1
   8   6  12 169.909 155.007   2
  -8   6 -12 72.3820 118.391   1
   8   6  13 36.1293 168.606   2
   8  -8 -19 783.817 248.370   1
   8   8 -19 626.870 224.979   1
   8   8 -18 734.879 213.965   1
   8  -8 -18 1028.99 252.665   1
   8   8 -17 628.911 209.938   1
   8  -8 -17 405.443 213.527   1
   8   8 -16 771.075 208.633   1
   8  -8 -16 800.928 231.387   1
   8  -8 -15 706.497 209.969   1
   8   8 -15 616.153 196.930   1
   8   8 -14 1708.79 238.151   1
   8  -8 -14 1536.23 245.955   1
   8   8 -13-17.9429 149.003   1
   8  -8 -13-221.805 187.958   1
   8   8 -12 7672.20 374.779   1
   8   8 -11 674.053 163.744   1
   8   8 -10 202.060 140.996   1
   8  -8 -10 293.434 125.922   2
  -8   8   9 2801.98 231.974   1
   8   8  -9 2366.90 207.387   1
   8  -8  -9 2523.17 198.870   2
  -8   8   8 26329.0 588.714   1
   8   8  -8 24345.9 543.908   1
   8  -8  -8 25228.8 524.970   2
   8  -8  -7 324.027 100.207   2
  -8   8   7 333.669 134.586   1
   8   8  -7 195.625 112.695   1
   8   8  -6 16132.9 413.095   1
  -8   8   6 17083.6 454.965   1
   8  -8  -6 16121.3 372.905   2
  -8   8   5 1930.12 183.740   1
   8   8  -5 1388.95 150.817   1
   8  -8  -5 1526.93 122.836   2
  -8   8   4 2645.04 197.640   1
   8   8  -4 2706.89 171.333   1
   8  -8  -4 2691.35 140.736   2
   8  -8  -3 2285.17 195.497   3
   8   8  -3 1593.25 73.7642   3
   8   8  -3 1854.67 142.155   1
   8  -8  -3 2204.48 117.087   2
   8  -8  -2 8599.83 324.989   3
   8  -8  -2 8726.21 189.379   2
   8  -8  -1 28.7099 31.8267   2
   8  -8  -1 5.38873 115.441   3
   8  -8   0 7749.67 311.079   3
   8  -8   1 899.719 147.062   3
   8  -8   2 10423.2 377.197   3
  -8  -8  -2 10388.6 243.161   3
   8   8   3 1373.90 182.330   2
   8   8   3 1394.18 106.229   1
  -8  -8  -3 1307.50 112.184   3
   8  -8   3 1341.05 176.480   3
   8   8   4 11586.8 420.260   2
   8   8   4 10908.0 239.313   1
   8  -8   4 11921.5 427.449   3
  -8  -8  -4 11796.4 309.538   3
   8   8   5-10.1239 136.595   2
  -8  -8  -5-42.6920 85.1243   3
   8   8   5 251.996 74.5567   1
   8   8   6 1146.19 91.2634   1
   8   8   6 1307.83 195.975   2
  -8  -8  -6 1313.81 145.880   3
   8   8   7 149.180 153.735   2
   8   8   7 171.997 60.2639   1
  -8  -8  -7 115.611 95.7648   3
   8   8   8 3632.49 290.011   2
  -8  -8  -8 3608.18 236.241   3
  -8   8  -8 3861.57 229.711   1
   8   8   8 3298.35 139.016   1
   8   8   9 750.046 193.299   2
  -8   8  -9 415.285 130.949   1
   8   8  10 1643.80 240.237   2
  -8   8 -10 1753.11 183.900   1
  -8   8 -11 224.554 131.902   1
   8   8  11 224.240 166.732   2
  -8   8 -12 3861.70 264.769   1
   8   8  12 4032.72 349.660   2
   8   8  13 60.1766 176.317   2
   8  10 -18 251.866 211.918   1
   8  10 -17 4982.05 395.387   1
   8  10 -16 1703.07 261.480   1
   8  10 -15 3774.89 325.958   1
   8  10 -14 276.501 173.500   1
   8  10 -13 356.841 172.139   1
   8  10 -12-1.97523 148.154   1
   8  10 -11 7987.36 382.129   1
   8  10 -10 81.5023 134.629   1
   8 -10 -10 32.4203 111.875   2
   8 -10  -9 5654.94 282.749   2
   8  10  -9 5579.45 304.285   1
   8 -10  -8 5636.85 267.565   2
   8  10  -8 5250.08 290.476   1
   8 -10  -7 732.245 115.927   2
   8  10  -7 784.397 149.161   1
  -8  10   6 6396.20 317.102   1
   8 -10  -6 5732.88 239.113   2
   8  10  -6 5438.47 272.385   1
   8 -10  -5 8462.57 265.915   2
  -8  10   5 9575.68 363.476   1
   8  10  -5 8026.75 312.940   1
  -8  10   4 655.340 141.921   1
   8 -10  -4 543.368 86.1396   2
   8 -10  -3 28479.6 389.865   2
   8 -10  -3 28605.8 581.148   3
   8 -10  -2 2606.29 111.269   2
   8 -10  -2 3179.55 223.902   3
   8 -10  -1 1708.26 180.481   3
   8 -10   0 2300.02 204.169   3
   8 -10   1 6869.02 313.458   3
   8  10   2 297.207 144.410   2
   8 -10   2 183.587 128.076   3
  -8 -10  -2 352.983 70.5851   3
  -8 -10  -3 23833.3 366.999   3
   8  10   3 23430.3 606.475   2
   8 -10   3 23487.6 589.599   3
   8  10   4 499.584 105.679   1
   8 -10   4 445.687 144.587   3
  -8 -10  -4 359.851 82.9028   3
   8  10   4 539.541 165.225   2
   8  10   5 12289.1 469.452   2
   8  10   5 11444.7 292.526   1
  -8 -10  -5 12083.2 321.158   3
   8  10   6 2745.56 259.226   2
  -8 -10  -6 3027.44 188.799   3
   8  10   6 2896.42 164.270   1
   8  10   7 15847.1 558.429   2
  -8 -10  -7 16038.2 429.140   3
   8  10   7 14389.1 323.139   1
   8  10   8 488.161 178.755   2
  -8 -10  -8 498.545 121.620   3
   8  10   9 9510.02 469.762   2
  -8  10  -9 10415.4 397.129   1
   8  10  10-76.3846 176.424   2
  -8  10 -10 54.5533 127.628   1
   8  10  11 3529.55 331.944   2
  -8  10 -11 3406.88 259.183   1
  -8  10 -12 394.031 158.277   1
   8  10  12 265.892 208.088   2
   8  12 -17 546.490 225.067   1
   8  12 -16 362.243 202.932   1
   8  12 -15 358.320 192.716   1
   8  12 -14 3037.47 302.145   1
   8  12 -13 113.926 162.851   1
   8  12 -12 2405.31 256.505   1
   8  12 -11 696.563 187.486   1
   8  12 -10-66.8499 157.188   1
   8 -12  -9 1290.14 172.131   2
   8  12  -9 1156.97 186.679   1
   8 -12  -8 3377.78 226.762   2
   8  12  -8 3365.85 259.519   1
   8 -12  -7 216.970 97.9875   2
   8  12  -7 245.610 137.356   1
   8 -12  -6 13386.9 367.641   2
   8  12  -6 13342.5 435.087   1
   8 -12  -5 2470.89 161.405   2
   8 -12  -4 463.860 86.0738   2
   8 -12  -4 809.152 164.725   3
   8 -12  -3 782.278 90.5499   2
   8 -12  -3 756.632 153.441   3
   8 -12  -2 119.565 122.200   3
   8 -12  -1 12443.2 422.289   3
   8 -12   0 22229.1 559.803   3
   8 -12   1 942.467 170.059   3
   8 -12   2 2333.51 221.377   3
   8  12   2 2745.59 250.495   2
   8 -12   3 313.955 146.355   3
  -8 -12  -3 426.941 67.9722   3
   8  12   3 575.765 176.356   2
   8  12   4 3994.45 295.596   2
  -8 -12  -4 4234.41 165.325   3
   8  12   4 3910.55 210.327   1
   8  12   5 737.802 178.799   2
   8  12   5 605.502 129.230   1
  -8 -12  -5 511.748 90.4398   3
   8  12   6 4621.00 332.872   2
   8  12   6 4223.21 219.008   1
  -8 -12  -6 4641.48 213.215   3
   8  12   7-75.6619 173.469   2
   8  12   8 1407.01 238.034   2
   8  12   9 1723.74 255.866   2
  -8  12  -9 1740.89 208.352   1
   8  12  10 2533.28 299.359   2
  -8  12 -10 2461.79 242.543   1
   8  12  11 48.6809 186.430   2
  -8  12 -11 120.655 148.257   1
   8  14 -16 571.794 226.273   1
   8  14 -15 1616.43 266.447   1
   8  14 -14 732.197 208.382   1
   8  14 -13 350.090 188.315   1
   8  14 -12 929.123 211.855   1
   8  14 -11 3056.72 290.606   1
   8  14 -10 339.964 93.4152   3
   8  14 -10 397.264 167.855   1
   8  14  -9 2428.44 136.581   3
   8  14  -9 2419.72 252.561   1
   8 -14  -8 6575.88 309.810   2
   8  14  -8 5480.11 163.696   3
   8  14  -8 6629.52 362.308   1
   8 -14  -7 343.678 113.886   2
   8  14  -7 300.760 147.494   1
   8 -14  -6 2679.91 190.003   2
   8 -14  -5 4948.37 228.936   2
   8 -14  -5 4844.50 287.475   3
   8 -14  -4 797.870 168.211   3
   8 -14  -3 2288.48 215.418   3
   8 -14  -2 260.935 135.785   3
   8 -14  -1 212.247 133.022   3
   8 -14   0-162.894 148.383   3
   8  14   1 6981.30 374.062   2
   8 -14   1 7264.53 358.937   3
   8  14   2 5805.15 352.572   2
   8 -14   2 5646.77 324.784   3
   8  14   3 17152.5 584.203   2
   8 -14   3 16482.8 545.578   3
   8  14   4 1141.80 211.184   2
   8  14   5 911.319 209.494   2
   8  14   6 2763.76 288.653   2
   8  14   7 965.203 217.872   2
   8  14   8 117.379 180.447   2
   8  14   9 4088.28 360.750   2
   8  16 -14 2937.91 322.002   1
   8  16 -13-155.101 199.626   1
   8  16 -12 1589.68 247.700   1
   8  16 -11 548.770 195.022   1
   8  16 -10 853.242 209.547   1
   8  16  -9 4720.16 342.664   1
   8  16  -8 4735.72 333.920   1
   8 -16  -7 287.316 119.547   2
   8 -16  -6 5151.35 306.424   3
   8 -16  -5 133.655 136.806   3
   8 -16  -4 428.328 150.850   3
   8 -16  -3 1612.06 200.449   3
   8 -16  -2 5285.40 314.512   3
   8 -16  -1 73.9210 140.093   3
   8  16   0 5767.35 360.620   2
   8 -16   0 5431.59 322.038   3
   8  16   1 141.658 161.952   2
   8 -16   1-31.9628 133.158   3
   8  16   2 891.919 212.323   2
   8 -16   2 700.609 175.014   3
   8  16   3 7416.08 420.331   2
   8 -16   3 7893.11 398.503   3
   8  16   4-141.556 166.848   2
   8  16   5 121.790 175.179   2
   8  16   6 8520.55 475.146   2
   8  16   7 92.0030 186.753   2
   8  18 -12 297.796 197.293   1
   8  18 -11 458.526 211.121   1
   8  18 -10 716.251 214.366   1
   8  18  -9 1677.72 253.575   1
   8  18  -8 435.694 186.401   1
   8 -18  -7 720.168 183.273   3
   8 -18  -6 543.466 170.699   3
   8 -18  -5 237.229 145.624   3
   8 -18  -4 894.091 170.094   3
   8 -18  -3 3530.98 272.015   3
   8 -18  -2 2140.32 225.322   3
   8  18  -1 1251.26 226.662   2
   8 -18  -1 1139.21 192.617   3
   8 -18   0 857.033 181.376   3
   8  18   0 936.481 208.979   2
   8  18   1 1636.71 247.904   2
   8 -18   1 1278.06 204.718   3
   8  18   2 965.550 213.699   2
   8 -18   2 1001.22 200.423   3
   8  18   3 2988.75 312.349   2
   8  18   4 482.112 204.243   2
   8  18   5 544.495 211.896   2
   8  20  -8 768.381 213.822   1
   8 -20  -8 1157.83 209.051   3
   8 -20  -7 297.784 163.747   3
   8 -20  -6 3880.06 291.944   3
   8 -20  -5 1012.80 185.096   3
   8 -20  -4 634.736 165.603   3
   8  20  -3 1130.36 224.367   2
   8 -20  -3 981.369 187.551   3
   8 -20  -2 1955.71 230.064   3
   8  20  -2 2238.71 279.079   2
   8  20  -1-146.725 177.450   2
   8 -20  -1-30.1943 144.840   3
   8  20   0 1861.66 269.696   2
   8 -20   0 1702.26 231.627   3
   8  20   1 1540.63 255.514   2
   8 -20   1 1290.80 221.233   3
   9  -1 -21 1600.69 298.630   1
   9   1 -21 2562.96 336.503   1
   9  -1 -20-164.531 233.979   1
   9   1 -20 603.943 244.548   1
   9  -1 -19 210.002 216.916   1
   9   1 -19 905.118 244.160   1
   9  -1 -18 4283.38 361.424   1
   9   1 -18 5341.12 388.273   1
   9   1 -17 689.704 216.453   1
   9  -1 -17 732.456 225.598   1
   9   1 -16 1331.66 235.979   1
   9  -1 -16 1580.02 255.926   1
   9  -1 -15 1899.54 252.128   1
   9   1 -15 1496.85 234.316   1
   9   1 -14 2252.67 245.030   1
   9  -1 -14 2411.26 259.411   1
   9   1 -13 5328.60 314.923   1
   9  -1 -13 5733.78 331.373   1
   9   1 -12 8270.00 363.064   1
   9  -1 -12 8015.77 358.709   2
  -9  -1  12 8424.55 353.147   1
   9  -1 -12 8570.61 375.211   1
  -9   1  12 8088.98 350.883   1
  -9  -1  11 120.712 111.086   1
   9   1 -11 96.0567 130.437   1
  -9   1  11 158.215 113.587   1
   9  -1 -11 364.895 159.956   1
  -9   1  10 16260.9 440.535   1
   9   1 -10 16452.6 449.056   1
  -9  -1  10 15676.5 432.889   1
   9  -1 -10 16872.7 464.285   1
   9  -1  -9 10770.3 368.640   1
  -9   1   9 10171.1 344.215   1
   9   1  -9 10170.0 350.161   1
  -9  -1   9 10643.1 344.119   1
   9   1  -8 321.335 128.724   1
  -9  -1   8 431.271 112.440   1
  -9   1   8 430.740 113.640   1
   9  -1  -8 278.777 136.754   1
   9  -1  -7 24412.9 485.885   1
  -9   1   7 23779.7 463.372   1
   9   1  -7 24098.2 468.317   1
  -9  -1   7 23810.7 460.141   1
  -9   1   6 2007.62 153.106   1
   9  -1  -6 2055.06 169.014   1
   9   1  -6 2062.26 168.217   1
  -9  -1   6 2158.10 155.951   1
  -9   1   5 5262.04 205.633   1
   9  -1  -5 5835.28 228.360   1
   9   1  -5 5984.37 220.516   1
  -9  -1   5 5621.99 207.690   1
  -9   1   4 5294.71 195.404   1
   9  -1  -4 5931.98 213.072   1
   9   1  -4 5593.55 199.263   1
  -9  -1   4 5349.28 190.158   1
   9   1  -3 1843.23 118.479   1
  -9   1   3 1772.41 116.045   1
   9  -1  -3 1741.09 122.939   1
   9   1  -3 2191.51 153.951   3
  -9  -1   3 2141.26 113.543   1
   9   1  -2 33820.0 361.777   1
   9   1  -2 32665.4 496.191   3
   9  -1  -2 33499.9 529.523   3
  -9   1   2 33235.7 384.476   1
  -9  -1   2 33743.5 351.889   1
   9   1  -1 12081.9 317.575   3
  -9   1   1 12842.8 221.732   1
   9  -1  -1 12560.9 342.777   3
  -9  -1   1 12072.1 179.518   1
  -9   1   0 330.820 59.1410   1
   9   1   0 256.198 99.6957   3
   9  -1   0 29.6566 107.591   3
   9   1   1 30822.7 525.793   3
  -9  -1  -1 30048.6 510.676   3
  -9   1  -1 30125.2 532.175   3
  -9   1  -1 27003.2 247.619   1
   9  -1   1 30489.2 551.493   3
  -9   1  -2 5294.89 100.389   1
   9  -1   2 6266.91 273.838   3
   9   1   2 5746.67 254.790   3
  -9  -1  -2 6325.94 258.515   3
  -9   1  -2 6413.14 269.388   3
   9  -1   3 190.973 85.7881   2
   9   1   3 49.6818 88.8633   2
  -9  -1  -3 139.873 94.1283   3
  -9   1  -3 94.2311 104.807   3
  -9   1  -4 1196.69 48.1247   1
   9  -1   4 1936.80 143.464   2
   9   1   4 1839.75 155.307   2
  -9   1  -4 1234.06 47.2790   1
  -9   1  -4 1845.62 172.846   3
  -9  -1  -4 1871.30 170.295   3
   9  -1   5 13867.4 353.326   2
   9   1   5 13935.7 385.866   2
  -9  -1  -5 13846.8 420.333   3
  -9   1  -5 13472.7 427.672   3
   9  -1   6 509.981 110.229   2
   9   1   6 485.814 122.104   2
  -9   1  -6 468.143 48.6115   1
   9  -1   7 115.164 102.248   2
   9   1   7 114.463 117.135   2
  -9   1  -7 211.285 51.2792   1
   9   1   8 8347.04 342.097   2
  -9   1  -8 7785.98 178.934   1
   9  -1   8 8174.94 317.339   2
   9  -1   9 53.6633 104.170   2
   9   1   9 119.658 122.978   2
  -9   1  -9-161.406 73.2739   1
   9  -1  10 203.923 119.162   2
   9   1  10 83.7805 126.509   2
   9   1  11 557.236 156.680   2
   9  -1  11 756.629 153.999   2
   9   1  12 509.017 163.739   2
   9  -1  12 687.205 162.140   2
   9  -1  13 3262.30 268.250   2
   9   1  13 3557.49 292.704   2
   9   3 -20 1008.36 258.751   1
   9  -3 -20 393.177 234.697   1
   9   3 -19 324.182 212.852   1
   9  -3 -19 171.471 212.899   1
   9   3 -18 1827.12 270.847   1
   9  -3 -18 1540.84 269.523   1
   9   3 -17 254.750 188.736   1
   9  -3 -17 53.5709 191.969   1
   9   3 -16 2529.99 273.239   1
   9  -3 -16 2508.79 275.454   1
   9  -3 -15 2352.56 276.859   1
   9   3 -15 2292.26 257.337   1
   9  -3 -14 2589.47 267.345   1
   9   3 -14 2463.08 241.969   1
   9  -3 -13 8944.11 405.386   1
   9   3 -13 9173.39 397.947   1
   9  -3 -12 594.571 177.381   1
   9   3 -12 338.358 148.928   1
  -9  -3  11 1468.34 168.060   1
  -9   3  11 1121.48 147.745   1
   9  -3 -11 1276.11 189.390   1
   9   3 -11 1243.69 175.324   1
   9  -3 -11 1485.82 180.281   2
  -9   3  10 1799.14 175.160   1
   9  -3 -10 1904.12 209.983   1
  -9  -3  10 1753.88 171.472   1
   9   3 -10 1535.22 176.115   1
   9  -3 -10 1742.06 178.005   2
   9   3  -9 19108.0 471.905   1
  -9   3   9 20384.1 485.960   1
   9  -3  -9 20078.2 498.225   1
  -9  -3   9 20043.7 470.096   1
   9   3  -8 7156.30 288.227   1
  -9   3   8 6689.94 274.687   1
   9  -3  -8 7078.24 301.465   1
  -9  -3   8 7071.43 271.096   1
   9   3  -7 23795.7 475.584   1
  -9   3   7 24478.4 482.822   1
  -9  -3   7 24580.8 464.114   1
   9  -3  -7 24650.9 498.997   1
   9  -3  -6 10227.0 319.311   1
   9   3  -6 10533.3 302.378   1
  -9   3   6 10261.6 309.695   1
  -9  -3   6 10556.9 290.869   1
   9   3  -5 13343.3 315.145   1
  -9  -3   5 13508.5 307.540   1
   9  -3  -5 13491.0 339.974   1
  -9   3   5 13594.3 334.675   1
   9   3  -4 19237.1 346.408   1
  -9  -3   4 19420.3 338.030   1
  -9   3   4 19275.3 376.762   1
  -9   3   3 122.985 91.1936   1
   9   3  -3 65.8452 72.0778   1
  -9   3   2 2908.07 152.280   1
   9   3  -2 3305.29 124.786   1
   9   3  -2 3237.00 163.853   3
   9  -3  -2 3291.86 200.939   3
  -9   3   1 1531.33 119.503   1
   9  -3  -1 1463.05 157.702   3
   9   3  -1 1129.18 116.299   3
   9   3  -1 1436.49 78.6747   1
   9   3   0 6274.63 229.586   3
   9  -3   0 6996.25 284.676   3
  -9   3   0 7238.11 198.481   1
   9   3   1 46635.8 618.345   3
   9  -3   1 46524.4 700.381   3
  -9   3  -1 45523.2 447.890   1
  -9  -3  -1 44390.8 586.933   3
  -9   3  -1 45553.0 678.241   3
   9  -3   2 9029.82 227.473   2
   9  -3   2 8818.39 337.108   3
  -9  -3  -2 8881.62 283.071   3
  -9   3  -2 8982.61 329.411   3
   9  -3   3 163.207 72.1073   2
   9  -3   3 202.549 123.698   3
   9   3   3 250.975 116.766   2
  -9  -3  -3 163.802 90.5972   3
  -9   3  -3 327.950 118.280   3
   9  -3   4 7122.42 219.149   2
   9   3   4 7268.79 298.510   2
  -9  -3  -4 7094.94 282.329   3
  -9   3  -4 7337.75 181.057   1
  -9   3  -4 7347.19 319.223   3
   9  -3   5 432.177 88.6361   2
   9   3   5 398.862 132.485   2
  -9  -3  -5 255.190 112.970   3
  -9   3  -5 261.317 67.6223   1
  -9   3  -6 54.0242 64.7145   1
   9  -3   6 228.415 87.3359   2
   9   3   6 133.711 121.266   2
  -9  -3  -6-78.9113 113.781   3
   9   3   7 2816.07 226.928   2
   9  -3   7 2978.63 177.183   2
  -9   3  -7 3258.35 148.335   1
   9   3   8 2004.11 212.041   2
  -9   3  -8 2172.64 134.210   1
   9  -3   8 1977.72 161.807   2
   9   3   9-44.7747 134.300   2
  -9   3  -9 13.5326 82.3963   1
   9  -3   9 49.9556 92.1326   2
   9   3  10 5909.32 340.261   2
  -9   3 -10 6446.50 226.837   1
   9  -3  10 6206.64 283.093   2
   9   3  11 1727.34 217.515   2
   9  -3  11 1770.67 180.578   2
   9   3  12-2.84356 153.777   2
   9  -3  12 111.756 113.322   2
   9   3  13 2200.67 260.059   2
   9   5 -20 1165.32 263.198   1
   9  -5 -20 976.519 275.825   1
   9   5 -19 227.131 207.372   1
   9  -5 -19 437.685 236.597   1
   9  -5 -18 503.948 237.196   1
   9   5 -18 470.340 209.984   1
   9  -5 -17 821.735 230.013   1
   9   5 -17 646.300 203.385   1
   9   5 -16 5466.76 360.863   1
   9  -5 -16 5463.77 380.386   1
   9  -5 -15 1667.53 260.798   1
   9   5 -15 977.051 210.566   1
   9  -5 -14 213.446 186.513   1
   9   5 -14-149.768 188.243   1
   9   5 -13 513.442 160.880   1
   9  -5 -13 960.903 208.901   1
   9   5 -12 2100.97 219.652   1
   9  -5 -12 2322.49 254.170   1
   9   5 -11 2363.45 219.542   1
  -9  -5  11 2274.84 197.845   1
   9  -5 -11 2116.65 202.424   2
   9  -5 -11 2344.16 234.478   1
   9   5 -10 33984.6 662.534   1
   9  -5 -10 36193.2 698.676   1
  -9   5  10 34397.0 671.691   1
  -9  -5  10 33765.7 637.819   1
   9  -5 -10 34939.3 669.467   2
   9  -5  -9 1196.21 192.209   1
   9   5  -9 879.778 159.810   1
  -9  -5   9 1105.71 149.232   1
  -9   5   9 1263.46 174.176   1
   9  -5  -9 931.716 147.530   2
   9   5  -8 3387.78 216.248   1
   9  -5  -8 3365.10 233.595   1
  -9   5   8 3433.83 220.905   1
   9  -5  -8 3511.22 214.248   2
   9  -5  -7 23751.3 509.620   1
   9  -5  -7 24259.7 488.160   2
  -9   5   7 23531.7 498.872   1
   9   5  -7 23794.1 481.698   1
  -9   5   6 21680.3 469.679   1
   9   5  -6 20263.2 427.867   1
  -9   5   5 4112.61 217.889   1
   9   5  -5 4032.93 198.750   1
  -9   5   4 2456.98 176.975   1
   9   5  -4 2003.81 140.951   1
   9   5  -3 54.5186 72.2867   1
  -9   5   3 144.267 102.760   1
   9   5  -3 154.362 75.5891   3
  -9   5   2 3864.72 190.358   1
   9   5  -2 3830.07 158.686   3
   9  -5  -2 4323.75 231.719   3
   9   5  -2 4264.96 156.627   1
   9   5  -1 11820.5 270.694   3
   9  -5  -1 12136.1 370.671   3
  -9   5   1 11514.8 290.938   1
   9   5  -1 12280.9 224.151   1
   9   5   0 146.061 45.3575   1
   9   5   0 127.908 76.0699   3
   9  -5   0 45.6658 118.336   3
   9   5   1 2637.44 75.8315   1
   9  -5   1 3791.72 230.648   3
  -9  -5  -1 4277.78 185.067   3
   9  -5   2 14790.7 231.688   2
   9  -5   2 15038.8 439.602   3
  -9  -5  -2 14514.7 341.598   3
  -9   5  -2 15188.7 433.248   3
   9  -5   3 6993.25 168.112   2
   9  -5   3 6928.07 321.016   3
   9   5   3 7230.73 314.148   2
  -9  -5  -3 7068.09 257.722   3
  -9   5  -3 7411.54 326.546   3
   9   5   4 6722.70 310.834   2
  -9  -5  -4 6614.69 263.989   3
   9  -5   4 6936.84 178.822   2
  -9  -5  -5 2387.71 181.961   3
   9   5   5 2566.47 221.860   2
   9  -5   5 2448.57 121.766   2
   9   5   6 182.265 131.331   2
  -9  -5  -6 53.0784 104.261   3
  -9   5  -6 203.134 89.2481   1
   9  -5   6 155.207 69.7636   2
   9   5   7 1977.23 217.848   2
  -9   5  -7 1845.80 144.117   1
   9  -5   7 1845.38 128.550   2
   9   5   8 1487.92 206.167   2
   9  -5   8 1657.77 135.524   2
  -9   5  -8 1656.95 145.202   1
   9   5   9 512.483 161.231   2
  -9   5  -9 656.050 116.554   1
   9  -5   9 536.968 102.959   2
   9   5  10 7598.87 398.252   2
  -9   5 -10 7958.26 287.956   1
   9   5  11 3441.95 299.619   2
   9   5  12 325.380 171.363   2
   9   5  13 2304.85 274.744   2
   9  -7 -20 409.500 245.076   1
   9  -7 -19 595.390 238.116   1
   9   7 -19 641.517 221.920   1
   9  -7 -18 349.969 229.881   1
   9   7 -18-63.5518 194.906   1
   9  -7 -17 309.147 226.269   1
   9   7 -17-135.263 199.035   1
   9   7 -16 2952.56 297.633   1
   9  -7 -16 3228.66 314.250   1
   9   7 -15 619.646 202.165   1
   9  -7 -15 442.958 213.247   1
   9   7 -14 4093.97 315.800   1
   9  -7 -14 3966.90 319.356   1
   9   7 -13 7773.06 391.692   1
   9  -7 -13 7154.07 386.860   1
   9   7 -12 132.023 143.721   1
   9  -7 -12 36.3964 173.536   1
   9  -7 -11 935.458 155.643   2
   9   7 -11 1107.70 180.119   1
   9  -7 -11 941.919 194.328   1
   9  -7 -10 7905.37 340.287   2
   9   7 -10 7791.99 349.957   1
   9   7  -9 8352.04 344.117   1
   9  -7  -9 8616.02 337.260   2
  -9   7   9 9708.28 378.115   1
  -9   7   8 81.4755 122.174   1
   9  -7  -8 116.999 95.5963   2
   9   7  -8 42.2652 114.998   1
  -9   7   7 12873.5 405.185   1
   9   7  -7 11657.7 362.285   1
   9  -7  -7 12327.3 354.623   2
   9   7  -6 130.261 102.012   1
  -9   7   6 464.527 134.563   1
   9  -7  -6 336.010 91.8609   2
  -9   7   5 18287.0 449.960   1
   9   7  -5 17638.3 397.145   1
   9  -7  -5 17861.0 372.270   2
   9   7  -4 13679.2 246.199   3
   9   7  -4 13161.7 328.372   1
   9  -7  -4 14032.9 307.665   2
  -9   7   4 13822.7 385.503   1
  -9   7   3 353.637 119.416   1
   9   7  -3 94.5420 60.5577   3
   9  -7  -3 501.248 138.604   3
   9   7  -3 7.03413 81.1500   1
   9  -7  -3 240.777 71.4705   2
  -9   7   2 151.020 99.9486   1
   9   7  -2 266.620 64.7199   3
   9  -7  -2 199.039 118.104   3
   9   7  -2 284.522 77.6458   1
   9  -7  -2 213.639 57.7406   2
   9  -7  -1 14753.0 428.396   3
   9   7  -1 14353.1 285.205   1
   9  -7  -1 14577.8 225.089   2
   9  -7   0 4669.85 259.782   3
   9   7   0 4611.63 155.975   1
   9  -7   0 4162.04 101.452   2
   9  -7   1 6864.37 312.005   3
   9   7   1 6669.75 169.701   1
   9  -7   2 2623.52 219.528   3
  -9  -7  -2 2709.50 152.436   3
   9   7   3 410.840 55.5436   1
   9   7   3 586.697 153.204   2
   9  -7   3 576.265 150.297   3
  -9  -7  -3 468.609 97.9824   3
   9   7   4 10801.1 408.825   2
  -9  -7  -4 10317.4 311.550   3
   9   7   5 1221.24 189.405   2
  -9  -7  -5 971.460 129.352   3
   9   7   5 683.634 40.8125   1
   9   7   6 75.1346 134.136   2
  -9  -7  -6-120.995 111.100   3
   9   7   6-0.14110 18.2117   1
   9   7   7 3599.44 276.324   2
  -9  -7  -7 3429.60 229.064   3
  -9   7  -7 4239.58 221.926   1
   9   7   8 5404.70 341.390   2
  -9   7  -8 5266.10 250.425   1
   9   7   9 2438.69 257.273   2
  -9   7  -9 2550.43 190.940   1
   9   7  10 4973.34 345.748   2
  -9   7 -10 4904.26 257.959   1
   9   7  11 1751.37 248.387   2
   9   7  12 627.591 207.562   2
   9   9 -19 1280.64 266.414   1
   9   9 -18 3856.27 365.515   1
   9   9 -17 555.931 221.494   1
   9   9 -16 2002.02 274.065   1
   9   9 -15 646.327 203.240   1
   9   9 -14 1349.29 222.949   1
   9   9 -13 3908.67 307.641   1
   9   9 -12 132.860 159.195   1
   9   9 -11 647.895 171.245   1
   9  -9 -10 7213.02 331.332   2
   9   9 -10 6700.68 338.818   1
   9   9  -9 675.166 152.263   1
   9  -9  -9 797.815 140.053   2
   9   9  -8 2077.38 198.137   1
   9  -9  -8 2106.19 175.617   2
  -9   9   7 3552.57 252.326   1
   9   9  -7 3376.42 225.438   1
   9  -9  -7 3387.00 200.751   2
   9  -9  -6 274.184 90.3307   2
   9   9  -6 168.808 112.992   1
  -9   9   5 1550.64 181.546   1
   9   9  -5 1501.40 151.549   1
   9  -9  -5 1465.79 124.208   2
   9   9  -4 16108.5 397.687   1
  -9   9   4 18203.8 471.724   1
   9  -9  -4 17392.0 338.885   2
   9  -9  -3 1527.44 102.742   2
   9   9  -3 1067.04 61.5122   3
  -9   9   3 1843.58 179.372   1
   9   9  -3 1502.46 140.382   1
   9  -9  -3 1899.45 192.562   3
   9  -9  -2 4750.30 139.755   2
   9   9  -2 5098.13 210.891   1
   9  -9  -2 5205.82 276.488   3
   9  -9  -1 2581.35 81.4043   2
   9  -9  -1 3602.48 242.169   3
   9  -9   0 929.618 153.603   3
   9  -9   1 7806.15 345.020   3
   9  -9   2 20361.7 547.205   3
  -9  -9  -2 20361.5 347.900   3
   9   9   3 98.5423 77.2378   1
   9  -9   3-51.0020 141.813   3
   9   9   3 136.324 138.461   2
  -9  -9  -3 84.5215 75.9472   3
   9   9   4 18323.0 551.464   2
   9   9   4 16105.9 295.498   1
   9  -9   4 18549.5 554.291   3
  -9  -9  -4 18106.2 390.750   3
   9   9   5 274.266 73.9936   1
   9   9   5 165.726 147.928   2
  -9  -9  -5-48.7947 94.7056   3
   9   9   6 3893.41 297.790   2
   9   9   6 3276.80 132.813   1
  -9  -9  -6 3475.52 210.749   3
   9   9   7 6553.41 373.783   2
  -9  -9  -7 6577.20 295.279   3
   9   9   8 4860.50 343.427   2
  -9   9  -8 5166.24 274.932   1
   9   9   9 350.792 175.543   2
  -9   9  -9 622.670 143.244   1
   9   9  10 4582.92 350.689   2
  -9   9 -10 5279.98 287.430   1
   9   9  11 914.307 225.068   2
   9  11 -18 337.668 213.064   1
   9  11 -17 224.789 202.750   1
   9  11 -16 613.281 217.450   1
   9  11 -15 863.269 223.992   1
   9  11 -14 602.533 191.471   1
   9  11 -13 7633.06 412.582   1
   9  11 -12 1413.44 224.582   1
   9  11 -11 764.008 184.980   1
   9  11 -10 960.594 180.867   1
   9 -11  -9 3923.98 247.889   2
   9  11  -9 3209.48 253.916   1
   9 -11  -8 2.43734 94.6022   2
   9  11  -8-9.27425 132.937   1
   9 -11  -7 6882.71 280.666   2
   9  11  -7 6070.72 311.183   1
   9 -11  -6 80.8767 86.0854   2
   9  11  -6 94.7883 119.973   1
   9 -11  -5 179.780 80.0400   2
   9  11  -5 151.740 111.489   1
   9 -11  -4 1899.46 128.968   2
   9  11  -4 1733.66 165.348   1
   9 -11  -4 2162.61 209.124   3
   9 -11  -3 2155.56 118.207   2
   9 -11  -3 2260.49 206.643   3
   9 -11  -2 183.030 48.2204   2
   9 -11  -2 186.812 131.074   3
   9 -11  -1 35849.5 710.571   3
   9 -11   0-235.782 153.830   3
   9 -11   1 16906.4 510.669   3
   9  11   2 6138.45 343.320   2
   9 -11   2 5359.47 313.672   3
   9 -11   3 626.991 164.741   3
  -9 -11  -3 855.841 99.4805   3
   9  11   3 792.613 186.298   2
   9  11   4 2928.89 266.117   2
  -9 -11  -4 3057.94 159.107   3
   9  11   4 2940.31 170.898   1
   9  11   5 2508.51 265.927   2
   9  11   5 2162.65 150.668   1
  -9 -11  -5 2323.85 160.363   3
   9  11   6 2907.63 282.238   2
  -9 -11  -6 2982.47 187.304   3
   9  11   7 4516.77 338.106   2
   9  11   8 1718.07 247.490   2
   9  11   9 151.223 178.662   2
  -9  11  -9 87.5628 128.216   1
   9  11  10 938.325 221.435   2
  -9  11 -10 893.616 176.290   1
   9  13 -16 4432.17 375.362   1
   9  13 -15 1267.77 248.179   1
   9  13 -14 2474.99 287.422   1
   9  13 -13 219.938 169.210   1
   9  13 -12 1502.46 231.702   1
   9  13 -11 115.253 154.777   1
   9  13 -10 4132.73 309.448   1
   9 -13  -9 328.971 124.531   2
   9  13  -9 157.001 146.874   1
   9 -13  -8 2129.14 187.971   2
   9  13  -8 2168.42 229.816   1
   9 -13  -7 3768.57 224.098   2
   9  13  -7 2538.10 79.5658   3
   9  13  -7 3704.04 268.379   1
   9 -13  -6 1709.21 155.898   2
   9  13  -6 1572.94 199.633   1
   9 -13  -5 4297.40 203.441   2
   9 -13  -5 4577.54 287.102   3
   9 -13  -4 10441.1 279.030   2
   9 -13  -4 10364.5 407.979   3
   9 -13  -3 50.8629 130.369   3
   9 -13  -2 1002.63 171.429   3
   9 -13  -1 2224.03 221.577   3
   9 -13   0 905.818 171.280   3
   9  13   1 564.927 177.017   2
   9 -13   1 544.988 163.297   3
   9  13   2 17397.3 577.384   2
   9 -13   2 17139.9 551.139   3
   9 -13   3-116.273 156.863   3
   9  13   3-9.98402 150.362   2
   9  13   4 6038.97 371.550   2
   9  13   4 5816.01 256.960   1
   9  13   5 2422.35 274.260   2
   9  13   6 62.3105 164.644   2
   9  13   7 1425.30 248.137   2
   9  13   8 4996.30 384.543   2
   9  13   9-11.2656 175.654   2
  -9  13  -9 89.3397 143.933   1
   9  15 -15 934.303 251.671   1
   9  15 -14 133.249 182.447   1
   9  15 -13 4837.60 379.946   1
   9  15 -12 59.8104 175.661   1
   9  15 -11 2032.60 259.465   1
   9  15 -10 134.241 160.903   1
   9  15  -9 6335.94 380.582   1
   9 -15  -8 721.475 143.902   2
   9  15  -8 439.117 170.804   1
   9 -15  -7 10823.4 371.173   2
   9  15  -7 10884.2 454.374   1
   9 -15  -6 13.4823 89.9950   2
   9  15  -6 67.7579 140.659   1
   9 -15  -6 255.614 158.876   3
   9 -15  -5 1203.68 192.697   3
   9 -15  -4 238.158 146.989   3
   9 -15  -3 333.120 147.819   3
   9 -15  -2-59.2742 145.841   3
   9 -15  -1 6382.65 351.845   3
   9 -15   0 1429.55 204.795   3
   9  15   1 6994.75 400.777   2
   9 -15   1 6878.39 368.264   3
   9 -15   2 453.207 166.921   3
   9  15   2 512.801 186.254   2
   9 -15   3 1447.69 216.403   3
   9  15   3 1807.08 250.891   2
   9  15   4 77.1674 175.612   2
   9  15   5 5839.31 399.239   2
   9  15   6-24.0078 177.237   2
   9  15   7 4649.35 382.070   2
   9  17 -13 202.089 190.879   1
   9  17 -12 235.201 179.694   1
   9  17 -11 109.248 187.127   1
   9  17 -10 6640.29 424.379   1
   9  17  -9 33.8038 164.922   1
   9  17  -8 785.589 199.887   1
   9  17  -7 609.245 182.620   1
   9 -17  -7 943.478 195.669   3
   9 -17  -6 285.373 165.232   3
   9 -17  -5-31.1436 143.215   3
   9 -17  -4 4607.01 304.781   3
   9 -17  -3 62.5662 146.710   3
   9 -17  -2 802.504 177.195   3
   9 -17  -1 641.362 172.996   3
   9  17   0 1510.21 239.954   2
   9 -17   0 1393.83 210.229   3
   9 -17   1 473.677 168.346   3
   9  17   1 471.128 188.178   2
   9  17   2 1933.01 263.868   2
   9 -17   2 1685.33 232.601   3
   9  17   3 303.526 187.573   2
   9  17   4 4772.31 380.884   2
   9  17   5 527.566 213.439   2
   9  19 -10 5.29944 189.390   1
   9  19  -9 276.696 192.828   1
   9  19  -8-38.2048 181.503   1
   9 -19  -8 356.234 174.889   3
   9  19  -7 3127.61 307.482   1
   9 -19  -7 2953.90 277.856   3
   9 -19  -6 30.8904 150.202   3
   9 -19  -5 3472.37 282.528   3
   9 -19  -4 294.266 154.908   3
   9 -19  -3 688.693 177.586   3
   9  19  -2 202.366 181.997   2
   9 -19  -2 215.540 152.237   3
   9  19  -1 4919.13 371.575   2
   9 -19  -1 4518.64 333.882   3
   9  19   0 77.7589 176.210   2
   9 -19   0-33.1749 150.422   3
   9  19   1 2601.07 299.286   2
   9 -19   1 2574.70 273.780   3
   9 -19   2-6.37413 163.006   3
   9  19   2 52.3276 173.562   2
  10   0 -21-345.998 252.108   1
  10   0 -20 1422.43 285.832   1
  10   0 -19 412.338 237.924   1
  10   0 -18 1135.79 250.833   1
  10   0 -17 345.185 207.934   1
  10   0 -16 412.730 207.748   1
  10   0 -15 321.399 187.246   1
  10   0 -14 5828.22 345.511   1
  10   0 -13 431.316 179.121   1
  10   0 -12 2729.12 245.852   1
 -10   0  11-127.610 124.100   1
  10   0 -11-20.4905 137.957   1
  10   0 -10 8694.27 347.736   1
 -10   0  10 8865.22 335.796   1
 -10   0   9 106.509 101.721   1
  10   0  -9 146.626 135.156   1
 -10   0   8 11080.4 340.868   1
  10   0  -8 11395.7 356.990   1
 -10   0   7 75.2566 92.9965   1
  10   0  -7 201.992 129.060   1
 -10   0   6 16232.2 366.915   1
  10   0  -6 16726.1 383.148   1
  10   0  -5-133.099 103.933   1
 -10   0   5-15.8407 78.3729   1
 -10   0   4 7758.48 228.950   1
  10   0  -4 7876.94 236.994   1
 -10   0   3 82.1727 69.2646   1
  10   0  -3 216.753 112.376   3
  10   0  -3 98.1916 81.6492   1
 -10   0   2 32673.1 371.359   1
  10   0  -2 31487.3 534.071   3
 -10   0   1 29.4582 48.4039   1
  10   0  -1-150.823 109.237   3
  10   0   0 95068.9 949.291   3
 -10   0   0 80717.6 412.417   1
  10   0   1 24.5559 103.750   3
 -10   0  -1 266.225 112.683   3
  10   0   2 8967.40 332.726   3
 -10   0  -2 8528.71 313.745   3
  10   0   3 85.0405 90.3196   2
 -10   0  -3 12.7057 100.484   3
  10   0   4 545.891 114.193   2
 -10   0  -4 485.505 132.129   3
  10   0   5 60.9993 99.2683   2
  10   0   6 42945.8 688.934   2
  10   0   7 114.144 117.394   2
  10   0   8 473.419 139.805   2
  10   0   9 20.6041 117.172   2
  10   0  10 306.972 134.340   2
  10   0  11-38.2680 129.106   2
  10   0  12 5621.87 335.897   2
  10   2 -20 440.732 231.341   1
  10  -2 -20-359.743 243.235   1
  10   2 -19 476.601 223.245   1
  10  -2 -19 638.718 236.676   1
  10  -2 -18 81.8613 211.960   1
  10   2 -18 411.397 218.208   1
  10   2 -17 2551.17 285.664   1
  10  -2 -17 2445.33 294.219   1
  10  -2 -16 58.7957 200.270   1
  10   2 -16 299.708 189.249   1
  10  -2 -15 4046.64 320.680   1
  10   2 -15 4352.19 317.431   1
  10   2 -14-38.2742 156.836   1
  10  -2 -14-123.666 193.909   1
  10   2 -13 77.4460 155.171   1
  10  -2 -13-224.092 188.503   1
  10   2 -12 175.061 146.909   1
  10  -2 -12-99.1202 171.320   1
 -10   2  11 22405.8 548.590   1
  10  -2 -11 21595.1 558.095   1
  10   2 -11 21674.4 544.032   1
 -10  -2  11 21809.2 533.771   1
  10   2 -10 496.111 146.022   1
 -10  -2  10 501.068 124.061   1
  10  -2 -10 563.725 158.042   1
 -10   2  10 534.124 132.871   1
  10   2  -9 1212.07 161.666   1
  10  -2  -9 1170.35 168.820   1
 -10   2   9 1169.37 149.715   1
 -10  -2   9 1214.47 145.412   1
 -10   2   8 2268.99 176.224   1
  10   2  -8 2655.14 194.369   1
  10  -2  -8 2669.16 208.160   1
 -10  -2   8 2476.61 174.861   1
  10   2  -7 7565.08 275.797   1
 -10   2   7 7163.09 271.829   1
  10  -2  -7 7341.52 291.079   1
 -10  -2   7 7353.94 261.959   1
 -10  -2   6 906.653 109.650   1
  10   2  -6 966.050 127.481   1
  10  -2  -6 1158.14 149.342   1
 -10   2   6 888.578 121.915   1
 -10  -2   5 6754.75 224.609   1
  10  -2  -5 7281.43 258.820   1
 -10   2   5 6975.83 243.532   1
  10   2  -5 7011.37 238.188   1
 -10   2   4 3553.47 173.731   1
  10   2  -4 4086.44 173.534   1
 -10  -2   4 3691.86 159.252   1
  10  -2  -4 3668.13 178.419   1
  10   2  -3 21731.6 416.072   3
 -10   2   3 22035.1 372.498   1
 -10  -2   3 21877.6 322.577   1
  10  -2  -3 21864.5 467.971   3
  10   2  -3 22144.0 338.427   1
 -10   2   2 137.408 75.7948   1
  10   2  -2 69.0517 62.2654   1
  10   2  -2-36.3439 96.0426   3
  10  -2  -2 12.8437 101.175   3
 -10  -2   2 11.4097 52.8018   1
  10   2  -1 13338.3 186.487   1
  10   2  -1 14920.5 361.690   3
  10  -2  -1 14729.2 397.952   3
 -10   2   1 14165.1 259.768   1
  10   2   0 4191.79 212.190   3
  10  -2   0 4187.59 233.568   3
 -10   2   0 4860.29 149.748   1
 -10   2  -1 14472.5 229.122   1
  10   2   1 13893.6 372.506   3
  10  -2   1 14107.5 412.667   3
 -10  -2  -1 13954.9 365.472   3
  10  -2   2 3489.75 229.341   3
 -10   2  -2 3524.04 114.124   1
 -10  -2  -2 3627.64 210.094   3
 -10   2  -2 3834.71 234.374   3
  10  -2   3 16912.6 355.541   2
  10   2   3 16803.9 430.213   2
 -10   2  -3 14491.2 201.055   1
 -10  -2  -3 16443.4 427.260   3
 -10   2  -3 16933.0 468.340   3
  10  -2   3 16917.4 474.366   3
 -10   2  -3 14980.6 204.476   1
  10  -2   4 4106.42 192.761   2
  10   2   4 4171.13 235.174   2
 -10  -2  -4 3775.73 231.649   3
 -10   2  -4 3309.03 96.4446   1
 -10   2  -4 3239.75 99.7077   1
 -10   2  -5 2673.52 91.5126   1
  10  -2   5 3051.07 179.882   2
  10   2   5 3314.89 220.778   2
 -10  -2  -5 2906.26 218.830   3
  10  -2   6 2443.99 173.093   2
  10   2   6 2090.38 195.633   2
 -10   2  -6 1940.53 86.0078   1
 -10   2  -7 267.268 52.8059   1
  10  -2   7 373.144 108.124   2
  10   2   7 451.487 140.476   2
  10   2   8 1313.58 179.776   2
 -10   2  -8 1237.27 83.7099   1
  10  -2   8 1266.23 149.237   2
  10   2   9 11628.9 442.778   2
  10  -2   9 11340.3 381.452   2
  10   2  10 79.3714 136.067   2
  10  -2  10 62.0104 108.884   2
  10  -2  11 3862.76 256.238   2
  10   2  11 3957.84 292.035   2
  10   2  12-26.1562 150.275   2
  10   4 -20 714.262 248.356   1
  10  -4 -20 454.699 242.516   1
  10   4 -19 353.050 215.965   1
  10  -4 -19 593.846 238.690   1
  10   4 -18 2932.51 310.472   1
  10  -4 -18 3449.53 342.079   1
  10   4 -17 1076.43 231.431   1
  10  -4 -17 961.833 243.709   1
  10  -4 -16 366.351 214.434   1
  10   4 -16 134.741 171.709   1
  10  -4 -15 439.229 202.070   1
  10   4 -15 282.202 169.768   1
  10   4 -14 6802.19 372.871   1
  10  -4 -14 7251.70 399.889   1
  10  -4 -13 467.049 199.746   1
  10   4 -13 2.79935 165.948   1
  10  -4 -12 1873.40 232.326   1
  10   4 -12 1770.51 206.494   1
  10  -4 -11 1184.68 203.639   1
  10   4 -11 844.351 164.070   1
 -10  -4  11 987.158 154.811   1
  10  -4 -11 1222.08 173.928   2
  10  -4 -10 397.631 162.285   1
  10   4 -10 157.165 129.611   1
 -10  -4  10 370.411 122.912   1
  10  -4 -10 278.552 117.019   2
 -10   4  10 316.068 126.319   1
  10   4  -9 1869.15 185.195   1
 -10   4   9 2099.62 186.395   1
 -10  -4   9 2165.95 181.120   1
  10  -4  -9 1999.22 182.680   2
  10  -4  -9 2308.98 219.840   1
  10  -4  -8 32200.5 611.926   1
  10   4  -8 30812.0 577.623   1
 -10   4   8 31334.1 593.358   1
 -10  -4   8 30995.9 564.548   1
  10   4  -7 12810.7 361.777   1
 -10  -4   7 12792.5 349.207   1
  10  -4  -7 13527.6 388.994   1
 -10   4   7 13202.5 378.170   1
  10   4  -6 16686.3 384.834   1
 -10  -4   6 16571.1 367.284   1
 -10   4   6 16624.4 401.137   1
  10   4  -5 3689.97 185.563   1
 -10   4   5 3832.94 206.116   1
 -10   4   4 2749.49 175.358   1
  10   4  -4 3000.36 157.605   1
 -10   4   3 4.98508 92.7324   1
  10   4  -3 8.76477 75.5480   1
  10   4  -3 166.286 86.5594   3
  10  -4  -3 274.166 127.414   3
  10   4  -2 22900.3 320.004   1
 -10   4   2 23221.7 409.631   1
  10   4  -2 21936.8 399.948   3
  10  -4  -2 23000.3 504.027   3
  10   4  -1 139.440 49.0506   1
 -10   4   1 222.738 88.8390   1
  10   4  -1 100.408 81.1422   3
  10  -4  -1 65.1799 115.802   3
 -10   4   0 26110.1 400.147   1
  10   4   0 26467.1 465.032   3
  10  -4   0 26707.8 564.674   3
 -10   4  -1-6.48156 79.0436   1
  10  -4   1 126.731 121.682   3
  10  -4   2 4433.57 161.431   2
  10  -4   2 4273.87 262.556   3
 -10  -4  -2 4426.15 215.845   3
 -10   4  -2 4474.89 258.007   3
  10  -4   3 157.362 68.8223   2
  10   4   3 209.727 123.098   2
 -10  -4  -3 200.933 96.2237   3
  10  -4   3 25.0211 122.881   3
  10  -4   4 1219.96 107.131   2
  10   4   4 1037.99 163.073   2
 -10  -4  -4 1021.63 138.549   3
  10  -4   5 1793.96 127.633   2
  10   4   5 1881.27 200.698   2
 -10   4  -5 1723.82 115.272   1
 -10  -4  -5 1468.24 163.263   3
  10   4   6 6579.03 326.916   2
 -10   4  -6 6611.98 201.995   1
  10  -4   6 6532.02 228.548   2
  10   4   7 2521.55 231.815   2
 -10   4  -7 2798.26 148.460   1
  10  -4   7 2678.18 166.201   2
 -10   4  -8 7142.34 224.186   1
  10   4   8 6743.84 349.551   2
  10  -4   8 6651.91 256.047   2
  10   4   9 125.060 147.256   2
 -10   4  -9 40.5460 85.8471   1
  10  -4   9 75.8195 93.0358   2
  10   4  10 1722.82 229.553   2
  10  -4  10 1895.96 174.112   2
  10   4  11-119.398 163.605   2
  10   4  12 3667.57 310.230   2
  10   6 -20 2.25379 205.312   1
  10  -6 -20 157.976 231.811   1
  10   6 -19 921.481 241.323   1
  10  -6 -19 1103.22 274.065   1
  10   6 -18-221.426 210.221   1
  10  -6 -18 62.2641 215.184   1
  10  -6 -17 2707.13 309.241   1
  10   6 -17 2180.49 273.128   1
  10   6 -16 30.1730 190.406   1
  10  -6 -16 472.810 227.774   1
  10  -6 -15 13316.3 536.516   1
  10   6 -15 12561.4 515.301   1
  10  -6 -14 1335.60 238.852   1
  10   6 -14 893.959 197.754   1
  10  -6 -13 1266.96 231.179   1
  10   6 -13 1151.75 204.750   1
  10  -6 -12 162.581 186.853   1
  10   6 -12 245.229 161.540   1
  10   6 -11 6841.65 347.472   1
  10  -6 -11 7684.19 370.814   1
  10  -6 -11 7313.04 345.181   2
  10   6 -10 191.546 142.200   1
  10  -6 -10 52.7057 152.978   1
  10  -6 -10 53.4107 107.241   2
  10   6  -9 16346.9 457.705   1
  10  -6  -9 16370.2 475.774   1
 -10   6   9 16327.3 468.832   1
  10  -6  -9 16448.0 454.747   2
  10   6  -8 141.912 115.694   1
 -10   6   8 109.691 122.143   1
  10  -6  -8 21.2570 96.9006   2
 -10   6   7 1690.45 184.289   1
  10   6  -7 864.738 141.851   1
  10  -6  -7 1011.65 136.218   2
 -10   6   6 8378.36 317.215   1
  10  -6  -6 8717.06 287.137   2
  10   6  -6 8472.79 292.982   1
 -10   6   5 6210.44 271.069   1
  10  -6  -5 5910.12 229.299   2
  10   6  -5 5551.74 233.578   1
 -10   6   4 790.343 137.717   1
  10   6  -4 610.719 103.325   1
  10   6  -4 626.963 93.6680   3
  10  -6  -3 27624.3 572.860   3
  10   6  -3 26579.8 396.226   3
 -10   6   3 26983.8 502.704   1
  10   6  -3 28063.8 431.545   1
 -10   6   2 3113.91 185.827   1
  10  -6  -2 2868.88 216.500   3
  10   6  -2 2791.57 140.050   1
  10   6  -2 2686.66 141.802   3
  10   6  -1 212.650 66.1553   1
 -10   6   1 401.635 107.050   1
  10   6  -1 214.281 78.7884   3
  10  -6  -1 130.931 122.218   3
  10  -6   0 1846.24 192.871   3
  10   6   0 1690.73 86.2679   1
  10  -6   1 11196.4 194.284   2
  10  -6   1 11759.4 410.870   3
  10  -6   2 7072.07 152.779   2
  10  -6   2 7748.47 349.432   3
 -10  -6  -2 7912.11 264.624   3
  10  -6   3 14004.4 215.867   2
  10  -6   3 16071.2 499.127   3
 -10  -6  -3 15479.7 381.138   3
  10   6   3 15749.5 476.785   2
  10  -6   4 31.1565 41.2936   2
  10   6   4 38.2450 132.374   2
 -10  -6  -4-31.8451 87.9091   3
  10   6   5 1074.80 179.578   2
 -10  -6  -5 1031.15 142.811   3
  10  -6   5 1006.10 78.2435   2
  10   6   6 92.1210 138.041   2
 -10  -6  -6 8.40914 109.956   3
 -10   6  -6 164.257 94.5988   1
  10  -6   6 166.312 60.6633   2
  10   6   7 2017.35 229.669   2
 -10   6  -7 2083.92 158.306   1
  10  -6   7 2054.60 122.625   2
  10   6   8 1003.11 198.547   2
 -10   6  -8 1346.82 141.511   1
  10   6   9 18617.2 607.772   2
 -10   6  -9 20144.8 442.951   1
  10   6  10 287.056 173.449   2
  10   6  11 6098.04 395.407   2
  10  -8 -19 310.916 234.153   1
  10   8 -19 106.761 200.737   1
  10   8 -18 2312.95 291.062   1
  10  -8 -18 2146.38 303.002   1
  10  -8 -17 139.596 210.569   1
  10   8 -17-238.616 215.464   1
  10  -8 -16 738.065 222.962   1
  10   8 -16 734.386 212.967   1
  10  -8 -15-8.23080 186.507   1
  10   8 -15 224.161 183.328   1
  10   8 -14 3144.66 296.062   1
  10  -8 -14 3372.73 307.535   1
  10   8 -13 53.1980 155.502   1
  10   8 -12 6214.51 347.679   1
  10   8 -11 215.121 148.865   1
  10  -8 -10 221.345 122.230   2
  10   8 -10 348.444 148.219   1
  10  -8  -9 671.200 130.839   2
  10   8  -9 675.430 156.264   1
 -10   8   8 7702.63 351.380   1
  10   8  -8 7349.48 319.966   1
  10  -8  -8 7420.97 301.686   2
  10  -8  -7 379.893 102.283   2
  10   8  -7 362.491 122.842   1
 -10   8   7 362.527 136.404   1
 -10   8   6 11323.8 392.290   1
  10   8  -6 10613.4 342.045   1
  10  -8  -6 11084.5 321.109   2
  10  -8  -5 590.297 98.8023   2
  10   8  -5 373.401 105.915   1
 -10   8   5 720.213 147.911   1
  10   8  -4 3354.91 132.369   3
  10   8  -4 3524.09 189.306   1
  10  -8  -4 3698.11 244.410   3
  10  -8  -4 3328.44 158.292   2
 -10   8   4 3315.85 221.476   1
 -10   8   3 7468.71 297.909   1
  10   8  -3 6297.26 173.287   3
  10  -8  -3 7492.41 331.516   3
  10   8  -3 6945.99 243.271   1
  10  -8  -3 7382.27 206.831   2
  10   8  -2 17660.0 291.329   3
  10  -8  -2 19629.3 509.644   3
  10   8  -2 18928.7 369.908   1
  10  -8  -2 19536.1 292.602   2
 -10   8   2 20115.7 458.657   1
  10   8  -1 1840.05 123.818   1
  10  -8  -1 1580.91 181.581   3
  10  -8  -1 1652.83 78.6812   2
  10  -8   0 6689.45 328.648   3
  10   8   0 6822.50 198.909   1
  10  -8   1 86.9457 129.135   3
  10   8   1 68.8092 57.3714   1
  10  -8   2 974.004 169.395   3
  10   8   2 899.899 72.1809   1
 -10  -8  -2 1456.57 131.778   3
  10   8   3-28.4740 44.2048   1
  10  -8   3-114.604 144.913   3
  10   8   3 20.1086 134.288   2
 -10  -8  -3 119.926 90.8454   3
  10   8   3 5.79234 35.5440   1
  10   8   4 2016.71 230.497   2
 -10  -8  -4 1835.28 154.080   3
  10   8   5 2034.82 230.646   2
 -10  -8  -5 1844.88 163.744   3
  10   8   6 7231.11 379.975   2
 -10  -8  -6 6868.86 303.356   3
  10   8   7 549.712 175.988   2
 -10   8  -7 398.301 119.032   1
  10   8   8 5311.05 359.012   2
 -10   8  -8 5243.94 258.089   1
  10   8   9 117.239 167.625   2
 -10   8  -9-18.9599 116.045   1
  10   8  10 2751.18 296.418   2
  10   8  11 167.080 170.995   2
  10  10 -18 426.005 220.425   1
  10  10 -17 1969.61 290.808   1
  10  10 -16 293.522 204.891   1
  10  10 -15 6887.92 414.581   1
  10  10 -14 985.709 219.245   1
  10  10 -13 123.566 163.212   1
  10  10 -12 251.814 166.743   1
  10  10 -11 11130.0 453.145   1
  10  10 -10 609.600 168.491   1
  10 -10 -10 679.247 148.337   2
  10 -10  -9 2572.61 208.370   2
  10  10  -9 2771.05 233.587   1
  10  10  -8-103.311 130.742   1
  10 -10  -8 84.9533 97.2457   2
  10 -10  -7 1604.49 152.183   2
  10  10  -7 1640.00 180.722   1
  10 -10  -6 28.0570 79.8502   2
  10  10  -6-13.8166 119.813   1
  10 -10  -5 3334.81 175.609   2
 -10  10   5 3821.68 263.311   1
  10  10  -5 2430.49 95.6573   3
  10  10  -5 3144.46 213.592   1
  10 -10  -4 7685.90 229.222   2
 -10  10   4 8333.86 348.469   1
  10  10  -4 8026.71 301.564   1
  10 -10  -4 8541.42 360.837   3
  10 -10  -3 7043.97 195.634   2
  10  10  -3 7175.29 272.479   1
  10 -10  -3 6767.26 331.017   3
 -10  10   3 7379.63 322.825   1
  10 -10  -2 3973.50 126.086   2
  10 -10  -2 4446.84 276.536   3
  10  10  -2 4025.91 203.161   1
  10 -10  -1 274.192 133.467   3
  10  10  -1 258.753 90.6464   1
  10 -10   0 450.706 148.907   3
  10 -10   1 18890.7 553.751   3
  10 -10   2 515.945 155.628   3
  10  10   2 605.398 170.673   2
  10  10   3 16476.5 311.808   1
  10  10   3 17855.8 566.829   2
  10 -10   3 17477.0 566.136   3
 -10 -10  -3 18133.3 365.791   3
  10  10   4-18.9789 68.4535   1
  10  10   4 7.02239 144.442   2
 -10 -10  -4 97.6401 84.3225   3
  10  10   5 597.057 178.173   2
 -10 -10  -5 648.693 112.791   3
  10  10   6 245.804 176.021   2
 -10 -10  -6 24.0110 100.730   3
  10  10   7 9670.61 470.395   2
  10  10   8 40.6126 169.059   2
 -10  10  -8 332.599 133.040   1
  10  10   9 4442.59 353.394   2
 -10  10  -9 4703.96 280.755   1
  10  10  10-34.7626 176.865   2
  10  12 -17 1305.07 264.298   1
  10  12 -16 598.605 225.370   1
  10  12 -15 684.596 219.690   1
  10  12 -14 4826.23 366.887   1
  10  12 -13 199.250 179.292   1
  10  12 -12 1482.96 226.315   1
  10  12 -11 1324.06 214.178   1
  10  12 -10 41.3497 146.756   1
  10 -12  -9 3292.88 232.438   2
  10  12  -9 3182.88 259.589   1
  10 -12  -8 8022.49 324.269   2
  10  12  -8 7340.02 361.160   1
  10 -12  -7 291.363 103.017   2
  10  12  -7 235.234 135.961   1
  10 -12  -6 5257.34 236.171   2
  10  12  -6 5238.08 292.050   1
  10 -12  -5 2266.26 154.056   2
  10  12  -5 2010.22 195.483   1
  10 -12  -5 2581.72 239.280   3
  10 -12  -4 372.405 79.6951   2
  10  12  -4 142.966 111.512   1
  10 -12  -4 505.753 164.199   3
  10 -12  -3 33.2161 53.2965   2
  10  12  -3-105.444 106.477   1
  10 -12  -3 106.956 135.864   3
  10 -12  -2 2317.02 227.941   3
  10 -12  -1 2986.37 252.024   3
  10 -12   0 23174.0 621.091   3
  10 -12   1 4655.92 309.276   3
  10 -12   2-19.3525 144.881   3
  10  12   2 116.734 158.195   2
  10  12   3 1867.20 245.202   2
  10 -12   3 1837.75 228.994   3
  10  12   4 2755.81 278.536   2
  10  12   5 2318.87 266.889   2
  10  12   6 7953.28 437.289   2
  10  12   7 414.594 196.960   2
  10  12   8 349.477 192.913   2
  10  12   9 943.220 232.324   2
 -10  12  -9 1418.26 202.616   1
  10  14 -16 495.286 223.458   1
  10  14 -15 2759.97 315.586   1
  10  14 -14 1232.68 256.551   1
  10  14 -13 168.638 175.779   1
  10  14 -12 1362.52 233.063   1
  10  14 -11 4286.56 329.589   1
  10  14 -10 2502.74 268.294   1
  10  14  -9 1648.74 225.578   1
  10 -14  -8 213.678 114.485   2
  10  14  -8 185.824 156.713   1
  10 -14  -7 1260.00 148.843   2
  10  14  -7 1084.03 185.927   1
  10 -14  -6 21.8548 85.6911   2
  10 -14  -6 255.231 163.343   3
  10  14  -6-21.7230 144.721   1
  10 -14  -5 4750.44 214.359   2
  10  14  -5 4510.45 284.764   1
  10 -14  -5 4592.39 301.128   3
  10 -14  -4 135.552 143.982   3
  10 -14  -3 2838.35 244.538   3
  10 -14  -2 941.758 181.826   3
  10 -14  -1 57.9655 149.446   3
  10 -14   0 1402.09 210.997   3
  10 -14   1 1870.54 228.680   3
  10  14   1 1850.92 247.016   2
  10  14   2 379.716 184.815   2
  10 -14   2 136.086 148.322   3
  10  14   3 4473.97 339.867   2
  10 -14   3 4583.45 334.596   3
  10  14   4 152.846 178.048   2
  10  14   5 207.380 180.467   2
  10  14   6 756.433 211.751   2
  10  14   7 1424.04 252.079   2
  10  16 -14 3047.37 336.787   1
  10  16 -13 59.8554 177.039   1
  10  16 -12 1547.44 254.282   1
  10  16 -11 1110.39 232.335   1
  10  16 -10-20.5975 166.042   1
  10  16  -9 375.893 177.943   1
  10  16  -8 9555.79 456.084   1
  10 -16  -7 325.968 175.688   3
  10  16  -7-131.901 163.685   1
  10 -16  -6 1859.77 231.985   3
  10  16  -6 1863.22 222.264   1
  10 -16  -5 1478.30 215.894   3
  10 -16  -4 201.402 145.188   3
  10 -16  -3 1374.13 208.904   3
  10 -16  -2 2766.69 262.824   3
  10 -16  -1 78.3825 149.854   3
  10  16   0 4603.66 348.029   2
  10 -16   0 4387.19 326.138   3
  10  16   1 318.746 180.474   2
  10 -16   1 140.053 150.632   3
  10 -16   2-0.83243 153.424   3
  10  16   2-77.7605 164.497   2
  10  16   3 4540.25 360.848   2
  10 -16   3 4449.23 338.273   3
  10  16   4 1016.57 228.637   2
  10  16   5-38.9491 183.870   2
  10  18 -11 3055.66 328.545   1
  10  18 -10 153.464 186.211   1
  10  18  -9 3124.24 312.988   1
  10 -18  -8 1444.12 229.593   3
  10  18  -8 753.252 204.759   1
  10 -18  -7 804.251 197.036   3
  10  18  -7 747.030 204.023   1
  10  18  -6 1589.97 232.312   1
  10 -18  -6 1609.00 224.959   3
  10 -18  -5 1213.18 204.969   3
  10 -18  -4-6.08041 168.971   3
  10 -18  -3 2302.34 251.199   3
  10 -18  -2 2145.93 250.748   3
  10  18  -1 603.692 205.872   2
  10 -18  -1 619.462 187.759   3
  10  18   0 1867.84 272.862   2
  10 -18   0 1606.35 239.427   3
  10  18   1 162.176 190.037   2
  10 -18   1-15.7206 156.697   3
  10  18   2 30.6319 173.352   2
  10 -18   2-13.7810 166.252   3
  11  -1 -20-209.074 244.622   1
  11   1 -20 698.834 258.241   1
  11  -1 -19 2290.29 307.667   1
  11   1 -19 3338.47 349.197   1
  11  -1 -18 287.574 207.751   1
  11   1 -18 881.415 241.775   1
  11  -1 -17 220.681 204.053   1
  11   1 -17 1057.45 235.770   1
  11  -1 -16 4204.90 342.173   1
  11   1 -16 4690.60 343.357   1
  11   1 -15 845.906 207.983   1
  11  -1 -15 250.572 194.205   1
  11  -1 -14 2392.80 268.580   1
  11   1 -14 2980.41 278.937   1
  11   1 -13 1915.38 231.413   1
  11  -1 -13 1522.23 233.620   1
  11  -1 -12 4748.28 306.636   1
  11   1 -12 4722.29 297.472   1
  11  -1 -11 355.643 158.159   1
 -11  -1  11 702.547 142.366   1
  11   1 -11 830.597 178.970   1
 -11   1  11 808.960 154.969   1
  11  -1 -10 86.8463 150.545   1
 -11  -1  10 388.178 119.121   1
  11   1 -10 511.207 151.668   1
 -11   1  10 427.666 128.121   1
 -11  -1   9 139.406 103.145   1
  11  -1  -9 106.331 134.592   1
 -11   1   9 109.570 112.002   1
  11   1  -9 212.769 130.885   1
 -11   1   8 3914.59 222.423   1
  11  -1  -8 3628.01 227.768   1
  11   1  -8 3920.31 225.427   1
 -11  -1   8 3966.90 216.965   1
 -11   1   7 2626.79 179.666   1
  11  -1  -7 2564.91 196.277   1
  11   1  -7 2947.53 195.559   1
 -11  -1   7 2597.00 177.001   1
 -11   1   6 2513.94 168.468   1
  11  -1  -6 2975.06 190.919   1
 -11  -1   6 2809.63 171.063   1
  11   1  -6 3087.48 191.241   1
  11   1  -5 3314.59 178.258   1
 -11   1   5 3049.62 170.553   1
 -11  -1   5 3214.20 168.182   1
  11  -1  -5 3503.68 189.490   1
 -11   1   4 6411.74 219.033   1
  11   1  -4 6688.73 219.262   1
  11  -1  -4 6465.22 223.571   1
  11   1  -4 6319.35 256.829   3
  11  -1  -4 6597.39 275.645   3
 -11  -1   4 6403.38 207.346   1
 -11   1   3 2850.59 145.524   1
  11   1  -3 2966.08 190.733   3
  11  -1  -3 3138.70 208.963   3
  11   1  -3 3218.96 149.851   1
 -11  -1   3 3039.18 135.658   1
 -11   1   2 14103.2 267.981   1
  11   1  -2 13801.8 372.737   3
  11  -1  -2 14209.5 394.456   3
 -11  -1   2 14407.5 237.334   1
 -11   1   1 19141.6 278.722   1
  11   1  -1 19878.7 451.236   3
  11  -1  -1 19295.1 469.096   3
 -11  -1   1 17425.3 216.794   1
 -11   1   0 3062.59 106.489   1
  11   1   0 3385.42 212.255   3
  11  -1   0 3258.40 218.901   3
 -11   1  -1 1301.89 55.4863   1
  11   1   1 1851.51 177.070   3
  11  -1   1 1726.77 177.802   3
  11   1   2 6661.79 297.426   3
  11  -1   2 7010.56 318.222   3
 -11  -1  -2 7063.44 301.227   3
 -11   1  -2 7090.71 312.304   3
  11  -1   3 333.889 100.142   2
  11   1   3 439.348 120.624   2
 -11  -1  -3 620.410 143.889   3
  11  -1   4 17967.5 419.723   2
  11   1   4 17467.8 449.592   2
  11  -1   5 17417.6 426.418   2
  11   1   5 17667.6 465.869   2
  11  -1   6 3080.92 204.420   2
  11   1   6 3013.00 222.043   2
  11  -1   7 177.690 116.188   2
  11   1   7 291.633 131.484   2
  11  -1   8 17483.2 476.640   2
  11   1   8 17015.9 506.268   2
  11  -1   9 1099.57 158.585   2
  11   1   9 996.888 171.246   2
  11  -1  10 6724.57 331.290   2
  11   1  10 6360.50 345.334   2
  11  -1  11 1977.35 213.170   2
  11   1  11 1870.62 224.894   2
  11  -3 -20 83.3126 223.684   1
  11   3 -20 644.003 242.823   1
  11  -3 -19 5611.17 423.727   1
  11   3 -19 6049.59 428.162   1
  11  -3 -18 2493.08 315.976   1
  11   3 -18 2704.53 313.516   1
  11   3 -17 1270.85 240.398   1
  11  -3 -17 1415.13 266.299   1
  11   3 -16 2249.77 268.556   1
  11  -3 -16 2126.90 272.890   1
  11   3 -15 263.750 172.895   1
  11  -3 -15 276.736 189.397   1
  11   3 -14-0.39125 165.952   1
  11  -3 -14 32.1129 179.282   1
  11   3 -13 2234.76 235.297   1
  11  -3 -13 2522.34 264.523   1
  11  -3 -12 3303.18 285.498   1
  11   3 -12 3290.20 258.302   1
  11   3 -11 3267.84 245.276   1
  11  -3 -11 3076.49 265.151   1
 -11  -3  11 3261.77 228.883   1
 -11   3  10 5096.22 274.363   1
  11   3 -10 5410.08 287.336   1
  11  -3 -10 5054.35 295.897   1
 -11  -3  10 5258.95 269.123   1
 -11   3   9 14112.9 421.336   1
  11   3  -9 14092.4 418.939   1
 -11  -3   9 13893.4 400.266   1
  11  -3  -9 14929.3 447.821   1
 -11   3   8 5843.35 270.515   1
  11   3  -8 6028.14 273.288   1
 -11  -3   8 5914.86 257.609   1
  11  -3  -8 6414.36 299.537   1
  11  -3  -7 9214.69 329.913   1
  11   3  -7 8465.84 297.493   1
 -11   3   7 8773.77 307.734   1
 -11  -3   7 8736.78 291.827   1
  11   3  -6 869.942 125.315   1
 -11   3   6 1013.02 135.735   1
  11  -3  -6 1187.18 153.116   1
 -11  -3   6 934.634 119.542   1
  11   3  -5 2998.56 165.927   1
 -11   3   5 3039.63 181.634   1
 -11  -3   5 2771.71 154.704   1
  11   3  -4 12136.3 284.919   1
 -11  -3   4 11454.0 267.231   1
 -11   3   4 11512.9 305.429   1
  11   3  -4 11506.0 315.443   3
  11  -3  -4 11464.2 364.062   3
  11   3  -3 7694.98 265.041   3
  11  -3  -3 8201.48 320.540   3
  11   3  -3 8111.98 215.706   1
 -11   3   3 8151.41 251.010   1
  11   3  -2 5263.34 154.120   1
  11   3  -2 5043.82 225.319   3
  11  -3  -2 5109.81 263.848   3
 -11   3   2 5104.51 194.309   1
 -11   3   1 13676.1 288.800   1
  11   3  -1 12782.2 346.054   3
  11  -3  -1 13559.0 412.052   3
  11   3  -1 11767.3 175.327   1
 -11   3   0 154.767 77.4638   1
  11   3   0 44.8803 98.6132   3
 -11   3  -1 13022.6 252.764   1
  11   3   1 12531.4 371.153   3
  11  -3   1 12637.4 422.996   3
  11  -3   2 13088.3 308.194   2
 -11   3  -2 12578.7 236.232   1
  11  -3   2 12668.0 437.268   3
 -11  -3  -2 12699.7 376.872   3
  11  -3   3 174.156 82.8701   2
  11  -3   3 86.6519 129.580   3
  11   3   3 296.278 133.429   2
 -11   3  -3 230.003 61.4989   1
 -11  -3  -3 299.368 114.326   3
  11  -3   4 743.665 104.143   2
 -11   3  -4 474.567 58.5119   1
  11   3   4 1000.01 158.732   2
 -11   3  -4 739.158 67.9597   1
 -11  -3  -4 724.388 138.614   3
  11  -3   5 14178.8 348.771   2
  11   3   5 13916.1 444.916   2
 -11   3  -5 13032.2 218.979   1
  11  -3   6 103.831 86.4443   2
  11   3   6 2.41070 124.686   2
 -11   3  -6 142.850 50.6728   1
  11   3   7 13976.0 476.789   2
 -11   3  -7 13088.0 227.187   1
  11  -3   7 14626.2 384.755   2
  11   3   8 3751.15 280.526   2
  11  -3   8 3498.89 213.023   2
  11   3   9 222.371 154.629   2
  11  -3   9 31.6358 99.4889   2
  11   3  10 2802.25 265.251   2
  11   3  11 1554.63 224.745   2
  11   5 -20 258.578 223.977   1
  11  -5 -20 239.014 237.663   1
  11   5 -19 181.120 210.709   1
  11  -5 -19 347.095 244.296   1
  11   5 -18 828.571 231.001   1
  11  -5 -18 1266.40 272.294   1
  11  -5 -17 273.437 213.003   1
  11   5 -17 252.013 185.278   1
  11   5 -16 12245.6 525.112   1
  11  -5 -16 12603.9 539.375   1
  11   5 -15 4231.10 329.343   1
  11  -5 -15 4920.91 367.795   1
  11  -5 -14 657.559 220.789   1
  11   5 -14 157.510 165.263   1
  11   5 -13-132.046 172.213   1
  11  -5 -13 303.783 191.407   1
  11   5 -12-84.4926 167.573   1
  11  -5 -12 270.272 183.138   1
  11  -5 -11 555.171 193.291   1
  11   5 -11 276.062 148.001   1
  11  -5 -11 617.324 147.505   2
  11   5 -10 4208.41 265.905   1
  11  -5 -10 4921.40 298.762   1
 -11   5  10 4543.91 273.994   1
 -11  -5  10 4401.69 254.564   1
  11  -5 -10 4727.76 274.851   2
 -11   5   9 1023.89 165.353   1
  11  -5  -9 1169.10 190.176   1
  11   5  -9 552.585 142.575   1
 -11  -5   9 862.323 142.374   1
  11  -5  -9 773.177 144.985   2
  11   5  -8 5439.93 263.183   1
 -11   5   8 5146.58 265.160   1
  11  -5  -8 5224.63 280.218   1
  11   5  -7 3814.45 220.596   1
 -11   5   7 4028.60 235.662   1
  11   5  -6 314.409 109.721   1
 -11   5   6 643.631 138.151   1
 -11   5   5 4599.19 233.157   1
  11   5  -5 4618.57 207.590   1
  11   5  -4 24031.4 417.396   1
 -11   5   4 24427.3 478.933   1
  11   5  -4 23004.6 411.407   3
  11  -5  -4 24603.8 547.721   3
  11   5  -3 1463.31 112.737   1
 -11   5   3 1965.75 161.989   1
  11   5  -3 1549.04 132.481   3
  11  -5  -3 2008.24 201.472   3
 -11   5   2 868.179 124.409   1
  11   5  -2 717.441 102.297   3
  11  -5  -2 943.997 155.377   3
  11   5  -2 877.263 85.2150   1
  11   5  -1 6196.98 152.170   1
  11   5  -1 6193.50 234.545   3
  11  -5  -1 6440.37 307.918   3
 -11   5   1 6311.16 234.430   1
  11   5   0 309.294 99.3166   3
  11  -5   0 394.477 136.109   3
 -11   5   0 688.329 112.733   1
  11   5   0 253.164 32.5913   1
  11  -5   1 2831.14 240.678   3
 -11   5  -1 2731.61 157.129   1
  11  -5   2 10028.8 229.044   2
  11  -5   2 9833.38 398.102   3
 -11  -5  -2 9400.79 310.978   3
  11  -5   3 576.172 80.2148   2
  11   5   3 445.484 143.610   2
 -11  -5  -3 688.829 128.724   3
  11  -5   3 461.386 146.493   3
  11  -5   4 1378.99 105.089   2
  11   5   4 1196.84 184.166   2
 -11  -5  -4 1370.89 156.207   3
  11  -5   5-15.0467 66.1836   2
  11   5   5 35.9211 131.817   2
 -11  -5  -5 50.3564 105.424   3
 -11   5  -5 33.6923 74.1313   1
  11   5   6 6472.79 347.552   2
 -11   5  -6 6598.74 215.906   1
  11  -5   6 6576.11 219.728   2
  11   5   7 1601.77 209.315   2
 -11   5  -7 1581.94 128.253   1
  11  -5   7 1564.58 130.891   2
  11   5   8 5446.86 342.164   2
  11   5   9 79.2853 149.185   2
  11   5  10 6318.05 388.470   2
  11   5  11 388.312 184.016   2
  11  -7 -19 1181.55 272.470   1
  11   7 -19 872.918 240.410   1
  11  -7 -18 733.539 247.370   1
  11   7 -18 553.381 218.963   1
  11   7 -17-309.766 215.913   1
  11  -7 -17 123.419 205.057   1
  11   7 -16 3527.33 322.147   1
  11  -7 -16 3653.30 336.268   1
  11  -7 -15 2275.86 283.664   1
  11   7 -15 1752.44 248.276   1
  11  -7 -14 297.121 193.749   1
  11   7 -14 330.742 174.389   1
  11   7 -13 3214.07 279.413   1
  11  -7 -13 3009.16 286.272   1
  11  -7 -12 381.069 188.791   1
  11   7 -12 379.608 171.059   1
  11   7 -11 3440.69 269.237   1
  11   7 -10 11880.2 431.861   1
  11  -7 -10 12275.2 419.153   2
  11   7  -9 5361.21 296.104   1
  11  -7  -9 5826.84 288.694   2
  11   7  -8 215.146 126.425   1
 -11   7   8 373.550 144.275   1
  11  -7  -8 142.051 96.6797   2
 -11   7   7 7967.65 340.084   1
  11  -7  -7 8017.03 300.476   2
  11   7  -7 7514.41 303.641   1
  11   7  -6 41.1543 98.8704   1
 -11   7   6-43.8094 120.928   1
  11  -7  -6-12.4165 85.6939   2
  11   7  -5 18131.6 340.936   3
 -11   7   5 19145.1 477.794   1
  11  -7  -5 19992.5 409.951   2
  11   7  -5 19263.2 421.512   1
  11   7  -4 1795.73 124.189   3
  11  -7  -4 2088.33 209.619   3
  11  -7  -4 1863.13 132.850   2
  11   7  -4 1927.27 148.960   1
 -11   7   4 1813.65 176.541   1
  11   7  -3 12108.2 281.324   3
  11  -7  -3 14092.4 447.893   3
 -11   7   3 14924.9 409.090   1
  11   7  -3 13492.8 320.117   1
 -11   7   2 126.634 117.157   1
  11   7  -2 38.1629 71.5611   1
  11   7  -2-38.7988 76.0622   3
  11  -7  -2-52.2291 135.732   3
  11  -7  -1 18650.5 519.701   3
  11   7  -1 18669.8 313.342   1
 -11   7   1 18949.4 429.062   1
  11  -7   0 759.041 162.966   3
  11   7   0 973.324 77.8236   1
  11   7   1 11738.5 181.828   1
  11  -7   1 13614.0 191.430   2
  11  -7   2 374.274 38.2688   2
  11  -7   2 481.910 151.952   3
  11  -7   3 386.116 158.942   3
  11   7   3 433.256 156.125   2
 -11  -7  -3 623.542 121.410   3
  11  -7   3 312.994 30.3333   2
  11   7   4 1050.76 190.434   2
 -11  -7  -4 1197.14 144.500   3
  11  -7   4 738.650 41.9582   2
  11   7   5 1646.83 220.053   2
 -11  -7  -5 1402.60 159.076   3
  11   7   6 1324.54 211.091   2
 -11   7  -6 1454.06 145.171   1
  11   7   7 8061.59 413.788   2
 -11   7  -7 8731.75 296.396   1
  11   7   8 3390.81 294.388   2
 -11   7  -8 3333.67 202.165   1
  11   7   9-10.2797 160.890   2
  11   7  10 1523.68 246.013   2
  11   9 -18 1632.88 277.401   1
  11   9 -17-320.658 208.760   1
  11   9 -16 4684.91 371.607   1
  11   9 -15 284.014 187.597   1
  11   9 -14 324.914 179.508   1
  11   9 -13 2319.97 258.334   1
  11   9 -12 3126.17 279.937   1
  11   9 -11 767.201 175.908   1
  11   9 -10 2031.39 221.262   1
  11  -9 -10 2027.95 197.812   2
  11   9  -9 2247.24 221.750   1
  11  -9  -9 2074.90 193.265   2
  11   9  -8 3231.77 238.268   1
  11  -9  -8 3684.73 225.397   2
  11   9  -7 2348.25 202.323   1
  11  -9  -7 2005.16 167.735   2
  11  -9  -6 281.640 95.7668   2
 -11   9   6 220.794 143.298   1
  11   9  -6 283.022 120.565   1
  11   9  -5 230.571 101.108   1
  11  -9  -5 99.6430 75.1310   2
 -11   9   5 164.753 135.424   1
  11   9  -5 193.845 65.5113   3
  11   9  -4 21020.0 311.263   3
  11  -9  -4 24786.5 604.388   3
  11   9  -4 24749.2 488.598   1
  11  -9  -4 24851.3 412.460   2
 -11   9   4 26362.0 584.648   1
  11  -9  -3 749.560 85.0053   2
 -11   9   3 778.674 151.085   1
  11   9  -3 724.353 79.2499   3
  11  -9  -3 856.342 169.872   3
  11   9  -3 802.932 114.119   1
  11  -9  -2 1992.44 211.303   3
  11   9  -2 2148.27 146.485   1
 -11   9   2 1956.10 187.711   1
  11  -9  -2 1984.87 98.2551   2
  11  -9  -1 91.5687 31.4710   2
  11  -9  -1-198.415 154.569   3
  11   9  -1-179.450 91.5040   1
  11  -9   0 346.483 145.367   3
  11   9   0 264.371 78.4661   1
  11  -9   1 830.168 175.461   3
  11   9   1 962.234 88.5133   1
  11   9   2 5073.52 153.578   1
  11  -9   2 5588.59 337.995   3
  11   9   2 5646.54 339.077   2
  11   9   2 4357.37 141.289   1
  11   9   3 11.3370 43.0363   1
  11  -9   3-106.542 155.987   3
  11   9   3 126.866 154.091   2
 -11  -9  -3 286.603 105.824   3
  11   9   3 2.60358 35.1357   1
  11   9   4 1921.20 239.084   2
 -11  -9  -4 1977.99 165.757   3
  11   9   5 2812.38 267.811   2
 -11  -9  -5 2687.02 194.307   3
  11   9   6 1042.19 211.007   2
  11   9   7 3584.48 309.890   2
 -11   9  -7 3535.83 226.100   1
  11   9   8 2663.57 288.831   2
 -11   9  -8 2906.56 214.568   1
  11   9   9 382.335 182.858   2
  11  11 -17 544.035 226.924   1
  11  11 -16 1908.47 281.788   1
  11  11 -15 1660.94 270.334   1
  11  11 -14 509.650 193.572   1
  11  11 -13 2614.99 275.819   1
  11  11 -12 1537.37 229.253   1
  11  11 -11 254.878 161.551   1
  11  11 -10-22.0112 144.269   1
  11 -11  -9 1596.60 179.006   2
  11  11  -9 1334.20 194.900   1
  11  11  -8 1019.24 175.505   1
  11 -11  -8 1065.54 146.382   2
  11 -11  -7 5912.36 262.762   2
  11  11  -7 5916.52 307.887   1
  11 -11  -6 27.5125 81.1613   2
  11  11  -6 21.1351 43.0831   3
  11  11  -6-1.06314 117.500   1
  11 -11  -5 2360.17 152.697   2
  11  11  -5 1500.70 65.6761   3
  11  11  -5 2281.75 195.117   1
  11 -11  -5 2714.03 245.735   3
  11 -11  -4 127.471 67.2768   2
  11 -11  -4 138.696 146.212   3
  11  11  -4 79.6601 101.020   1
  11 -11  -3 1582.05 100.241   2
  11  11  -3 1689.26 159.664   1
  11 -11  -3 1507.62 201.493   3
  11 -11  -2 17.2454 30.4288   2
  11 -11  -2-67.1096 155.318   3
  11  11  -2-132.422 108.259   1
  11 -11  -1 21369.7 604.436   3
  11  11  -1 21718.8 444.151   1
  11 -11   0 263.816 152.245   3
  11  11   0 121.746 83.6717   1
  11 -11   1 105.384 148.091   3
  11  11   1 26.1845 77.1819   1
  11 -11   2 1079.07 196.272   3
  11  11   2 1331.96 220.081   2
  11 -11   3 587.186 177.830   3
  11  11   3 401.502 170.481   2
  11  11   4 117.067 158.639   2
  11  11   5 4358.17 342.903   2
  11  11   6 1827.51 252.218   2
  11  11   7 5218.69 375.913   2
  11  11   8 1236.36 240.432   2
 -11  11  -8 1190.85 176.901   1
  11  13 -16 4646.15 391.454   1
  11  13 -15 528.290 215.474   1
  11  13 -14 908.680 222.579   1
  11  13 -13 242.134 178.695   1
  11  13 -12 4142.18 331.360   1
  11  13 -11 1077.53 204.923   1
  11  13 -10 4784.19 330.906   1
  11 -13  -9 653.646 144.643   2
  11  13  -9 591.796 178.090   1
  11 -13  -8 6523.17 299.076   2
  11  13  -8 6826.01 360.587   1
  11 -13  -7 432.881 113.117   2
  11  13  -7 396.940 151.527   1
  11 -13  -6 4950.97 231.008   2
  11  13  -6 4584.10 288.057   1
  11 -13  -6 4833.45 317.637   3
  11 -13  -5 37.4458 76.5021   2
  11 -13  -5 134.785 153.124   3
  11  13  -5-33.9177 122.390   1
  11 -13  -4 4182.91 171.346   2
  11  13  -4 4056.96 254.854   1
  11 -13  -4 4115.22 289.443   3
  11 -13  -3 168.968 146.392   3
  11  13  -3 200.331 112.322   1
  11 -13  -2 628.542 170.262   3
  11  13  -2 704.224 131.268   1
  11 -13  -1 1781.49 226.134   3
  11 -13   0 602.645 174.217   3
  11  13   1 1609.28 238.650   2
  11 -13   1 1590.81 225.467   3
  11  13   2 6003.98 383.588   2
  11 -13   2 5971.26 376.409   3
  11 -13   3 711.438 186.578   3
  11  13   3 613.161 186.625   2
  11  13   4 3429.11 315.658   2
  11  13   5 2619.13 292.881   2
  11  13   6 681.573 212.707   2
  11  13   7-54.6878 182.463   2
  11  15 -14 172.223 195.596   1
  11  15 -13 2698.44 302.167   1
  11  15 -12 264.060 184.239   1
  11  15 -11 732.919 203.971   1
  11  15 -10 230.318 170.379   1
  11  15  -9 1942.31 248.553   1
  11  15  -8 992.993 194.660   1
  11  15  -7 1805.31 228.339   1
  11 -15  -7 2198.17 253.161   3
  11 -15  -6 273.859 166.832   3
  11  15  -6 143.323 142.741   1
  11 -15  -5 376.543 169.832   3
  11  15  -5 411.694 144.705   1
  11 -15  -4-134.119 154.174   3
  11  15  -4-135.165 138.130   1
  11  15  -3 1884.14 204.858   1
  11 -15  -3 1954.82 234.204   3
  11 -15  -2 598.697 170.507   3
  11 -15  -1 4894.62 335.043   3
  11 -15   0-67.8274 152.809   3
  11  15   1 1764.22 262.549   2
  11 -15   1 1715.44 238.369   3
  11  15   2 429.622 195.777   2
  11 -15   2 195.179 165.540   3
  11 -15   3 815.348 205.659   3
  11  15   3 825.497 215.759   2
  11  15   4-2.59547 176.176   2
  11  15   5 1229.03 250.310   2
  11  17 -12 1240.68 244.093   1
  11  17 -11-78.2455 193.718   1
  11  17 -10 5065.44 375.824   1
  11  17  -9 943.797 217.474   1
  11 -17  -8 1503.35 236.179   3
  11  17  -8 1292.23 221.722   1
  11 -17  -7 148.843 167.484   3
  11  17  -7 57.8007 165.065   1
  11 -17  -6 85.9852 158.179   3
  11  17  -6-47.2904 158.736   1
  11 -17  -5 210.469 162.956   3
  11  17  -5 195.421 150.013   1
  11 -17  -4 7569.29 410.171   3
  11  17  -4 7958.19 393.703   1
  11 -17  -3-162.746 171.865   3
  11 -17  -2-121.397 171.564   3
  11 -17  -1 1529.15 233.542   3
  11  17   0 486.288 197.590   2
  11 -17   0 267.896 171.438   3
  11  17   1 43.3578 180.675   2
  11 -17   1-31.1776 162.773   3
  11  17   2 2305.60 295.879   2
  11 -17   2 2126.23 269.081   3
  11 -19  -7 1130.42 226.527   3
  11  19  -7 1408.15 246.552   1
  11 -19  -6 371.012 174.791   3
  11  19  -6 666.785 198.023   1
  11 -19  -5 3944.31 324.714   3
  11  19  -5 4735.47 350.641   1
  11 -19  -4-185.593 191.430   3
  11 -19  -3 3022.84 298.154   3
  11  19  -2-3.40851 179.003   2
  11 -19  -2-38.4100 166.342   3
  12   0 -20 7906.74 501.960   1
  12   0 -19-367.002 229.970   1
  12   0 -18 2050.87 288.165   1
  12   0 -17 570.246 235.347   1
  12   0 -16 447.441 216.324   1
  12   0 -15 482.241 205.854   1
  12   0 -14 10005.9 445.422   1
  12   0 -13 589.098 198.119   1
  12   0 -12 3777.35 292.951   1
 -12   0  11-52.8465 115.315   1
  12   0 -11 226.733 165.895   1
  12   0 -10 1668.86 201.260   1
 -12   0  10 1404.47 165.310   1
  12   0  -9-234.085 155.273   1
 -12   0   9-112.188 102.297   1
  12   0  -8 4802.35 257.602   1
 -12   0   8 4888.85 245.451   1
 -12   0   7 54.0195 92.9783   1
  12   0  -7-61.4495 114.048   1
  12   0  -6 6768.12 261.014   1
 -12   0   6 6640.93 248.834   1
  12   0  -5 91.5666 101.598   1
 -12   0   5-52.3329 78.5717   1
  12   0  -4 230.290 93.1500   1
 -12   0   4 190.178 79.9981   1
  12   0  -4 430.636 127.516   3
 -12   0   3 9.64949 65.5718   1
  12   0  -3 0.51617 105.477   3
  12   0  -2 27433.4 557.752   3
 -12   0   2 28474.9 353.684   1
 -12   0   1-5.97260 40.7473   1
  12   0  -1-219.705 129.677   3
  12   0   0 7612.35 324.299   3
  12   0   1 43.6629 116.370   3
  12   0   2 7053.38 329.156   3
  12   0   3 0.43845 101.107   2
  12   0   4 2227.48 189.341   2
  12   0   5 157.111 113.018   2
  12   0   6 23911.1 558.322   2
  12   0   7 139.150 121.701   2
  12   0   8 485.937 144.411   2
  12   0   9 105.990 128.609   2
  12   0  10 1518.70 197.897   2
  12   2 -20 567.154 245.956   1
  12  -2 -20-23.8189 230.748   1
  12   2 -19 1057.27 261.468   1
  12  -2 -19 778.443 252.670   1
  12   2 -18 254.226 211.432   1
  12  -2 -18-29.6896 213.338   1
  12  -2 -17 6186.31 409.148   1
  12   2 -17 6830.88 423.816   1
  12   2 -16 288.001 198.795   1
  12  -2 -16-245.551 212.989   1
  12  -2 -15 3543.06 313.605   1
  12   2 -15 4417.50 334.897   1
  12   2 -14 763.004 203.530   1
  12  -2 -14 421.954 196.607   1
  12   2 -13 424.254 181.800   1
  12  -2 -13 208.686 178.472   1
  12  -2 -12 4938.75 317.975   1
  12   2 -12 5135.49 315.058   1
  12  -2 -11 7038.43 353.335   1
  12   2 -11 7181.24 343.566   1
 -12  -2  11 6653.53 314.587   1
 -12  -2  10 714.186 134.049   1
  12   2 -10 909.872 172.139   1
 -12   2  10 1058.97 159.458   1
  12  -2 -10 931.296 185.444   1
 -12   2   9 13998.0 417.039   1
  12  -2  -9 14897.2 447.975   1
  12   2  -9 15326.2 433.337   1
 -12  -2   9 14592.4 411.229   1
 -12  -2   8 568.120 117.815   1
  12   2  -8 628.746 140.386   1
  12  -2  -8 670.996 155.799   1
 -12   2   8 429.302 115.817   1
 -12  -2   7 578.213 107.373   1
  12   2  -7 742.184 136.221   1
 -12   2   7 359.066 104.101   1
  12  -2  -7 621.792 142.378   1
  12  -2  -6 761.963 137.384   1
  12   2  -6 854.658 130.978   1
 -12   2   6 600.746 112.943   1
 -12  -2   6 620.165 105.477   1
  12   2  -5 13506.7 334.994   1
 -12   2   5 12628.8 333.153   1
 -12  -2   5 12747.9 307.777   1
  12   2  -4 1792.96 131.552   1
 -12   2   4 1758.19 134.610   1
 -12  -2   4 1678.22 117.800   1
  12   2  -4 1954.03 171.063   3
  12  -2  -4 2244.18 201.116   3
 -12   2   3 7446.20 231.126   1
  12   2  -3 8169.18 217.496   1
  12   2  -3 7344.39 283.233   3
 -12  -2   3 7649.06 199.505   1
  12  -2  -3 7931.71 323.010   3
  12   2  -2 66.0374 104.773   3
  12  -2  -2 44.4998 116.635   3
  12   2  -2 128.400 58.5202   1
 -12   2   2 94.0076 70.1569   1
 -12   2   1 1914.56 110.908   1
  12   2  -1 1947.07 173.028   3
  12  -2  -1 1962.51 190.836   3
 -12   2   0 1106.45 83.7559   1
  12   2   0 960.447 144.455   3
  12  -2   0 1051.84 162.173   3
 -12   2  -1 6055.57 144.523   1
  12   2   1 6277.33 292.811   3
  12  -2   1 6641.57 324.560   3
 -12   2  -2 524.075 41.7456   1
  12  -2   2 763.039 158.780   3
  12  -2   2 655.339 109.008   2
 -12  -2  -2 1171.22 161.184   3
  12  -2   3 20609.2 433.334   2
  12   2   3 20334.6 509.661   2
  12  -2   4 856.681 125.132   2
  12   2   4 1183.86 164.918   2
  12  -2   5 698.816 122.727   2
  12   2   5 782.568 157.072   2
  12  -2   6 1825.61 166.796   2
  12   2   6 1525.81 186.896   2
  12  -2   7 10541.9 360.563   2
  12   2   7 10265.8 412.904   2
  12  -2   8 560.876 128.468   2
  12   2   8 639.856 166.649   2
  12   2   9 11892.7 468.604   2
  12  -2   9 12015.3 410.984   2
  12   2  10 94.0841 142.199   2
  12   4 -20 2613.10 335.981   1
  12  -4 -20 2731.20 350.057   1
  12   4 -19 1215.33 262.108   1
  12  -4 -19 1204.34 273.985   1
  12   4 -18 7035.46 440.184   1
  12  -4 -18 6187.40 435.734   1
  12   4 -17 2303.27 283.945   1
  12  -4 -17 2591.11 308.329   1
  12   4 -16 709.719 214.995   1
  12  -4 -16 795.448 242.030   1
  12   4 -15 220.653 180.981   1
  12  -4 -15 438.012 214.753   1
  12  -4 -14 765.573 224.945   1
  12   4 -14 643.164 184.915   1
  12  -4 -13 1671.55 245.200   1
  12   4 -13 1180.81 201.549   1
  12   4 -12 3543.59 269.238   1
  12  -4 -12 3550.08 290.632   1
  12  -4 -11 154.828 172.487   1
  12   4 -11 129.361 144.615   1
 -12  -4  10 301.332 120.950   1
 -12   4  10 285.346 132.242   1
  12   4 -10 267.174 142.463   1
  12  -4 -10 446.873 173.470   1
  12  -4  -9 2070.10 216.792   1
  12   4  -9 1828.65 187.457   1
 -12   4   9 1826.85 184.455   1
 -12  -4   9 2031.83 178.179   1
  12   4  -8 8680.61 327.634   1
 -12   4   8 8993.52 339.771   1
 -12  -4   8 8883.41 315.082   1
  12  -4  -8 8954.84 349.049   1
 -12   4   7 427.145 124.774   1
 -12  -4   7 253.378 97.5548   1
  12   4  -7 224.614 110.431   1
  12   4  -6 24376.4 469.307   1
 -12   4   6 22929.0 489.517   1
  12   4  -5 653.071 109.884   1
 -12   4   5 778.754 130.387   1
  12   4  -5 910.623 133.095   3
  12   4  -4 3841.25 179.765   1
  12   4  -4 3468.02 196.875   3
  12  -4  -4 3922.47 253.986   3
 -12   4   4 4075.48 209.557   1
  12   4  -3 837.018 99.1072   1
  12   4  -3 439.083 109.564   3
  12  -4  -3 695.892 155.871   3
 -12   4   3 807.497 125.970   1
  12   4  -2 13630.8 244.249   1
 -12   4   2 13379.1 327.579   1
  12   4  -2 12562.7 349.798   3
  12  -4  -2 13380.9 429.715   3
 -12   4   1-49.2049 88.7726   1
  12   4  -1 106.062 37.2405   1
  12   4  -1-13.6665 95.0392   3
  12  -4  -1-195.748 144.305   3
 -12   4   0 14289.7 305.922   1
  12   4   0 14278.2 392.471   3
  12  -4   0 14376.4 462.293   3
  12  -4   1 1428.97 188.410   3
 -12   4  -1 1556.50 120.992   1
  12  -4   2 1362.85 119.247   2
  12  -4   2 1417.21 194.063   3
 -12   4  -2 1466.80 115.148   1
  12  -4   3 22.1202 73.4017   2
  12  -4   3-54.4041 146.675   3
  12   4   3 25.2008 127.673   2
 -12   4  -3 134.327 74.4246   1
 -12  -4  -3 284.910 125.347   3
  12  -4   4 2956.01 165.679   2
 -12   4  -4 2654.18 124.823   1
  12   4   4 2938.03 239.814   2
 -12   4  -4 2609.30 124.542   1
  12  -4   5 1897.97 142.561   2
  12   4   5 1845.13 207.259   2
 -12   4  -5 1311.00 88.8739   1
 -12   4  -5 1781.29 100.418   1
  12   4   6 17543.7 543.767   2
 -12   4  -6 16008.7 264.802   1
  12  -4   6 18174.4 401.646   2
  12   4   7 1455.09 207.536   2
  12  -4   7 1565.73 143.626   2
  12   4   8 4378.74 313.005   2
  12   4   9 1369.05 216.024   2
  12   4  10 631.583 192.537   2
  12   6 -19-130.990 215.999   1
  12  -6 -19 230.076 236.571   1
  12  -6 -18 380.117 234.518   1
  12   6 -18-78.1814 198.400   1
  12  -6 -17 7404.11 459.020   1
  12   6 -17 6553.28 421.431   1
  12  -6 -16 229.773 205.965   1
  12   6 -16 2.97575 185.675   1
  12  -6 -15 734.286 223.941   1
  12   6 -15 319.160 175.729   1
  12  -6 -14 74.1339 187.735   1
  12   6 -14-49.2221 176.506   1
  12   6 -13-104.849 180.292   1
  12  -6 -13 347.312 187.409   1
  12  -6 -12 232.587 187.210   1
  12   6 -12-272.600 190.037   1
  12   6 -11 7752.43 372.962   1
  12  -6 -11 9139.04 408.212   1
  12   6 -10 1331.00 186.084   1
  12  -6 -10 1497.69 179.858   2
  12   6  -9 15511.5 460.230   1
  12  -6  -9 16008.1 460.300   2
 -12   6   8 355.811 140.547   1
  12   6  -8 325.209 132.164   1
  12  -6  -8 104.979 103.208   2
  12   6  -7 406.193 121.900   1
 -12   6   7 344.517 134.816   1
 -12   6   6 3892.51 243.945   1
  12   6  -6 3528.28 207.338   1
  12   6  -5 13403.2 347.330   1
 -12   6   5 13369.1 396.340   1
  12   6  -5 12809.6 325.233   3
  12   6  -4 1458.68 131.510   1
 -12   6   4 1518.39 162.572   1
  12   6  -4 1267.20 125.500   3
  12  -6  -4 2012.40 211.354   3
  12   6  -3 7080.68 223.382   1
 -12   6   3 7002.36 281.002   1
  12   6  -3 6485.72 237.969   3
  12  -6  -3 6912.88 335.767   3
 -12   6   2 1140.72 144.711   1
  12   6  -2 874.181 116.470   3
  12  -6  -2 891.539 166.496   3
  12   6  -2 909.612 90.9299   1
  12   6  -1 1626.06 90.0417   1
  12   6  -1 1554.86 141.734   3
  12  -6  -1 1259.89 183.778   3
 -12   6   1 1554.19 156.166   1
 -12   6   0 3515.56 197.183   1
  12  -6   0 3230.63 255.366   3
 -12   6  -1 10171.1 296.054   1
  12  -6   1 9837.31 219.947   2
  12  -6   1 9524.86 413.590   3
  12  -6   2 81.1334 52.7681   2
  12  -6   2 25.2615 137.449   3
 -12   6  -2-75.7237 97.3344   1
  12  -6   3 2476.94 117.562   2
  12   6   3 2759.01 242.856   2
  12  -6   3 2469.19 249.744   3
 -12  -6  -3 3062.26 209.528   3
  12   6   4 2402.61 238.244   2
 -12  -6  -4 2072.20 190.247   3
  12  -6   4 1910.45 106.308   2
  12   6   5 6286.46 355.501   2
 -12   6  -5 6341.94 223.904   1
  12  -6   5 5771.00 178.936   2
  12   6   6 1830.05 228.899   2
 -12   6  -6 1837.04 141.922   1
  12   6   7 898.266 197.102   2
  12   6   8 117.526 159.740   2
  12   6   9 4635.74 349.252   2
  12  -8 -19 263.679 231.335   1
  12   8 -19-85.0341 228.888   1
  12  -8 -18 1177.44 261.323   1
  12   8 -18 1185.02 251.173   1
  12  -8 -17 234.112 213.988   1
  12   8 -17-85.7688 216.055   1
  12   8 -16 33.7566 203.047   1
  12  -8 -16 695.824 237.754   1
  12   8 -15-22.7496 188.506   1
  12   8 -14 1809.07 250.318   1
  12   8 -13 66.2739 156.528   1
  12   8 -12 5527.13 339.862   1
  12   8 -11 835.292 186.900   1
  12   8 -10 2487.58 237.728   1
  12  -8 -10 2600.94 222.300   2
  12   8  -9 1189.81 180.806   1
  12  -8  -9 1044.18 152.342   2
  12  -8  -8 1147.93 150.442   2
  12   8  -8 1311.77 176.440   1
  12   8  -7 811.769 142.154   1
  12  -8  -7 662.991 119.184   2
 -12   8   6 18626.9 505.628   1
  12   8  -6 18083.4 352.539   3
  12  -8  -6 19757.2 439.468   2
  12   8  -6 19635.2 463.424   1
 -12   8   5 5496.25 292.505   1
  12   8  -5 4151.64 178.020   3
  12  -8  -5 5038.32 303.343   3
  12  -8  -5 5134.13 223.393   2
  12   8  -5 4735.70 233.545   1
  12   8  -4 2109.46 135.567   3
 -12   8   4 3269.50 236.149   1
  12  -8  -4 3022.72 254.550   3
  12  -8  -4 2868.96 164.670   2
  12   8  -4 2623.61 174.969   1
  12   8  -3 1055.24 106.077   3
  12  -8  -3 1070.75 182.915   3
 -12   8   3 1347.49 170.809   1
  12  -8  -3 1338.46 110.756   2
  12   8  -3 1152.52 122.193   1
 -12   8   2 11236.5 371.081   1
  12   8  -2 9672.77 269.903   3
  12  -8  -2 10696.3 423.619   3
  12  -8  -2 11187.4 246.322   2
  12   8  -2 10945.8 276.350   1
  12   8  -1 30.5556 69.1986   1
 -12   8   1 120.355 120.345   1
  12  -8  -1 59.0369 47.5159   2
  12  -8   0 7975.03 145.596   2
  12  -8   0 10279.4 430.040   3
 -12   8   0 10499.7 339.861   1
  12  -8   0 8032.27 152.538   2
  12   8   0 9592.07 207.137   1
  12   8   1 2463.02 89.3511   1
  12  -8   1 4168.74 305.152   3
  12  -8   2 6318.68 359.645   3
  12   8   2 6488.48 355.053   2
  12   8   3 8003.98 399.314   2
  12  -8   3 8209.88 412.352   3
  12   8   4 4958.01 330.530   2
 -12  -8  -4 5169.40 261.326   3
  12   8   5 46.4869 154.299   2
  12   8   6 11598.8 498.199   2
 -12   8  -6 12119.3 355.709   1
  12   8   7 40.9722 160.778   2
  12   8   8 965.008 217.271   2
  12   8   9 445.415 198.770   2
  12  10 -18 72.0428 217.435   1
  12  10 -17 3593.50 348.638   1
  12  10 -16 193.685 193.025   1
  12  10 -15 1846.18 273.770   1
  12  10 -14 65.2334 171.291   1
  12  10 -13 679.221 204.930   1
  12  10 -12 204.293 168.527   1
  12  10 -11 3013.53 269.541   1
  12  10 -10 268.598 155.186   1
  12  10  -9 6595.33 338.681   1
  12 -10  -9 6532.96 305.264   2
  12 -10  -8 110.201 101.029   2
  12  10  -8 53.3329 128.390   1
  12 -10  -7 63.2571 92.1019   2
  12  10  -7 238.757 127.709   1
  12  10  -6 844.445 144.517   1
  12 -10  -6 954.547 121.476   2
  12  10  -6 838.141 89.5839   3
  12  10  -5 1989.38 108.992   3
  12 -10  -5 2523.51 245.101   3
  12  10  -5 2542.96 195.532   1
  12 -10  -5 2562.53 160.009   2
  12  10  -4 1220.77 139.459   1
  12  10  -4 1007.38 83.3124   3
  12 -10  -4 1162.89 191.774   3
  12 -10  -4 1286.25 110.964   2
  12 -10  -3 8397.50 215.679   2
 -12  10   3 8810.27 368.991   1
  12 -10  -3 8637.28 396.739   3
  12  10  -3 8578.70 291.887   1
  12 -10  -2 11327.0 201.055   2
  12 -10  -2 13746.2 492.106   3
 -12  10   2 14139.8 446.901   1
  12  10  -2 13394.7 342.340   1
  12 -10  -1 772.652 180.013   3
 -12  10   1 956.723 164.035   1
  12  10  -1 1055.85 114.927   1
  12 -10   0 756.604 178.513   3
  12  10   0 365.975 83.3814   1
  12 -10   1 1823.38 238.790   3
  12  10   1 1501.30 106.591   1
  12 -10   2 1020.59 207.708   3
  12  10   2 1133.92 206.409   2
  12  10   2 741.233 70.9618   1
  12 -10   3 711.411 190.435   3
  12  10   3 865.183 199.454   2
  12  10   4 7.61994 152.705   2
  12  10   5 980.200 210.666   2
  12  10   6 2509.33 284.099   2
  12  10   7 4676.52 363.827   2
  12  10   8 457.059 192.548   2
  12  12 -17 1041.61 263.113   1
  12  12 -16 467.598 232.778   1
  12  12 -15 269.838 194.464   1
  12  12 -14 4832.74 370.336   1
  12  12 -13 308.829 188.649   1
  12  12 -12 1075.32 216.752   1
  12  12 -11 585.322 187.582   1
  12  12 -10 105.157 150.780   1
  12 -12  -9 1435.51 172.193   2
  12  12  -9 1324.33 202.386   1
  12 -12  -8 4054.23 241.266   2
  12  12  -8 3844.80 274.462   1
  12 -12  -7 3710.09 218.625   2
  12  12  -7 2391.23 97.4678   3
  12  12  -7 3315.16 248.718   1
  12 -12  -6 2773.97 178.757   2
  12 -12  -6 2773.39 262.801   3
  12  12  -6 2852.29 225.726   1
  12 -12  -5 3422.13 178.578   2
  12 -12  -5 3400.26 282.330   3
  12  12  -5 3030.53 223.426   1
  12 -12  -4-53.5303 69.3993   2
  12 -12  -4 94.5902 143.775   3
  12  12  -4-57.8364 113.486   1
  12 -12  -3 77.8684 45.5489   2
  12 -12  -3-165.331 163.407   3
  12  12  -3-38.5794 108.550   1
  12 -12  -2 2332.23 248.784   3
  12  12  -2 2367.64 183.563   1
  12 -12  -1 222.218 151.188   3
  12  12  -1 435.847 106.643   1
  12 -12   0 4047.60 312.372   3
  12  12   0 4241.40 207.679   1
  12 -12   1 1638.41 226.288   3
  12  12   1 1388.88 131.516   1
  12 -12   2 1590.24 236.787   3
  12  12   2 1763.33 245.813   2
  12 -12   3 1579.00 237.576   3
  12  12   3 1539.94 240.471   2
  12  12   4 4073.00 336.638   2
  12  12   5 177.804 180.713   2
  12  12   6 3519.53 336.497   2
  12  12   7 1210.01 251.722   2
  12  14 -15 781.597 235.470   1
  12  14 -14 520.052 220.906   1
  12  14 -13 217.827 192.591   1
  12  14 -12 820.538 216.091   1
  12  14 -11 3192.37 299.434   1
  12  14 -10 95.3988 156.842   1
  12  14  -9 5160.77 338.887   1
  12  14  -8-73.6017 157.479   1
  12 -14  -7 387.320 182.826   3
  12  14  -7-94.0867 149.661   1
  12 -14  -6 1387.79 219.330   3
  12  14  -6 1047.27 180.910   1
  12 -14  -5 1132.88 204.233   3
  12  14  -5 911.220 164.825   1
  12 -14  -4 108.597 152.899   3
  12  14  -4 366.555 136.448   1
  12  14  -3 1469.31 177.550   1
  12 -14  -3 1272.78 211.506   3
  12 -14  -2-81.7901 167.971   3
  12  14  -2 114.364 113.075   1
  12 -14  -1 643.267 188.796   3
  12  14  -1 802.805 134.707   1
  12 -14   0-47.5174 155.644   3
  12  14   0 57.9337 97.4968   1
  12  14   1 1644.98 250.274   2
  12 -14   1 1686.68 238.520   3
  12  14   1 1379.21 147.649   1
  12 -14   2 167.583 163.679   3
  12  14   2 288.329 191.104   2
  12 -14   3 1325.27 232.384   3
  12  14   3 1779.68 264.004   2
  12  14   4 740.642 220.303   2
  12  14   5 274.572 191.463   2
  12  16 -13 13.4502 188.068   1
  12  16 -12 1380.39 242.830   1
  12  16 -11 976.969 221.160   1
  12  16 -10 181.342 177.537   1
  12  16  -9 643.590 192.759   1
  12 -16  -8 1897.18 254.098   3
  12  16  -8 1275.41 221.067   1
  12 -16  -7 456.340 189.602   3
  12  16  -7 85.6830 157.884   1
  12 -16  -6 1936.96 251.728   3
  12  16  -6 1750.43 220.793   1
  12 -16  -5 2442.02 260.649   3
  12  16  -5 2475.83 242.755   1
  12 -16  -4 110.303 162.580   3
  12  16  -4 29.9477 137.286   1
  12 -16  -3 4.20891 163.419   3
  12  16  -3 134.322 135.304   1
  12 -16  -2 2731.92 281.962   3
  12  16  -2 2591.85 224.545   1
  12 -16  -1-80.3929 160.865   3
  12  16  -1-61.2373 122.270   1
  12  16   0 1107.23 230.212   2
  12 -16   0 1010.66 216.729   3
  12  16   1 217.129 188.155   2
  12 -16   1 59.2883 168.783   3
  12 -16   2-38.4399 171.914   3
  12  16   2 50.5491 187.836   2
  12 -18  -9 1537.73 246.718   3
  12  18  -9 1071.25 228.798   1
  12 -18  -8 307.240 186.797   3
  12  18  -8 39.1460 172.481   1
  12 -18  -7 71.8948 163.621   3
  12  18  -7 126.964 169.086   1
  12  18  -6 2101.29 264.207   1
  12 -18  -6 1862.98 254.143   3
  12  18  -5 2114.60 259.688   1
  12 -18  -5 2175.70 268.557   3
  12 -18  -4 64.2110 170.371   3
  12  18  -4 234.408 161.520   1
  12  18  -3 2065.57 235.490   1
  12 -18  -3 1459.03 240.130   3
  12 -18  -2-112.554 160.641   3
  12  18  -2 3.75796 139.952   1
  12  18  -1 295.332 202.326   2
  12 -18  -1 10.3893 165.634   3
  13  -1 -20 114.299 222.089   1
  13   1 -20 824.181 259.918   1
  13   1 -19 2602.73 329.756   1
  13  -1 -19 1587.21 287.054   1
  13  -1 -18 612.216 235.230   1
  13   1 -18 1000.24 262.226   1
  13  -1 -17-2.52485 204.402   1
  13   1 -17 494.808 223.480   1
  13  -1 -16 322.481 207.794   1
  13   1 -16 859.856 231.012   1
  13  -1 -15 457.167 200.799   1
  13   1 -15 1253.49 244.146   1
  13  -1 -14-71.3651 189.610   1
  13   1 -14 523.404 200.537   1
  13  -1 -13 2662.62 265.722   1
  13   1 -13 3484.55 285.848   1
  13  -1 -12 7612.12 377.459   1
  13   1 -12 8436.00 387.789   1
  13  -1 -11 1033.76 196.056   1
  13   1 -11 1728.70 215.868   1
 -13   1  10 12932.2 421.468   1
  13  -1 -10 13710.7 451.292   1
 -13  -1  10 13170.3 418.851   1
  13   1 -10 14152.6 453.661   1
  13   1  -9 1286.12 188.643   1
 -13  -1   9 920.093 146.171   1
 -13   1   9 785.517 143.556   1
  13  -1  -9 985.382 172.926   1
 -13   1   8 3277.77 211.090   1
  13   1  -8 2944.74 217.860   1
  13  -1  -8 3350.26 231.368   1
 -13  -1   8 3205.67 205.275   1
 -13   1   7 9657.12 323.785   1
  13   1  -7 10236.4 337.726   1
  13  -1  -7 10444.2 346.917   1
 -13  -1   7 10077.8 320.372   1
 -13   1   6 6155.02 254.118   1
  13  -1  -6 6785.71 272.870   1
  13   1  -6 6191.05 255.469   1
 -13  -1   6 5987.31 238.922   1
 -13   1   5 1614.99 142.664   1
  13   1  -5 1703.30 149.452   1
  13  -1  -5 1541.41 146.990   1
  13   1  -5 1626.97 175.966   3
  13  -1  -5 1909.37 191.465   3
 -13  -1   5 1421.22 125.109   1
 -13   1   4 1798.38 138.452   1
  13   1  -4 1716.77 177.936   3
  13  -1  -4 2055.33 193.144   3
 -13  -1   4 1631.88 122.106   1
  13   1  -4 2031.01 144.387   1
 -13   1   3 4902.14 189.951   1
  13   1  -3 4562.41 250.313   3
  13  -1  -3 4419.97 260.946   3
 -13  -1   3 4811.48 165.470   1
 -13   1   2 7038.09 197.468   1
  13   1  -2 6823.66 302.353   3
  13  -1  -2 6708.52 314.005   3
 -13  -1   2 6446.39 163.186   1
  13   1  -1 4205.41 249.281   3
  13  -1  -1 3911.80 255.009   3
 -13   1   1 3709.52 129.475   1
  13   1   0 1096.54 162.451   3
  13  -1   0 1101.18 172.204   3
 -13   1   0 969.940 57.6926   1
  13   1   1 6441.22 319.513   3
  13  -1   1 6209.01 322.251   3
  13  -1   2 3439.73 260.708   3
  13  -1   2 3490.73 210.391   2
  13  -1   3 81.9989 99.5915   2
  13   1   3 110.871 117.211   2
  13  -1   4 8217.44 317.313   2
  13   1   4 7787.03 334.754   2
  13  -1   5 14817.5 428.498   2
  13   1   5 15133.7 465.986   2
  13  -1   6 1023.91 157.941   2
  13   1   6 911.064 169.146   2
  13  -1   7 621.243 143.890   2
  13   1   7 539.094 152.942   2
  13  -1   8 1894.91 199.271   2
  13   1   8 1766.43 208.501   2
  13   1   9 162.886 135.816   2
  13  -3 -20 54.0798 234.599   1
  13   3 -20 411.279 243.578   1
  13  -3 -19 3343.58 366.830   1
  13   3 -19 3219.58 342.219   1
  13  -3 -18 2007.38 303.697   1
  13   3 -18 2013.44 292.673   1
  13  -3 -17 143.346 218.313   1
  13   3 -17 277.810 202.851   1
  13  -3 -16 1574.33 264.716   1
  13   3 -16 1933.91 267.863   1
  13  -3 -15 453.051 217.006   1
  13   3 -15 639.024 206.006   1
  13  -3 -14 746.460 217.026   1
  13   3 -14 685.419 195.691   1
  13   3 -13 9571.50 424.725   1
  13  -3 -13 9572.90 438.863   1
  13   3 -12 1340.12 207.994   1
  13  -3 -12 1113.04 219.243   1
  13   3 -11 1612.58 204.175   1
  13  -3 -11 1529.87 221.601   1
  13   3 -10 1587.65 192.444   1
 -13   3  10 1079.46 161.153   1
  13  -3 -10 1803.35 223.120   1
 -13  -3  10 1321.39 162.979   1
  13  -3  -9 9888.73 383.481   1
 -13   3   9 8934.80 353.075   1
  13   3  -9 9910.14 365.407   1
 -13  -3   9 9461.47 345.765   1
  13   3  -8 143.405 125.932   1
  13  -3  -8 181.326 141.870   1
 -13   3   8-19.7676 119.121   1
 -13  -3   8 32.8716 94.2558   1
 -13   3   7 9510.58 333.232   1
 -13  -3   7 9544.69 311.992   1
  13   3  -7 10274.7 333.081   1
  13  -3  -7 9835.10 345.325   1
 -13   3   6 1683.01 160.366   1
 -13  -3   6 1677.27 143.942   1
  13   3  -6 1893.91 163.738   1
 -13  -3   5 416.591 94.1740   1
  13   3  -5 507.454 128.847   3
  13  -3  -5 763.997 169.721   3
  13   3  -5 757.092 124.752   1
 -13   3   5 313.390 106.169   1
  13   3  -4 6881.10 227.319   1
 -13   3   4 6371.80 241.528   1
  13   3  -4 6228.07 265.584   3
  13  -3  -4 6236.05 313.946   3
  13   3  -3 4007.49 164.363   1
 -13   3   3 3715.50 184.417   1
  13   3  -3 3224.00 207.556   3
  13  -3  -3 3603.93 250.520   3
  13   3  -2 3895.11 126.369   1
 -13   3   2 4146.90 180.315   1
  13  -3  -2 3890.67 262.128   3
  13   3  -2 4012.38 229.593   3
  13   3  -1 9457.52 342.161   3
  13  -3  -1 9748.53 394.785   3
 -13   3   1 10624.4 256.776   1
  13   3   0 1398.51 168.182   3
 -13   3   0 1870.12 117.863   1
  13  -3   0 1391.34 190.953   3
  13  -3   1 3067.24 250.633   3
 -13   3  -1 3358.51 130.853   1
  13  -3   2 9753.78 299.849   2
  13  -3   2 9560.56 420.067   3
 -13   3  -2 8067.96 170.323   1
  13  -3   3 433.824 103.719   2
  13   3   3 364.586 145.088   2
 -13   3  -3 338.990 42.1115   1
 -13   3  -3 220.813 35.6927   1
  13  -3   4 412.187 101.884   2
  13   3   4 314.825 144.179   2
  13  -3   5 8767.77 301.509   2
  13   3   5 8878.03 389.434   2
  13  -3   6 302.203 104.732   2
  13   3   6 216.771 146.073   2
  13   3   7 3026.66 267.685   2
  13  -3   7 3167.41 208.309   2
  13   3   8 3298.84 278.847   2
  13   3   9-68.3805 147.142   2
  13   5 -19 2350.65 309.721   1
  13  -5 -19 2072.26 313.319   1
  13   5 -18 1458.02 263.891   1
  13  -5 -18 1785.16 303.202   1
  13   5 -17 761.758 220.698   1
  13  -5 -17 943.630 253.546   1
  13   5 -16 2991.25 301.701   1
  13  -5 -16 2792.74 318.428   1
  13  -5 -15 339.393 208.028   1
  13   5 -15-131.567 182.132   1
  13   5 -14 286.782 169.405   1
  13  -5 -14 541.206 216.119   1
  13  -5 -13 306.026 198.237   1
  13   5 -13 87.9157 161.612   1
  13  -5 -12 175.350 180.051   1
  13   5 -12 39.0179 154.978   1
  13  -5 -11 948.722 199.114   1
  13   5 -11 966.409 181.046   1
  13   5 -10 9196.70 382.990   1
 -13  -5  10 9594.38 364.471   1
  13  -5 -10 9532.24 403.493   1
  13  -5 -10 9882.61 390.603   2
 -13   5   9 459.894 144.377   1
  13   5  -9 260.536 132.820   1
  13   5  -8 3058.50 216.403   1
 -13   5   8 2969.91 223.330   1
  13   5  -7 4153.45 230.786   1
 -13   5   7 4168.27 248.418   1
  13   5  -6 10655.0 327.653   1
 -13   5   6 10605.6 357.502   1
 -13   5   5 273.154 121.476   1
  13   5  -5 179.198 104.084   3
  13   5  -5-22.4774 91.9407   1
  13   5  -4 7515.84 241.038   1
  13   5  -4 6727.43 264.043   3
  13  -5  -4 7378.93 344.802   3
 -13   5   4 7365.84 283.333   1
 -13   5   3 1966.15 167.880   1
  13   5  -3 1321.18 143.104   3
  13   5  -3 1992.77 132.730   1
  13  -5  -3 1567.39 198.053   3
 -13   5   2 4080.65 209.656   1
  13   5  -2 4233.56 223.790   3
  13  -5  -2 4402.28 280.955   3
  13   5  -2 4790.83 153.006   1
 -13   5   1 1389.01 138.829   1
  13   5  -1 1621.89 162.286   3
  13  -5  -1 1346.86 195.737   3
  13   5  -1 1269.85 60.7574   1
 -13   5   0 366.702 109.078   1
  13  -5   0 457.858 163.172   3
  13  -5   1 2758.59 148.635   2
  13  -5   1 2736.98 251.223   3
 -13   5  -1 2749.54 160.883   1
  13  -5   2 3762.88 167.949   2
  13  -5   2 3648.17 283.252   3
 -13   5  -2 3977.43 180.112   1
  13  -5   3 252.554 78.1459   2
 -13   5  -3 414.627 100.702   1
  13  -5   3 103.767 145.652   3
  13   5   3 397.497 153.937   2
  13  -5   4 6222.11 213.480   2
  13   5   4 6239.82 346.952   2
 -13   5  -4 5819.07 188.369   1
  13   5   5 3882.63 292.769   2
  13  -5   5 3849.96 180.490   2
  13   5   6 667.229 181.234   2
  13   5   7 3488.83 294.603   2
  13   5   8 4138.25 324.751   2
  13   5   9 169.047 166.573   2
  13  -7 -19 3138.24 360.922   1
  13   7 -19 2689.81 323.226   1
  13  -7 -18 737.564 251.497   1
  13   7 -18 619.469 222.127   1
  13  -7 -17 188.323 213.849   1
  13   7 -17-91.0751 206.347   1
  13  -7 -16 329.409 216.305   1
  13   7 -16 109.994 185.497   1
  13   7 -15-309.016 203.026   1
  13  -7 -15-60.5103 198.939   1
  13   7 -14 122.206 185.214   1
  13  -7 -14 262.314 186.335   1
  13   7 -13 2351.96 253.947   1
  13   7 -12 245.196 158.376   1
  13   7 -11-214.111 174.832   1
  13   7 -10 7199.29 350.745   1
  13  -7 -10 7204.44 340.823   2
  13   7  -9 381.098 143.385   1
  13  -7  -9 240.965 120.547   2
  13   7  -8 440.702 140.695   1
  13  -7  -8 227.141 110.665   2
  13   7  -7 6383.26 289.684   1
  13  -7  -7 6015.07 276.511   2
 -13   7   7 6737.23 323.868   1
  13   7  -6 258.620 112.150   1
  13   7  -6 288.340 109.895   3
  13  -7  -6 175.702 93.2911   2
 -13   7   6 438.315 146.140   1
 -13   7   5 260.953 127.031   1
  13   7  -5 317.575 106.863   1
  13   7  -5 162.403 93.3213   3
  13  -7  -5 557.732 173.120   3
  13   7  -4 1921.08 149.639   1
 -13   7   4 1901.37 188.047   1
  13   7  -4 1626.56 137.887   3
  13  -7  -4 2124.97 226.311   3
  13   7  -3 3734.61 178.659   1
 -13   7   3 4100.66 242.307   1
  13   7  -3 3286.77 185.009   3
  13  -7  -3 3761.69 274.336   3
 -13   7   2 881.763 146.041   1
  13   7  -2 917.642 118.933   3
  13  -7  -2 711.326 174.810   3
  13   7  -2 1040.62 98.1059   1
  13   7  -1 7007.80 172.497   1
  13  -7  -1 7320.77 373.405   3
 -13   7   1 8031.80 301.770   1
  13  -7   0 1886.36 224.992   3
 -13   7   0 2151.88 179.745   1
 -13   7  -1 6699.83 268.487   1
  13  -7   1 5858.15 157.772   2
  13  -7   1 6547.44 366.265   3
  13  -7   2 46.7235 40.3031   2
  13  -7   2-4.49964 148.268   3
  13   7   2 278.026 161.820   2
 -13   7  -2 61.4673 102.744   1
  13   7   3 10231.7 448.682   2
  13  -7   3 10368.7 477.032   3
  13   7   4 2102.62 242.527   2
  13   7   5 7739.58 412.516   2
  13   7   6 5.42534 156.007   2
  13   7   7 3770.56 319.555   2
  13   7   8 861.875 212.596   2
  13   9 -18 2373.48 319.961   1
  13   9 -17-245.361 227.370   1
  13   9 -16 1273.11 245.731   1
  13   9 -15 81.2768 180.703   1
  13   9 -14 1175.98 229.344   1
  13   9 -13 2815.07 283.518   1
  13   9 -12 1077.62 209.623   1
  13   9 -11 488.753 174.661   1
  13   9 -10 4142.85 290.222   1
  13  -9  -9-114.653 116.652   2
  13   9  -9 235.752 142.005   1
  13  -9  -8 698.583 129.919   2
  13   9  -8 800.824 160.055   1
  13   9  -7 3137.99 171.293   3
  13  -9  -7 3042.49 200.899   2
  13   9  -7 3273.61 228.967   1
  13   9  -6 134.359 114.966   1
  13   9  -6 70.5364 80.3958   3
  13  -9  -6 138.953 90.4257   2
  13   9  -5 103.712 103.128   1
  13   9  -5-151.380 91.1917   3
  13  -9  -5 205.845 155.123   3
  13  -9  -5-4.40013 78.5839   2
  13   9  -4 8700.70 246.090   3
  13  -9  -4 9789.75 425.482   3
 -13   9   4 9739.98 386.591   1
  13  -9  -4 10097.0 279.108   2
  13   9  -4 9997.00 319.797   1
  13   9  -3 4.09032 91.0476   1
 -13   9   3 88.3922 137.088   1
  13   9  -3-12.8992 80.1180   3
  13  -9  -3-45.0703 149.203   3
  13  -9  -3 6.46205 63.4620   2
  13   9  -2 918.210 108.028   1
  13  -9  -2 648.172 180.631   3
 -13   9   2 941.977 167.251   1
  13  -9  -2 789.235 76.9121   2
 -13   9   1 825.209 159.668   1
  13   9  -1 746.590 95.0349   1
  13  -9  -1 524.925 173.361   3
  13  -9  -1 528.982 50.4074   2
  13   9   0 949.315 83.9957   1
 -13   9   0 1197.62 170.600   1
  13  -9   0 1200.22 204.750   3
 -13   9  -1 1247.22 163.463   1
  13  -9   1 1267.94 209.256   3
  13  -9   2 4176.14 322.097   3
  13   9   2 4293.54 325.147   2
  13  -9   3-62.3434 164.657   3
  13   9   3-78.5416 162.206   2
  13   9   4 5545.40 365.961   2
  13   9   5 668.600 198.821   2
  13   9   6 1157.33 221.836   2
  13   9   7 600.000 199.504   2
  13  11 -17 306.567 212.185   1
  13  11 -16 846.057 241.018   1
  13  11 -15 927.429 239.014   1
  13  11 -14 112.367 175.116   1
  13  11 -13 1706.93 252.541   1
  13  11 -12 770.231 200.821   1
  13  11 -11 2334.95 254.614   1
  13  11 -10 2922.74 262.674   1
  13 -11  -9 283.644 118.956   2
  13  11  -9 344.926 161.808   1
  13  11  -8 2307.44 223.267   1
  13 -11  -8 2069.00 180.959   2
  13 -11  -7 4890.56 244.546   2
  13  11  -7 3932.09 154.819   3
  13  11  -7 4858.78 286.429   1
  13  11  -6 10.2990 116.404   1
  13 -11  -6 5.30075 83.2142   2
  13  11  -6-126.290 66.1254   3
  13 -11  -6 186.544 167.715   3
  13  11  -5 120.510 110.293   1
  13 -11  -5 103.211 78.9055   2
  13  11  -5 46.3149 49.9257   3
  13 -11  -5 200.051 160.588   3
  13 -11  -4 1133.63 104.451   2
  13  11  -4 1046.71 144.655   1
  13 -11  -4 1076.96 203.186   3
  13  11  -3 120.540 96.5821   1
  13 -11  -3 206.125 56.7479   2
  13 -11  -3 325.007 167.881   3
  13  11  -2 1264.97 129.637   1
  13 -11  -2 1066.97 198.578   3
  13 -11  -1 6217.74 369.171   3
  13  11  -1 6339.39 235.714   1
  13  11   0 836.592 104.267   1
  13 -11   0 918.028 201.801   3
  13 -11   1 4406.70 334.156   3
  13 -11   2 19.5173 164.224   3
  13  11   2 140.456 170.760   2
  13 -11   3 65.3532 163.932   3
  13  11   3 100.496 172.879   2
  13  11   4 2482.25 282.424   2
  13  11   5 8483.16 473.031   2
  13  11   6 139.697 206.676   2
  13  13 -15 803.255 232.931   1
  13  13 -14 361.699 197.086   1
  13  13 -13 135.819 180.910   1
  13  13 -12 2543.31 288.584   1
  13  13 -11 105.635 167.746   1
  13  13 -10 6064.95 370.602   1
  13  13  -9 126.135 150.196   1
  13  13  -8 1083.46 189.671   1
  13  13  -7 143.465 134.895   1
  13 -13  -7 191.730 178.531   3
  13  13  -6 991.813 170.127   1
  13 -13  -6 1348.54 228.645   3
  13 -13  -5 828.446 195.574   3
  13  13  -5 655.813 144.967   1
  13 -13  -4 1154.53 211.358   3
  13  13  -4 1120.76 156.169   1
  13 -13  -3-192.924 171.043   3
  13  13  -3-64.8403 116.859   1
  13 -13  -2 3541.03 311.372   3
  13  13  -2 3653.18 220.899   1
  13 -13  -1 1058.57 209.641   3
  13  13  -1 968.959 129.738   1
  13 -13   0 571.276 188.393   3
  13 -13   1 412.622 187.832   3
  13  13   1 633.394 207.929   2
  13 -13   2 1310.10 239.059   3
  13  13   2 1287.38 237.692   2
  13 -13   3 1043.11 224.533   3
  13  13   3 1064.26 232.810   2
  13  13   4 2928.83 314.090   2
  13  13   5 54.1912 184.834   2
  13  15 -13 3687.85 345.030   1
  13  15 -12-144.174 188.732   1
  13  15 -11 1082.58 225.056   1
  13  15 -10 360.309 176.844   1
  13  15  -9 158.037 165.349   1
  13  15  -8 75.1895 154.492   1
  13 -15  -8 475.296 193.544   3
  13 -15  -7 7287.90 419.523   3
  13  15  -7 7291.34 381.739   1
  13 -15  -6 136.821 168.208   3
  13  15  -6-16.2759 146.093   1
  13 -15  -5 116.973 164.998   3
  13  15  -5 79.2566 131.270   1
  13 -15  -4 1168.80 217.905   3
  13  15  -4 1150.87 177.650   1
  13 -15  -3-161.615 176.729   3
  13  15  -3 124.106 124.895   1
  13 -15  -2 547.523 185.532   3
  13  15  -2 931.712 154.351   1
  13 -15  -1 1068.36 220.093   3
  13  15   0 38.1138 175.596   2
  13 -15   0-69.3940 166.377   3
  13  15   1 3876.73 352.068   2
  13 -15   1 3580.15 336.498   3
  13 -15   2-72.4968 194.818   3
  13  15   2-31.0387 177.657   2
  13  17 -10 2588.90 292.209   1
  13 -17  -9 375.908 202.027   3
  13  17  -9 92.8711 170.215   1
  13 -17  -8 2111.72 272.289   3
  13  17  -8 1859.34 253.907   1
  13 -17  -7 238.572 187.827   3
  13  17  -7-256.998 187.436   1
  13 -17  -6 889.659 211.728   3
  13  17  -6 949.977 201.675   1
  13 -17  -5-60.4693 184.723   3
  13  17  -5 227.060 156.343   1
  13 -17  -4 3042.37 309.322   3
  13  17  -4 3647.59 285.246   1
  13 -17  -3 267.028 181.423   3
  13  17  -3 543.883 159.876   1
  13 -17  -2 1634.33 250.483   3
  13 -17  -1 288.753 184.488   3
  14   0 -20 4436.44 415.160   1
  14   0 -19 105.095 228.909   1
  14   0 -18-6.64442 224.543   1
  14   0 -17-404.020 239.892   1
  14   0 -16 974.054 235.781   1
  14   0 -15-201.331 212.554   1
  14   0 -14 6244.00 380.526   1
  14   0 -13-365.899 209.941   1
  14   0 -12-54.9602 181.036   1
  14   0 -11-142.296 172.622   1
 -14   0  10 500.029 139.352   1
  14   0 -10 268.359 158.757   1
 -14   0   9-39.4076 104.464   1
  14   0  -9-33.4287 140.112   1
  14   0  -8 16722.3 456.238   1
 -14   0   8 15393.9 422.192   1
 -14   0   7 77.9377 98.1165   1
  14   0  -7 129.986 128.161   1
 -14   0   6 168.872 93.4239   1
  14   0  -6 274.649 123.385   1
 -14   0   5 43.8765 86.8101   1
  14   0  -5 77.5506 128.226   3
  14   0  -5 6.68925 97.9663   1
 -14   0   4 706.392 99.8857   1
  14   0  -4 686.692 152.089   3
 -14   0   3-54.0109 69.2144   1
  14   0  -3-90.8592 136.233   3
  14   0  -2 11980.1 418.846   3
 -14   0   2 12362.4 229.973   1
  14   0  -1-8.95023 123.439   3
 -14   0   1 13.0285 30.7779   1
  14   0   0 2831.02 235.408   3
  14   0   1-118.045 146.660   3
  14   0   2 315.160 123.945   2
  14   0   3 14.8389 110.874   2
  14   0   4 10314.7 382.496   2
  14   0   5 77.1449 119.804   2
  14   0   6 6628.05 327.104   2
  14   0   7 214.402 135.103   2
  14   0   8 2409.59 230.113   2
  14   2 -20 520.585 261.883   1
  14  -2 -20-295.813 245.329   1
  14   2 -19 1326.66 274.269   1
  14  -2 -19 1210.48 281.308   1
  14   2 -18 532.020 243.583   1
  14  -2 -18 170.288 234.198   1
  14   2 -17 1655.90 271.452   1
  14  -2 -17 1229.36 260.538   1
  14   2 -16 785.314 233.420   1
  14  -2 -16 275.405 206.720   1
  14   2 -15 3045.98 302.005   1
  14  -2 -15 2424.34 288.426   1
  14   2 -14 331.584 192.983   1
  14  -2 -14 323.129 206.454   1
  14   2 -13 575.259 190.693   1
  14  -2 -13 116.317 188.987   1
  14  -2 -12 300.322 183.724   1
  14   2 -12 774.269 193.756   1
  14  -2 -11 7822.06 379.536   1
  14   2 -11 7479.37 358.292   1
 -14  -2  10 4586.65 263.098   1
  14  -2 -10 5246.67 309.737   1
  14   2 -10 5442.72 305.258   1
 -14   2   9 2244.30 201.488   1
 -14  -2   9 2178.49 183.426   1
  14  -2  -9 2317.04 226.694   1
  14   2  -9 2696.27 223.844   1
  14   2  -8 1298.59 173.077   1
  14  -2  -8 1016.67 173.586   1
 -14   2   8 960.058 149.968   1
 -14  -2   8 750.560 123.897   1
  14   2  -7 988.255 154.710   1
  14  -2  -7 1049.19 160.439   1
 -14   2   7 987.068 143.391   1
 -14  -2   7 918.980 131.586   1
  14   2  -6 938.170 137.949   1
 -14   2   6 764.709 124.386   1
  14   2  -6 1111.24 165.676   3
 -14  -2   6 831.287 118.929   1
 -14   2   5 4939.32 226.419   1
  14   2  -5 6034.06 239.242   1
 -14  -2   5 5668.68 217.996   1
  14   2  -5 5298.14 271.427   3
  14  -2  -5 5621.70 305.118   3
 -14   2   4 177.829 89.4750   1
  14   2  -4 422.748 102.326   1
  14   2  -4 301.337 123.437   3
  14  -2  -4 347.359 146.683   3
 -14  -2   4 333.649 83.0674   1
 -14   2   3 11389.7 289.183   1
  14   2  -3 11001.8 381.698   3
  14  -2  -3 11461.6 418.004   3
 -14   2   2 551.269 88.4873   1
  14   2  -2 354.373 122.933   3
  14  -2  -2 454.717 147.366   3
 -14   2   1 213.109 65.2735   1
  14   2  -1 177.559 125.329   3
  14  -2  -1-44.6198 139.136   3
 -14   2   0 943.380 72.1133   1
  14   2   0 944.705 155.525   3
  14  -2   0 1030.12 174.338   3
  14   2   1 3572.28 254.306   3
  14  -2   1 3738.96 280.731   3
  14  -2   2 726.074 179.465   3
  14  -2   2 727.469 123.082   2
  14   2   2 725.201 155.255   2
  14  -2   3 16968.5 431.418   2
  14   2   3 16635.4 501.534   2
  14  -2   4 907.132 136.351   2
  14   2   4 1141.42 178.655   2
  14  -2   5 322.767 117.496   2
  14   2   5 269.546 141.134   2
  14  -2   6 1214.98 155.931   2
  14   2   6 941.657 174.646   2
  14   2   7 509.523 163.319   2
  14   2   8 177.571 151.925   2
  14   4 -19 580.341 246.731   1
  14  -4 -19 183.643 225.765   1
  14   4 -18 2095.13 296.638   1
  14  -4 -18 2153.91 357.676   1
  14   4 -17 350.293 215.654   1
  14  -4 -17 291.217 224.952   1
  14   4 -16 539.951 210.073   1
  14  -4 -16 478.032 235.361   1
  14   4 -15 240.614 183.808   1
  14  -4 -15 339.555 212.922   1
  14   4 -14 5464.85 354.978   1
  14  -4 -14 6040.59 387.554   1
  14   4 -13 843.596 200.103   1
  14  -4 -13 1031.59 226.267   1
  14  -4 -12 6579.21 377.200   1
  14   4 -12 6468.96 351.104   1
  14   4 -11 585.794 171.144   1
  14  -4 -11 1052.04 209.838   1
  14  -4 -10 702.130 187.106   1
  14   4 -10 710.351 167.653   1
 -14  -4  10 432.305 127.636   1
  14   4  -9 1088.61 167.643   1
  14  -4  -9 817.996 170.130   1
 -14  -4   9 776.035 139.389   1
 -14   4   9 703.228 149.202   1
 -14   4   8 4423.90 260.783   1
  14   4  -8 5190.77 268.624   1
 -14  -4   8 4882.61 248.151   1
 -14   4   7 5134.03 263.125   1
  14   4  -7 5932.01 268.487   1
 -14   4   6 540.971 129.509   1
  14   4  -6 881.197 137.868   1
  14   4  -6 788.563 148.600   3
  14  -4  -6 1075.13 192.740   3
 -14   4   5 1326.53 150.378   1
  14   4  -5 1322.88 156.971   3
  14  -4  -5 1576.15 209.449   3
  14   4  -5 1841.08 157.203   1
 -14   4   4 586.491 121.781   1
  14   4  -4 484.530 124.877   3
  14  -4  -4 730.498 173.790   3
  14   4  -4 497.463 104.976   1
 -14   4   3 91.0208 96.9476   1
  14   4  -3-218.216 124.978   3
  14  -4  -3-168.054 147.704   3
  14   4  -3 14.4977 77.1255   1
  14   4  -2 5060.97 263.771   3
  14   4  -2 4892.32 132.620   1
  14  -4  -2 4833.72 306.019   3
 -14   4   2 5376.60 221.641   1
 -14   4   1 362.764 100.137   1
  14   4  -1 18.6015 111.066   3
  14  -4  -1-30.0353 150.626   3
  14   4   0 13779.8 429.962   3
  14  -4   0 13798.4 499.932   3
 -14   4   0 13908.4 298.848   1
 -14   4  -1 237.493 80.0304   1
  14  -4   1-79.5609 153.356   3
  14  -4   2 1144.72 124.876   2
  14  -4   2 1012.83 194.481   3
  14   4   2 1145.39 189.498   2
 -14   4  -2 1258.94 98.0710   1
  14  -4   3 4376.58 207.682   2
  14   4   3 4279.24 295.259   2
  14  -4   4 3658.86 196.770   2
  14   4   4 3389.62 273.230   2
  14   4   5 82.8368 143.366   2
  14   4   6 5824.10 351.949   2
  14   4   7 15.6464 148.696   2
  14   4   8 1734.66 239.023   2
  14   6 -19 644.412 249.987   1
  14  -6 -19 691.679 262.142   1
  14   6 -18 199.459 205.117   1
  14  -6 -18 74.6450 213.230   1
  14   6 -17 2281.70 295.751   1
  14  -6 -17 2439.54 312.719   1
  14  -6 -16 197.583 215.002   1
  14   6 -16-16.8796 189.348   1
  14  -6 -15 2323.21 288.144   1
  14   6 -15 2161.76 268.124   1
  14  -6 -14 285.935 195.508   1
  14   6 -14 350.849 177.271   1
  14  -6 -13 186.003 185.348   1
  14   6 -13-50.0969 172.163   1
  14  -6 -12 150.290 176.443   1
  14   6 -12-126.531 177.881   1
  14   6 -11 12568.2 463.776   1
  14   6 -10 451.398 156.059   1
  14   6  -9 5436.89 296.930   1
  14  -6  -9 5806.59 302.201   2
  14   6  -8 298.365 124.386   1
 -14   6   7 348.650 139.842   1
  14   6  -7-93.6909 121.408   1
 -14   6   6 806.209 154.415   1
  14   6  -6 691.609 130.863   3
  14  -6  -6 1037.32 194.097   3
  14   6  -6 543.065 119.679   1
  14   6  -5 3364.67 192.887   1
  14   6  -5 2835.26 189.599   3
  14  -6  -5 3203.89 266.663   3
 -14   6   5 3740.45 234.913   1
  14   6  -4 1275.25 129.011   1
  14   6  -4 941.034 131.105   3
  14  -6  -4 1098.31 191.563   3
 -14   6   4 1467.63 175.114   1
 -14   6   3 4057.14 234.354   1
  14   6  -3 3956.84 217.181   3
  14  -6  -3 4024.40 289.098   3
  14   6  -3 5021.27 187.494   1
 -14   6   2 524.781 124.577   1
  14   6  -2 675.893 125.192   3
  14  -6  -2 681.914 170.044   3
  14   6  -2 697.101 79.0269   1
 -14   6   1 73.0736 105.844   1
  14   6  -1 222.574 108.039   3
  14  -6  -1 129.828 149.370   3
  14  -6   0 628.699 181.891   3
 -14   6   0 478.249 121.336   1
  14  -6   1 4401.61 173.703   2
 -14   6  -1 4666.76 218.247   1
  14  -6   1 4567.42 324.895   3
  14  -6   2 2260.21 127.632   2
  14  -6   2 2166.44 256.625   3
  14   6   2 2332.55 248.690   2
  14   6   3 2720.28 259.565   2
  14  -6   3 2826.61 282.059   3
  14   6   4-42.6122 152.909   2
  14   6   5 62.7012 149.977   2
  14   6   6 45.4065 152.522   2
  14   6   7 2761.88 287.925   2
  14   8 -18 1329.81 266.853   1
  14   8 -17 184.380 202.979   1
  14   8 -16-255.726 206.439   1
  14   8 -15-102.016 200.130   1
  14   8 -14 3805.55 322.890   1
  14   8 -13-215.738 193.881   1
  14   8 -12 5533.35 349.006   1
  14   8 -11-223.837 164.226   1
  14   8 -10 72.3325 138.729   1
  14   8  -9 94.5445 130.719   1
  14  -8  -9 207.171 118.268   2
  14   8  -8 1399.60 180.679   1
  14  -8  -8 1126.53 158.543   2
  14   8  -7 1260.41 164.294   1
  14   8  -7 1117.23 136.344   3
  14  -8  -7 1112.46 145.500   2
  14   8  -6 8873.89 322.992   1
  14   8  -6 7714.58 265.617   3
  14  -8  -6 8825.22 412.165   3
  14  -8  -6 8815.20 313.585   2
 -14   8   5 404.283 142.191   1
  14   8  -5 514.226 121.521   1
  14   8  -5 271.745 95.8841   3
  14  -8  -5 656.372 187.234   3
  14  -8  -5 669.922 116.433   2
 -14   8   4 12.0015 128.356   1
  14   8  -4 141.035 92.9055   3
  14   8  -4-81.2149 109.881   1
  14  -8  -4 216.810 161.787   3
  14  -8  -4 170.583 85.7315   2
  14   8  -3 54.7499 90.8141   3
  14   8  -3-124.867 100.546   1
  14  -8  -3 88.4875 151.565   3
 -14   8   3 67.3873 126.551   1
  14  -8  -3 191.817 81.5307   2
  14   8  -2 1945.07 126.825   1
  14  -8  -2 2074.04 236.594   3
 -14   8   2 2380.63 206.753   1
  14  -8  -2 2246.53 133.230   2
  14   8  -1 447.887 63.3669   1
 -14   8   1 543.422 147.680   1
  14  -8  -1 223.480 154.250   3
  14  -8   0 5683.25 147.353   2
  14  -8   0 6916.66 393.119   3
 -14   8   0 6816.93 299.522   1
  14  -8   1 2582.96 264.337   3
 -14   8  -1 2726.20 205.359   1
  14  -8   2-6.34214 161.661   3
  14   8   2 44.3161 152.837   2
  14   8   3 2112.57 252.694   2
  14  -8   3 2063.11 264.110   3
  14   8   4 5228.16 360.089   2
  14   8   5 1011.79 221.490   2
  14   8   6 4626.07 357.823   2
  14  10 -17 405.156 213.057   1
  14  10 -16-225.754 221.596   1
  14  10 -15 1435.15 248.994   1
  14  10 -14 302.566 183.656   1
  14  10 -13 733.854 208.111   1
  14  10 -12 3065.17 292.792   1
  14  10 -11 7193.79 389.404   1
  14  10 -10 211.340 153.909   1
  14  10  -9 5151.98 311.980   1
  14 -10  -9 4520.44 268.813   2
  14 -10  -8 385.179 116.306   2
  14  10  -8 406.629 150.510   1
  14  10  -8 617.389 115.919   3
  14 -10  -7 15.4314 94.6238   2
  14  10  -7 110.593 128.262   1
  14  10  -7 41.1653 82.9272   3
  14 -10  -7 392.026 180.759   3
  14 -10  -6 129.211 90.7753   2
  14  10  -6 225.638 121.917   1
  14  10  -6-3.49452 84.9613   3
  14  10  -5 1433.66 118.189   3
  14 -10  -5 1697.13 234.250   3
  14 -10  -5 1789.10 144.371   2
  14  10  -5 1648.62 172.766   1
  14  10  -4 4268.84 178.739   3
  14 -10  -4 4705.04 330.890   3
  14 -10  -4 4795.29 194.495   2
  14  10  -4 5003.98 241.805   1
  14 -10  -3 10977.4 476.425   3
  14  10  -3 11571.7 329.636   1
  14 -10  -2 1344.65 216.374   3
  14  10  -2 1522.24 134.773   1
  14  10  -1 1408.94 115.470   1
  14 -10  -1 1179.14 214.515   3
  14 -10   0 739.094 195.828   3
  14 -10   1 256.868 173.242   3
  14 -10   2-154.613 177.192   3
  14  10   2-42.6710 167.530   2
  14  10   3 8109.49 447.164   2
  14 -10   3 6970.80 431.897   3
  14  10   4 3048.78 309.822   2
  14  10   5 231.813 184.995   2
  14  12 -16 228.744 211.106   1
  14  12 -15 1244.48 257.914   1
  14  12 -14 3155.78 325.277   1
  14  12 -13 551.352 208.467   1
  14  12 -12 521.477 191.669   1
  14  12 -11 329.361 177.952   1
  14  12 -10 808.102 192.402   1
  14  12  -9 210.351 154.837   1
  14  12  -8 6546.86 349.310   1
  14  12  -7 114.598 134.527   1
  14 -12  -7 418.379 183.170   3
  14 -12  -6 1512.54 234.033   3
  14  12  -6 1619.77 187.098   1
  14  12  -5-128.113 125.520   1
  14 -12  -5 78.0429 165.064   3
  14  12  -4 934.017 144.325   1
  14 -12  -4 867.079 197.042   3
  14  12  -3 170.981 104.139   1
  14 -12  -3 200.724 169.779   3
  14 -12  -2 2953.74 297.260   3
  14  12  -2 2974.93 192.909   1
  14 -12  -1 517.492 187.301   3
  14 -12   0 4834.00 361.800   3
  14 -12   1-64.3696 170.378   3
  14  12   1 158.268 178.730   2
  14 -12   2 1056.87 234.857   3
  14  12   2 1315.68 242.095   2
  14 -12   3 29.9098 182.259   3
  14  12   3 191.416 183.636   2
  14  12   4 3021.76 324.514   2
  14  14 -14 872.629 236.722   1
  14  14 -13 62.8579 189.288   1
  14  14 -12 2075.67 274.406   1
  14  14 -11 4306.43 345.477   1
  14  14 -10-9.05594 164.553   1
  14  14  -9 3347.55 287.272   1
  14 -14  -8 4902.42 361.042   3
  14  14  -8 4584.30 318.472   1
  14  14  -7-32.1682 139.329   1
  14 -14  -7 248.100 181.833   3
  14  14  -6-81.5149 141.304   1
  14 -14  -6 80.1593 164.693   3
  14 -14  -5 2471.90 273.642   3
  14  14  -5 2763.81 233.896   1
  14  14  -4 326.124 130.452   1
  14 -14  -4 226.124 174.982   3
  14 -14  -3 6580.36 406.517   3
  14  14  -3 6808.81 310.468   1
  14 -14  -2-230.394 185.232   3
  14 -14  -1 921.091 218.190   3
  14 -14   0 2063.55 270.762   3
  14 -14   1 799.422 219.951   3
  14  14   1 997.760 237.529   2
  14 -14   2 751.160 216.514   3
  14  14   2 949.034 232.870   2
  14  16 -10-154.227 184.471   1
  14  16  -9 554.885 188.601   1
  14 -16  -9 1297.08 247.493   3
  14 -16  -8 2201.42 277.106   3
  14  16  -8 1963.05 250.429   1
  14  16  -7 23.7809 148.900   1
  14 -16  -7 254.560 189.097   3
  14 -16  -6 1011.54 218.047   3
  14  16  -6 1055.29 192.079   1
  14 -16  -5 588.667 194.794   3
  14  16  -5 506.211 162.346   1
  14 -16  -4 82.8189 173.504   3
  14  16  -4 101.606 132.156   1
  14 -16  -3 15.0175 182.288   3
  14 -16  -2 1699.10 261.477   3
  14 -16  -1 39.4752 176.948   3
  15   1 -19 442.996 244.670   1
  15  -1 -19 638.176 256.738   1
  15   1 -18-151.497 215.914   1
  15  -1 -18 213.540 213.743   1
  15  -1 -17 527.399 225.183   1
  15   1 -17 558.086 231.324   1
  15   1 -16 3215.21 329.239   1
  15  -1 -16 2894.12 313.733   1
  15   1 -15 4224.08 342.134   1
  15  -1 -15 3866.78 338.107   1
  15  -1 -14 1885.56 261.519   1
  15   1 -14 1833.96 258.895   1
  15  -1 -13 1556.96 234.693   1
  15   1 -13 1276.21 224.017   1
  15   1 -12 389.041 171.107   1
  15  -1 -12 1041.63 218.830   1
  15   1 -11 1682.78 214.855   1
  15  -1 -11 1971.58 238.411   1
 -15  -1  10 978.859 151.939   1
  15  -1 -10 1208.09 202.211   1
  15   1 -10 949.059 182.818   1
 -15  -1   9 870.969 145.999   1
 -15   1   9 881.079 152.192   1
  15  -1  -9 825.292 176.741   1
  15   1  -9 855.011 171.871   1
 -15  -1   8 45.7548 101.091   1
 -15   1   8 241.183 118.127   1
  15   1  -8 96.7910 135.060   1
  15  -1  -8 168.741 144.507   1
 -15  -1   7-16.5917 93.4808   1
  15   1  -7 154.088 125.587   1
 -15   1   7 157.113 109.515   1
  15  -1  -7-5.14986 119.513   1
 -15   1   6 784.652 126.295   1
  15   1  -6 937.645 148.928   1
  15   1  -6 896.947 162.033   3
  15  -1  -6 870.870 174.381   3
 -15  -1   6 624.068 112.564   1
  15   1  -5 4194.08 204.070   1
  15   1  -5 3872.77 254.089   3
  15  -1  -5 3659.28 262.827   3
 -15  -1   5 3709.70 182.696   1
 -15   1   5 3862.25 200.634   1
  15   1  -4 4157.70 261.183   3
  15  -1  -4 4303.81 277.272   3
 -15  -1   4 4576.88 180.834   1
 -15   1   4 4631.02 200.466   1
 -15  -1   3 1294.57 97.6147   1
  15   1  -3 1159.14 171.188   3
  15  -1  -3 1082.46 175.743   3
 -15   1   3 1391.06 116.200   1
 -15   1   2 391.354 72.2760   1
  15   1  -2 79.6173 122.147   3
  15  -1  -2 93.6889 138.849   3
  15   1  -1 3085.94 247.787   3
  15  -1  -1 3057.50 256.481   3
 -15   1   1 2376.64 92.1062   1
  15   1   0 846.347 170.168   3
  15  -1   0 1134.39 191.557   3
  15   1   1 1958.52 221.257   3
  15  -1   1 2008.57 228.741   3
  15  -1   2 7056.37 311.238   2
  15   1   2 6798.11 330.373   2
  15  -1   3 806.993 146.157   2
  15   1   3 974.361 170.262   2
  15  -1   4 283.903 121.835   2
  15   1   4 416.940 149.683   2
  15  -1   5 4200.90 261.283   2
  15   1   5 4059.89 280.823   2
  15  -1   6 195.061 124.104   2
  15   1   6 124.489 133.399   2
  15   1   7 2288.13 237.598   2
  15  -3 -19 2768.28 355.170   1
  15   3 -19 3375.18 358.548   1
  15  -3 -18 450.977 248.143   1
  15   3 -18 688.341 245.860   1
  15  -3 -17 233.491 228.710   1
  15   3 -17 548.246 220.941   1
  15  -3 -16 641.343 235.671   1
  15   3 -16 749.225 227.927   1
  15  -3 -15 571.346 225.324   1
  15   3 -15 651.873 216.116   1
  15  -3 -14 468.964 214.613   1
  15   3 -14 486.693 201.596   1
  15   3 -13 3516.79 297.586   1
  15  -3 -13 3244.15 304.893   1
  15   3 -12 2215.23 242.777   1
  15  -3 -12 2327.91 267.793   1
  15  -3 -11 2753.83 267.633   1
  15   3 -11 3092.83 262.395   1
  15  -3 -10 1140.82 201.792   1
  15   3 -10 1325.86 192.451   1
 -15  -3  10 863.343 152.737   1
  15  -3  -9 232.023 151.279   1
 -15   3   9-45.0476 127.216   1
 -15  -3   9 146.752 113.311   1
 -15   3   8 3006.84 222.079   1
 -15  -3   8 3472.20 217.082   1
  15   3  -8 4426.63 262.673   1
 -15   3   7-95.1024 127.494   1
 -15  -3   7 73.8160 93.3820   1
  15   3  -7-119.336 127.594   1
  15   3  -6-111.621 118.334   1
 -15   3   6-111.152 119.338   1
 -15  -3   6 74.1225 87.7868   1
  15   3  -6 85.6282 125.594   3
  15  -3  -6 260.895 155.161   3
  15   3  -5 42.0256 115.939   3
 -15   3   5-77.3382 109.820   1
  15  -3  -5 299.340 156.810   3
  15   3  -5-16.1117 101.149   1
 -15   3   4 3529.25 192.459   1
  15   3  -4 3695.85 240.496   3
  15  -3  -4 3766.16 275.539   3
  15   3  -4 4213.92 182.780   1
  15   3  -3 941.631 156.385   3
  15  -3  -3 1205.13 191.672   3
 -15   3   3 1214.61 125.268   1
  15   3  -2 1293.45 173.307   3
  15  -3  -2 1192.26 192.786   3
 -15   3   2 1171.70 113.071   1
 -15   3   1 1900.29 119.283   1
  15   3  -1 1861.43 199.827   3
  15  -3  -1 2050.83 228.052   3
  15   3   0 60.0433 125.065   3
  15  -3   0 117.987 141.409   3
 -15   3   0 71.2563 57.6575   1
  15  -3   1 103.522 146.691   3
  15  -3   2 5083.53 243.718   2
  15  -3   2 5169.97 346.866   3
  15   3   2 5201.30 314.612   2
  15  -3   3 159.644 101.957   2
  15   3   3 241.967 153.085   2
  15  -3   4 69.9282 97.3873   2
  15   3   4 65.5167 139.317   2
  15   3   5 3230.17 271.363   2
  15   3   6 304.951 159.105   2
  15   3   7 4831.61 335.499   2
  15  -5 -19 1221.01 293.105   1
  15   5 -19 1267.31 275.628   1
  15  -5 -18 482.494 249.756   1
  15   5 -18 940.131 255.455   1
  15  -5 -17 59.0449 219.855   1
  15   5 -17 83.6215 200.197   1
  15  -5 -16 2935.35 322.632   1
  15   5 -16 2842.55 305.267   1
  15   5 -15 1350.36 241.902   1
  15  -5 -15 1474.90 261.178   1
  15   5 -14 654.845 200.434   1
  15  -5 -14 577.988 209.918   1
  15   5 -13 2291.82 258.253   1
  15  -5 -13 2408.85 278.119   1
  15   5 -12 5319.16 327.580   1
  15  -5 -12 5272.23 344.046   1
  15   5 -11 667.640 180.432   1
  15  -5 -11 556.599 187.493   1
  15   5 -10 3758.23 264.414   1
  15   5  -9 3029.53 233.394   1
  15   5  -8 1020.63 158.340   1
 -15   5   7 6293.88 300.383   1
  15   5  -7 7175.90 292.510   1
  15   5  -7 6367.34 292.294   3
 -15   5   6 866.103 150.679   1
  15   5  -6 985.649 144.509   1
  15   5  -6 698.810 139.305   3
  15  -5  -6 904.353 192.687   3
 -15   5   5 2763.55 201.013   1
  15   5  -5 2368.32 190.935   3
  15  -5  -5 2680.58 259.215   3
  15   5  -5 3289.89 190.799   1
  15   5  -4 2002.98 144.718   1
  15   5  -4 1600.05 167.203   3
 -15   5   4 2092.98 180.113   1
  15  -5  -4 1813.87 221.987   3
 -15   5   3 254.126 114.958   1
  15   5  -3 128.588 108.715   3
  15  -5  -3 20.0499 158.335   3
  15   5  -3 235.146 78.1302   1
  15   5  -2 3188.54 221.867   3
  15  -5  -2 3219.76 274.569   3
 -15   5   2 3793.60 203.721   1
  15   5  -1 7445.37 326.098   3
  15  -5  -1 7235.85 387.925   3
 -15   5   1 7813.88 264.204   1
  15  -5   0 2953.25 279.988   3
 -15   5   0 3196.64 177.987   1
  15  -5   1 123.754 82.9466   2
  15  -5   1-160.389 163.442   3
  15  -5   2 4486.65 201.349   2
  15  -5   2 4459.38 339.868   3
  15   5   2 4408.95 314.952   2
  15   5   3 980.127 193.986   2
  15   5   4 1055.39 205.016   2
  15   5   5 2076.05 247.430   2
  15   5   6-31.3887 155.952   2
  15   7 -18 363.846 220.949   1
  15  -7 -18 411.951 246.129   1
  15  -7 -17-38.1064 227.204   1
  15   7 -17-76.4298 199.048   1
  15  -7 -16 209.886 218.928   1
  15   7 -16 180.661 195.014   1
  15   7 -15 1310.61 249.284   1
  15   7 -14 109.670 175.044   1
  15   7 -13 2614.26 272.567   1
  15   7 -12 2283.55 253.099   1
  15   7 -11-126.196 167.592   1
  15   7 -10 2465.68 236.278   1
  15   7  -9-81.7349 145.065   1
  15  -7  -9 186.500 123.567   2
  15   7  -8-138.601 140.152   1
  15  -7  -8 106.245 110.402   2
  15   7  -7 6260.21 290.463   1
  15   7  -7 5736.40 264.626   3
  15  -7  -7 5984.08 357.803   3
 -15   7   6 664.715 162.129   1
  15   7  -6 388.804 115.771   3
  15  -7  -6 731.276 191.723   3
  15   7  -6 348.279 119.560   1
 -15   7   5 985.225 167.807   1
  15   7  -5 375.728 109.825   3
  15  -7  -5 905.984 196.990   3
  15   7  -5 547.849 116.733   1
 -15   7   4 6536.76 306.909   1
  15   7  -4 5798.49 261.790   3
  15   7  -4 6716.19 240.153   1
  15  -7  -4 6194.80 359.825   3
  15   7  -3 312.881 87.2384   1
  15   7  -3 18.2763 101.442   3
  15  -7  -3 0.80282 163.049   3
 -15   7   3-46.7730 125.455   1
  15   7  -2 2408.36 110.268   1
 -15   7   2 2390.58 197.324   1
  15   7  -2 2535.78 192.393   3
  15  -7  -2 2400.58 263.924   3
 -15   7   1 4303.49 240.356   1
  15  -7  -1 4237.53 319.702   3
  15  -7   0 247.136 68.6555   2
  15  -7   0 148.043 161.984   3
  15  -7   1 69.5763 160.412   3
  15  -7   2 272.731 175.252   3
  15   7   2 50.7596 155.131   2
  15   7   3 1805.46 247.344   2
  15   7   4 2157.05 261.783   2
  15   7   5 1465.69 236.804   2
  15   7   6 25.9279 168.081   2
  15   9 -17-119.231 214.596   1
  15   9 -16 1453.73 263.809   1
  15   9 -15-33.6441 203.086   1
  15   9 -14-183.861 205.207   1
  15   9 -13 1022.68 215.788   1
  15   9 -12 4361.06 326.296   1
  15   9 -11 285.284 159.895   1
  15   9 -10 1363.60 210.205   1
  15   9  -9-64.8048 135.796   1
  15  -9  -9 31.8214 113.355   2
  15   9  -8 264.449 131.163   1
  15   9  -8 438.022 118.190   3
  15  -9  -8 169.711 109.648   2
  15   9  -7 3330.29 235.030   1
  15   9  -7 3149.73 183.462   3
  15  -9  -7 3510.25 303.203   3
  15  -9  -7 3625.49 225.021   2
  15   9  -6 111.246 112.074   1
  15   9  -6 79.0733 93.8430   3
  15  -9  -6 243.714 165.052   3
  15  -9  -6 260.634 101.149   2
  15   9  -5-31.7371 93.3752   3
  15   9  -5-191.468 124.985   1
  15  -9  -5 71.5676 165.036   3
  15  -9  -5 156.634 89.2385   2
  15   9  -4 14217.7 372.534   1
  15   9  -4 12539.6 338.073   3
  15  -9  -4 13669.7 531.045   3
  15  -9  -3 635.154 183.827   3
  15   9  -3 582.138 102.587   1
  15   9  -2 1804.02 120.268   1
 -15   9   2 1929.51 208.699   1
  15  -9  -2 1379.20 228.293   3
  15  -9  -1 1543.43 228.609   3
  15  -9   0 142.107 170.283   3
  15  -9   1 481.875 184.893   3
  15   9   2 3277.95 308.510   2
  15  -9   2 3319.19 323.576   3
  15   9   3-11.3734 166.247   2
  15   9   4 712.448 205.145   2
  15   9   5 1719.97 262.348   2
  15  11 -16-134.342 226.279   1
  15  11 -15 2770.94 319.811   1
  15  11 -14 306.824 196.449   1
  15  11 -13 1977.50 269.110   1
  15  11 -12 570.197 198.292   1
  15  11 -11 1838.04 241.155   1
  15  11 -10 1303.70 214.991   1
  15  11  -9 4249.57 296.536   1
  15  11  -9 3829.47 195.336   3
  15  11  -8 364.628 151.470   1
  15  11  -8 93.0219 85.6286   3
  15 -11  -8 496.134 198.755   3
  15  11  -7 1155.53 174.250   1
  15 -11  -7 1289.14 231.009   3
  15 -11  -6 2423.61 270.607   3
  15  11  -6 2147.70 204.201   1
  15  11  -5 1995.34 183.873   1
  15 -11  -5 1963.39 255.450   3
  15  11  -4 2115.68 179.141   1
  15 -11  -4 1739.80 241.780   3
  15  11  -3 862.892 134.030   1
  15 -11  -3 595.316 193.254   3
  15 -11  -2 877.878 213.609   3
  15 -11  -1 6838.73 416.222   3
  15 -11   0 209.924 170.026   3
  15 -11   1 2417.16 288.424   3
  15  11   1 2510.24 293.772   2
  15  11   2 3805.72 342.622   2
  15 -11   2 3229.13 325.313   3
  15  11   3 1712.09 270.802   2
  15  13 -14 185.985 203.995   1
  15  13 -13 146.898 189.144   1
  15  13 -12 1200.34 237.190   1
  15  13 -11 423.195 188.926   1
  15  13 -10 2856.17 283.122   1
  15  13  -9-34.5363 151.217   1
  15 -13  -9 315.991 197.163   3
  15  13  -8 214.451 153.088   1
  15 -13  -8 433.973 201.001   3
  15  13  -7 310.271 150.993   1
  15 -13  -7 442.099 191.005   3
  15  13  -6 501.903 157.016   1
  15 -13  -6 446.354 190.041   3
  15  13  -5 77.1609 118.980   1
  15 -13  -5-14.7159 174.907   3
  15 -13  -4 6601.64 418.100   3
  15  13  -4 6872.06 313.810   1
  15 -13  -3-119.556 190.653   3
  15 -13  -2 309.542 181.423   3
  15 -13  -1 106.900 167.807   3
  15 -13   0 250.015 189.609   3
  15 -13   1 282.165 190.553   3
  15  13   1 343.634 192.434   2
  15  15 -11 1106.44 230.991   1
  15  15 -10 232.915 178.803   1
  15 -15 -10 884.228 257.225   3
  15 -15  -9 2244.55 298.543   3
  15  15  -9 2124.99 262.699   1
  15  15  -8 15.8344 157.649   1
  15 -15  -8 188.171 190.953   3
  15 -15  -7 2624.02 302.492   3
  15  15  -7 2898.69 267.746   1
  15  15  -6 210.674 148.274   1
  15 -15  -6-53.3165 188.329   3
  15  15  -5 506.275 154.006   1
  15 -15  -5 263.996 179.028   3
  15 -15  -4 481.578 196.718   3
  15 -15  -3-24.2712 195.093   3
  15 -15  -2 250.880 188.600   3
  16   0 -19-204.139 241.213   1
  16   0 -18 1182.90 270.150   1
  16   0 -17-175.014 223.939   1
  16   0 -16 1952.74 288.852   1
  16   0 -15-199.753 207.147   1
  16   0 -14 5770.08 377.916   1
  16   0 -13-223.883 181.429   1
  16   0 -12 2394.95 259.786   1
  16   0 -11 28.0304 164.344   1
  16   0 -10 494.181 176.448   1
 -16   0   9 30.7285 109.741   1
  16   0  -9 147.550 152.054   1
 -16   0   8 211.503 110.146   1
  16   0  -8 388.930 149.982   1
 -16   0   7 29.5632 101.365   1
  16   0  -7 105.827 123.898   1
  16   0  -7 262.507 158.181   3
  16   0  -6 5722.58 323.035   3
 -16   0   6 5682.93 242.926   1
 -16   0   5-35.0186 90.5462   1
  16   0  -5-25.6110 132.780   3
  16   0  -4 239.072 140.222   3
 -16   0   4 185.609 80.7893   1
  16   0  -3-227.320 160.623   3
 -16   0   3 48.8506 61.2602   1
  16   0  -2 3060.96 254.869   3
  16   0  -1-35.4366 139.507   3
  16   0   0 563.416 165.811   3
  16   0   1-69.1168 146.248   3
  16   0   2 26.4931 118.115   2
  16   0   3-29.1487 125.919   2
  16   0   4 4935.28 294.940   2
  16   0   5-127.549 129.364   2
  16  -2 -19 434.975 257.048   1
  16   2 -19 618.700 246.790   1
  16  -2 -18 104.154 222.763   1
  16   2 -18 808.058 258.658   1
  16   2 -17 2855.32 333.838   1
  16  -2 -17 2428.95 318.107   1
  16  -2 -16 433.532 228.644   1
  16   2 -16 444.655 221.162   1
  16  -2 -15 1343.60 259.140   1
  16   2 -15 1572.56 265.292   1
  16  -2 -14 41.4070 200.590   1
  16   2 -14 573.821 212.116   1
  16  -2 -13 648.721 208.216   1
  16   2 -13 859.732 213.509   1
  16  -2 -12 1848.89 248.403   1
  16   2 -12 1568.21 232.716   1
  16   2 -11 2970.44 261.506   1
  16  -2 -11 3314.94 283.561   1
  16   2 -10 595.522 163.951   1
  16  -2 -10 932.977 195.536   1
 -16   2   9 2953.26 227.384   1
  16   2  -9 2971.56 237.052   1
  16  -2  -9 3176.28 253.607   1
 -16  -2   9 2705.92 208.914   1
 -16   2   8 118.368 120.236   1
  16   2  -8-0.03064 128.933   1
  16  -2  -8-33.9165 135.842   1
 -16  -2   8-61.9702 109.627   1
  16   2  -7 763.927 152.073   1
 -16   2   7 587.591 131.565   1
  16   2  -7 808.010 169.324   3
  16  -2  -7 901.523 192.688   3
 -16  -2   7 464.292 115.317   1
 -16   2   6 378.378 117.287   1
  16   2  -6 504.557 131.115   1
  16   2  -6 467.017 150.978   3
  16  -2  -6 531.125 169.911   3
 -16  -2   6 321.527 101.599   1
 -16   2   5 4804.63 229.511   1
  16   2  -5 5452.18 227.819   1
 -16  -2   5 4992.78 206.609   1
  16   2  -5 4629.36 280.004   3
  16  -2  -5 4664.73 303.558   3
 -16   2   4 194.666 98.2873   1
  16   2  -4-156.257 148.493   3
  16  -2  -4-6.56718 148.323   3
  16   2  -3 1729.32 196.352   3
  16  -2  -3 1779.67 219.283   3
 -16   2   3 2041.95 137.256   1
 -16   2   2 233.880 72.8455   1
  16   2  -2 184.274 139.126   3
  16  -2  -2-37.0800 156.527   3
  16   2  -1 39.7106 130.646   3
  16  -2  -1-11.7851 153.258   3
  16   2   0 1724.82 207.652   3
  16  -2   0 1703.95 223.482   3
  16  -2   1 1907.61 242.861   3
  16  -2   1 2046.68 184.219   2
  16  -2   2 247.325 116.389   2
  16   2   2 150.205 140.053   2
  16  -2   3 2881.19 212.816   2
  16   2   3 2984.23 257.566   2
  16   2   4 271.546 150.593   2
  16   2   5 741.088 176.510   2
  16   4 -18 1509.96 284.847   1
  16  -4 -18 1036.40 275.082   1
  16   4 -17 725.949 248.100   1
  16  -4 -17 371.990 232.851   1
  16   4 -16 1550.63 269.281   1
  16  -4 -16 1364.97 268.553   1
  16  -4 -15 514.990 230.443   1
  16   4 -15 424.916 208.828   1
  16  -4 -14 4265.29 346.494   1
  16   4 -14 4182.54 329.253   1
  16   4 -13 313.786 180.212   1
  16  -4 -13 244.410 199.498   1
  16  -4 -12 2469.81 270.137   1
  16   4 -12 2675.45 260.619   1
  16   4 -11 815.966 184.478   1
  16  -4 -11 729.793 195.623   1
  16   4 -10 419.318 161.802   1
  16   4  -9 711.173 166.183   1
 -16  -4   9 368.455 121.371   1
 -16   4   8 2721.01 219.426   1
  16   4  -8 3807.79 249.976   1
  16   4  -7 283.900 139.966   3
 -16   4   7-1.37915 121.997   1
  16   4  -7 10.7244 120.006   1
  16   4  -6 5107.35 242.769   1
 -16   4   6 4286.45 242.964   1
  16   4  -6 4862.58 271.712   3
  16  -4  -6 4948.93 329.011   3
  16   4  -5-8.26123 126.666   3
  16  -4  -5 195.258 159.067   3
 -16   4   5 58.4013 108.567   1
  16   4  -5 246.592 109.169   1
  16   4  -4 949.189 110.442   1
  16   4  -4 515.450 136.464   3
  16  -4  -4 656.185 171.745   3
 -16   4   4 517.295 117.454   1
  16   4  -3 121.876 119.719   3
  16  -4  -3 7.46459 160.090   3
 -16   4   3-41.1051 102.245   1
 -16   4   2 4006.47 193.440   1
  16   4  -2 3718.97 257.264   3
  16  -4  -2 3819.23 305.458   3
  16   4  -1 3647.84 257.470   3
  16  -4  -1 3591.61 300.218   3
  16  -4   0 1672.33 234.596   3
  16  -4   1 616.287 117.441   2
  16  -4   1 373.602 182.961   3
  16  -4   2 137.462 168.442   3
  16   4   2 25.6712 144.721   2
  16   4   3-93.9597 155.369   2
  16   4   4 1011.75 203.081   2
  16   4   5 510.145 177.970   2
  16   6 -18 58.1208 210.055   1
  16  -6 -18 176.889 222.997   1
  16   6 -17 1748.18 278.111   1
  16  -6 -17 1951.00 306.553   1
  16   6 -16 44.4639 189.022   1
  16  -6 -16 120.270 214.701   1
  16   6 -15 1525.80 244.594   1
  16  -6 -15 1337.71 260.011   1
  16  -6 -14 117.756 195.572   1
  16   6 -14-80.9495 175.003   1
  16   6 -13 1472.66 233.795   1
  16   6 -12 26.0845 164.667   1
  16   6 -11 738.867 178.603   1
  16   6 -10 2197.56 224.623   1
  16   6  -9 4161.97 266.158   1
  16   6  -8 297.925 139.165   1
  16   6  -8 270.892 130.669   3
  16   6  -7 1217.03 164.027   1
  16   6  -7 916.527 154.975   3
  16  -6  -7 1154.02 214.526   3
 -16   6   6 315.955 133.251   1
  16   6  -6 443.146 128.347   1
  16   6  -6-71.3435 123.490   3
  16  -6  -6 281.510 172.749   3
  16   6  -5 7545.24 318.294   3
 -16   6   5 8805.81 346.523   1
  16  -6  -5 8100.20 409.730   3
  16   6  -5 9384.75 296.256   1
  16   6  -4 237.402 93.7219   1
 -16   6   4 460.423 138.128   1
  16   6  -4 218.849 114.984   3
  16  -6  -4 144.607 155.608   3
  16   6  -3 10157.0 369.476   3
  16  -6  -3 10830.4 472.577   3
  16   6  -3 10539.1 231.955   1
 -16   6   3 11081.2 353.997   1
  16   6  -2 1092.78 158.750   3
  16  -6  -2 920.300 200.723   3
 -16   6   2 1206.43 152.671   1
  16  -6  -1 347.634 174.860   3
  16  -6   0-91.6238 169.237   3
  16  -6   1 3364.10 315.141   3
  16  -6   2 61.5293 169.106   3
  16   6   2 173.243 161.831   2
  16   6   3 4085.89 323.545   2
  16   6   4 87.6338 165.788   2
  16   8 -17 384.713 218.316   1
  16   8 -16-146.484 210.443   1
  16   8 -15 106.800 186.270   1
  16   8 -14 3527.97 322.627   1
  16   8 -13 97.5941 173.822   1
  16   8 -12 2999.86 285.800   1
  16   8 -11 471.096 169.925   1
  16   8 -10 69.8936 144.412   1
  16   8  -9-138.827 146.738   1
  16   8  -8 1977.23 201.713   1
  16   8  -8 1794.56 174.772   3
  16  -8  -8 2103.08 257.994   3
  16  -8  -8 2175.18 206.722   2
  16   8  -7 1768.76 185.417   1
  16   8  -7 1462.95 157.120   3
  16  -8  -7 1880.84 250.241   3
  16  -8  -7 1702.78 177.485   2
  16   8  -6 6109.17 273.238   1
  16   8  -6 4826.40 240.495   3
  16  -8  -6 5795.01 371.607   3
  16  -8  -6 5642.57 270.685   2
  16   8  -5 1328.86 149.426   1
  16   8  -5 1068.05 143.044   3
  16  -8  -5 1341.29 220.974   3
  16   8  -4 190.014 102.155   1
  16   8  -4 3.67018 104.994   3
  16  -8  -4-171.601 177.316   3
  16   8  -3-1.44884 106.780   3
  16  -8  -3-9.85270 174.975   3
 -16   8   3-13.0677 135.217   1
  16  -8  -2 4737.41 356.540   3
  16  -8  -1 816.819 207.449   3
  16  -8   0 1633.46 240.835   3
  16  -8   1 45.3108 174.989   3
  16  -8   2 494.789 202.039   3
  16   8   2 500.079 189.507   2
  16   8   3 215.990 173.831   2
  16   8   4 1576.18 251.448   2
  16  10 -16 174.920 200.441   1
  16  10 -15 456.173 204.845   1
  16  10 -14-163.605 205.205   1
  16  10 -13 1705.90 254.259   1
  16  10 -12 12.6005 190.934   1
  16  10 -11 1504.08 221.214   1
  16  10 -10 320.945 151.468   1
  16  10  -9 1623.23 206.133   1
  16  10  -9 1922.93 168.384   3
  16  10  -8-102.428 148.926   1
  16  10  -8 85.9700 94.4266   3
  16  10  -7-176.551 141.103   1
  16  10  -7-66.9244 101.620   3
  16  10  -6 297.633 99.4420   3
  16  10  -6 120.121 121.706   1
  16 -10  -6 253.185 178.882   3
  16  10  -5 5252.32 261.020   1
  16  10  -5 4481.78 210.758   3
  16 -10  -5 5117.05 368.714   3
  16 -10  -4 353.537 176.136   3
  16 -10  -3 2489.83 284.467   3
  16 -10  -2 1645.30 249.330   3
  16 -10  -1-85.5472 171.156   3
  16 -10   0 1202.13 236.317   3
  16 -10   1 4305.63 365.712   3
  16  10   1 3913.75 343.751   2
  16 -10   2 170.435 185.790   3
  16  10   2 363.244 196.609   2
  16  12 -14 1446.62 261.715   1
  16  12 -13 308.874 200.242   1
  16  12 -12 2841.79 304.647   1
  16  12 -11 292.965 178.250   1
  16  12 -10 242.956 174.073   1
  16  12  -9 624.516 174.653   1
  16 -12  -9 723.830 219.162   3
  16  12  -8 2095.83 227.363   1
  16 -12  -8 1948.72 266.274   3
  16  12  -7 645.775 160.131   1
  16 -12  -7 441.194 200.845   3
  16  12  -6 2110.71 206.756   1
  16 -12  -6 1652.12 254.546   3
  16  12  -5 582.938 141.132   1
  16 -12  -5 426.514 195.491   3
  16 -12  -4 3.44722 179.859   3
  16 -12  -3-110.889 186.340   3
  16 -12  -2 2384.53 290.658   3
  16 -12  -1 90.0152 186.596   3
  16 -12   0 1032.06 235.114   3
  16  14 -11 1846.74 263.294   1
  16  14 -10 82.0851 166.286   1
  16 -14 -10 709.393 226.381   3
  16  14  -9 1587.19 227.203   1
  16 -14  -9 1512.92 264.214   3
  16  14  -8 1094.55 199.103   1
  16 -14  -8 1179.08 250.693   3
  16  14  -7 386.342 155.801   1
  16 -14  -7 240.970 194.529   3
  16 -14  -6 102.975 178.924   3
  16 -14  -5 3500.27 337.715   3
  16 -14  -4-363.331 210.151   3
  16 -14  -3 1180.12 241.634   3
  17  -1 -18 625.138 259.351   1
  17   1 -18 549.737 236.375   1
  17  -1 -17 21.2577 224.160   1
  17   1 -17-115.726 220.143   1
  17  -1 -16 2048.68 296.614   1
  17   1 -16 1973.90 289.980   1
  17  -1 -15 2252.75 292.363   1
  17   1 -15 2171.00 285.325   1
  17  -1 -14 647.742 222.613   1
  17   1 -14 513.114 206.781   1
  17  -1 -13 503.883 206.439   1
  17   1 -13 250.213 181.418   1
  17  -1 -12 867.015 215.560   1
  17   1 -12 661.378 196.353   1
  17  -1 -11 527.580 189.787   1
  17   1 -11 393.480 179.763   1
  17  -1 -10 4290.77 296.446   1
  17   1 -10 4201.99 287.390   1
 -17   1   9 158.992 122.917   1
  17   1  -9 281.485 157.640   1
  17  -1  -9 121.944 146.816   1
 -17  -1   9 66.5718 109.372   1
  17   1  -8 1701.36 212.155   3
  17  -1  -8 1896.64 226.257   3
 -17   1   8 1378.71 166.336   1
  17   1  -8 1531.67 191.310   1
  17  -1  -8 1502.52 186.125   1
 -17  -1   8 1329.60 154.401   1
  17   1  -7 2723.54 207.174   1
  17   1  -7 2449.80 240.346   3
  17  -1  -7 2657.35 257.304   3
 -17  -1   7 2315.49 180.459   1
 -17   1   7 2519.20 193.223   1
 -17   1   6 754.373 130.026   1
  17   1  -6 466.630 161.750   3
  17  -1  -6 517.601 167.991   3
 -17  -1   6 640.095 118.812   1
 -17  -1   5 2006.30 145.511   1
  17   1  -5 1779.47 207.597   3
  17  -1  -5 1727.17 220.645   3
 -17   1   5 1996.11 155.100   1
  17   1  -4 3631.80 276.033   3
  17  -1  -4 3602.53 283.206   3
  17   1  -3 806.022 169.137   3
  17  -1  -3 694.139 180.296   3
  17   1  -2 1089.98 189.610   3
  17  -1  -2 1016.14 195.489   3
  17   1  -1 60.5802 140.975   3
  17  -1  -1 52.0940 151.716   3
  17   1   0-110.346 154.255   3
  17  -1   0-164.369 164.016   3
  17  -1   1 615.343 184.866   3
  17  -1   1 711.797 151.003   2
  17   1   1 820.971 172.345   2
  17  -1   2 1409.60 180.328   2
  17   1   2 1297.44 188.112   2
  17  -1   3 533.322 147.056   2
  17   1   3 338.142 152.838   2
  17   1   4 1495.52 203.434   2
  17  -3 -18 749.954 260.517   1
  17   3 -18 974.859 268.648   1
  17  -3 -17 350.785 236.286   1
  17   3 -17 611.969 239.852   1
  17  -3 -16 726.803 244.394   1
  17   3 -16 1347.33 264.009   1
  17   3 -15 1075.82 246.072   1
  17  -3 -15 319.149 215.597   1
  17   3 -14 527.647 212.761   1
  17  -3 -14 173.185 199.734   1
  17   3 -13 3287.51 305.583   1
  17  -3 -13 2805.74 294.264   1
  17  -3 -12 258.904 186.780   1
  17   3 -12 492.483 189.330   1
  17   3 -11 2055.78 238.821   1
  17  -3 -11 2690.86 263.847   1
  17   3 -10 911.467 179.039   1
  17  -3 -10 978.670 190.723   1
  17   3  -9 1652.50 201.740   1
 -17  -3   9 1480.99 173.895   1
 -17   3   8 682.307 148.808   1
  17   3  -8 679.296 152.887   1
 -17  -3   8 445.452 118.024   1
  17   3  -8 802.599 174.361   3
  17  -3  -8 696.267 187.527   3
 -17   3   7 4405.80 257.958   1
  17   3  -7 5115.13 264.015   1
  17   3  -7 4601.57 287.504   3
  17  -3  -7 4821.56 330.100   3
 -17   3   6 1513.50 168.217   1
  17   3  -6 1361.66 185.830   3
  17  -3  -6 1298.25 209.124   3
  17   3  -6 1676.98 168.088   1
 -17   3   5 3442.61 211.936   1
  17   3  -5 3627.50 187.814   1
  17   3  -5 2973.48 239.824   3
  17  -3  -5 3577.92 288.924   3
 -17   3   4 375.474 109.527   1
  17   3  -4-18.1868 145.116   3
  17  -3  -4 154.324 159.377   3
  17   3  -3 201.137 137.863   3
  17  -3  -3-74.3659 166.997   3
  17   3  -2 2470.07 232.938   3
  17  -3  -2 2894.95 276.852   3
  17   3  -1-11.1830 140.454   3
  17  -3  -1 8.37342 152.778   3
  17  -3   0 329.672 177.117   3
  17  -3   1 1988.38 182.468   2
  17  -3   1 1868.52 258.825   3
  17   3   2 5017.60 329.569   2
  17   3   3-147.988 150.381   2
  17   3   4 1005.84 197.450   2
  17   5 -17 616.577 239.729   1
  17  -5 -17 157.600 225.390   1
  17  -5 -16 1913.88 289.992   1
  17   5 -16 2233.49 294.065   1
  17   5 -15 1236.08 243.747   1
  17  -5 -15 1000.38 249.969   1
  17  -5 -14-4.61126 195.444   1
  17   5 -14 402.477 203.425   1
  17   5 -13 1474.91 228.143   1
  17   5 -12 285.962 175.169   1
  17   5 -11 275.734 170.112   1
  17   5 -10 4492.76 292.106   1
  17   5  -9 285.496 149.938   1
  17   5  -8 841.515 164.478   1
  17   5  -8 568.663 154.713   3
  17  -5  -8 788.419 204.859   3
  17   5  -7 708.276 154.624   3
  17  -5  -7 808.122 204.184   3
 -17   5   7 419.739 136.669   1
  17   5  -7 626.561 142.113   1
  17   5  -6 1603.30 166.281   1
  17   5  -6 1338.52 180.355   3
  17  -5  -6 1592.23 228.759   3
 -17   5   6 1435.45 174.139   1
  17   5  -5-82.8921 134.408   3
  17  -5  -5-248.855 187.607   3
 -17   5   5 38.4567 113.841   1
  17   5  -5 51.5927 103.258   1
  17   5  -4 3247.96 243.232   3
  17  -5  -4 3201.83 296.908   3
  17   5  -3 1398.33 184.559   3
  17  -5  -3 1301.08 226.462   3
  17   5  -2 718.585 160.311   3
  17  -5  -2 902.110 198.648   3
  17  -5  -1 2049.56 267.783   3
  17  -5   0 1494.02 241.948   3
  17  -5   1 36.0776 168.620   3
  17  -5   2 906.176 224.052   3
  17   5   2 1131.54 211.438   2
  17   5   3 51.4368 164.515   2
  17   7 -17 222.349 215.536   1
  17   7 -16 269.290 203.896   1
  17   7 -15 1622.97 258.996   1
  17   7 -14-24.1565 179.809   1
  17   7 -13 3047.55 291.651   1
  17   7 -12 170.173 162.929   1
  17   7 -11 499.350 169.539   1
  17   7 -10 1228.00 196.569   1
  17   7  -9 245.130 145.029   1
  17   7  -9 243.252 135.227   3
  17   7  -8 1228.88 175.484   1
  17   7  -8 858.282 154.059   3
  17  -7  -8 1160.03 228.539   3
  17   7  -7 5778.80 284.934   3
  17   7  -7 7324.57 308.230   1
  17  -7  -7 6378.36 391.559   3
  17   7  -6 668.515 137.992   1
  17   7  -6 85.2681 121.929   3
  17  -7  -6 460.272 186.516   3
  17   7  -5 207.510 110.480   3
  17  -7  -5-18.2073 172.145   3
  17   7  -4 1060.01 155.404   3
  17  -7  -4 985.868 210.208   3
  17   7  -3 71.4343 117.226   3
  17  -7  -3-167.654 185.800   3
  17  -7  -2 81.7629 165.945   3
  17  -7  -1 2255.50 275.858   3
  17  -7   0 464.261 189.285   3
  17  -7   1 3119.05 322.104   3
  17   7   1 3111.32 300.901   2
  17  -7   2 588.855 204.164   3
  17   7   2 1133.23 226.033   2
  17   9 -15 64.1427 193.516   1
  17   9 -14-119.025 190.993   1
  17   9 -13 1596.40 240.797   1
  17   9 -12 150.376 171.730   1
  17   9 -11-126.674 170.130   1
  17   9 -10 1711.02 182.331   3
  17   9 -10 1315.88 200.527   1
  17   9  -9 606.286 138.391   3
  17  -9  -9 994.935 234.027   3
  17   9  -9 531.588 160.290   1
  17   9  -8 405.646 119.377   3
  17  -9  -8 758.706 211.351   3
  17   9  -8 552.843 147.656   1
  17   9  -7 2356.92 204.084   1
  17   9  -7 1638.22 164.348   3
  17  -9  -7 2000.82 266.274   3
  17   9  -6 702.768 139.619   1
  17   9  -6 616.854 128.924   3
  17  -9  -6 729.482 209.698   3
  17   9  -5-47.8111 112.668   3
  17  -9  -5-148.935 182.583   3
  17   9  -4 3100.80 207.661   3
  17  -9  -4 3427.16 326.559   3
  17  -9  -3-187.023 201.790   3
  17  -9  -2 823.314 214.167   3
  17  -9  -1 204.923 187.059   3
  17  -9   0 600.972 209.041   3
  17  -9   1 197.236 187.094   3
  17   9   1 314.518 183.276   2
  17  11 -14 242.629 197.993   1
  17  11 -13 1457.55 250.045   1
  17  11 -12-232.788 197.062   1
  17  11 -11-233.752 194.444   1
  17  11 -10 56.5375 162.410   1
  17  11  -9 925.662 186.783   1
  17 -11  -9 1421.35 259.711   3
  17  11  -8-163.761 154.315   1
  17 -11  -8 156.650 189.753   3
  17  11  -7 2820.40 233.842   1
  17 -11  -7 2634.78 301.849   3
  17 -11  -6 646.945 215.167   3
  17 -11  -5 1842.65 261.441   3
  17 -11  -4 336.727 196.789   3
  17 -11  -3 1367.36 249.079   3
  17 -11  -2 183.501 183.404   3
  17 -11  -1 345.526 204.609   3
  17  13 -10 4710.01 346.279   1
  17 -13 -10 4558.07 383.220   3
  17  13  -9 448.907 180.373   1
  17 -13  -9 245.335 205.958   3
  17  13  -8 217.638 153.255   1
  17 -13  -8 186.373 198.770   3
  17 -13  -7-144.791 196.500   3
  17 -13  -6 1310.57 251.601   3
  17 -13  -5-85.3749 197.363   3
  17 -13  -4 1313.49 256.075   3
  18   0 -17 14.1758 221.077   1
  18   0 -16 1124.06 261.978   1
  18   0 -15-178.213 211.568   1
  18   0 -14 2757.21 306.888   1
  18   0 -13 55.4523 191.733   1
  18   0 -12 5079.56 347.236   1
  18   0 -11 135.447 169.519   1
  18   0 -10 67.4378 153.214   1
  18   0  -9 52.3292 142.304   1
  18   0  -9 333.404 170.429   3
  18   0  -8 3950.76 302.778   3
 -18   0   8 4154.01 246.814   1
  18   0  -8 4594.38 267.397   1
  18   0  -7-6.28629 146.441   3
 -18   0   7-52.0269 100.434   1
  18   0  -6 6801.54 372.285   3
  18   0  -5-179.001 163.499   3
  18   0  -4-27.1448 159.409   3
  18   0  -3-104.873 147.649   3
  18   0  -2 33.1740 148.223   3
  18   0  -1-27.6071 158.342   3
  18   0   0 6718.35 403.708   3
  18   0   1 109.441 131.329   2
  18   0   2 359.894 148.526   2
  18   2 -17 2532.17 323.453   1
  18  -2 -17 3122.36 350.520   1
  18   2 -16 41.1375 213.304   1
  18  -2 -16 199.402 227.196   1
  18   2 -15 513.592 211.746   1
  18  -2 -15 1063.94 261.550   1
  18   2 -14-32.5335 192.839   1
  18  -2 -14 195.565 208.045   1
  18  -2 -13 139.544 194.665   1
  18   2 -13-170.878 185.384   1
  18  -2 -12 989.964 217.649   1
  18   2 -12 832.812 207.386   1
  18   2 -11 8233.33 396.779   1
  18  -2 -11 8235.94 400.392   1
  18  -2 -10 7.85432 155.238   1
  18   2 -10-118.443 154.605   1
  18   2  -9 1767.24 204.632   1
  18   2  -9 1755.03 222.911   3
  18  -2  -9 1761.46 241.027   3
 -18   2   8 247.725 124.044   1
  18   2  -8 181.667 140.641   1
  18   2  -8 354.553 156.679   3
  18  -2  -8 375.567 179.473   3
 -18  -2   8 155.616 111.010   1
 -18   2   7 176.381 115.619   1
  18   2  -7 106.986 123.181   1
  18   2  -7 199.031 146.145   3
  18  -2  -7 185.077 167.149   3
  18   2  -6-150.357 155.163   3
  18  -2  -6-27.7968 157.022   3
  18   2  -5 5711.26 334.197   3
  18  -2  -5 5652.87 360.103   3
  18   2  -4-363.484 178.002   3
  18  -2  -4-234.311 177.361   3
  18   2  -3 2684.70 256.200   3
  18  -2  -3 2521.30 269.912   3
  18   2  -2 21.3547 142.608   3
  18  -2  -2-22.0325 153.358   3
  18   2  -1 101.687 143.474   3
  18  -2  -1 240.938 166.266   3
  18  -2   0 230.170 177.627   3
  18  -2   1 3457.59 323.448   3
  18   2   1 3576.91 289.340   2
  18   2   2 142.961 152.956   2
  18  -4 -17 273.781 234.702   1
  18   4 -17 653.786 254.587   1
  18  -4 -16 503.507 235.958   1
  18   4 -16 923.932 251.887   1
  18  -4 -15 259.956 219.015   1
  18   4 -15 723.864 229.977   1
  18  -4 -14 3174.99 321.118   1
  18   4 -14 3442.31 323.364   1
  18  -4 -13 237.730 192.876   1
  18   4 -13 599.247 217.815   1
  18   4 -12 3245.27 292.255   1
  18   4 -11-54.0864 161.358   1
  18   4 -10-191.517 169.204   1
  18   4  -9-49.3965 145.640   1
  18   4  -9 249.165 153.746   3
  18   4  -8 6631.95 313.850   1
  18   4  -8 5851.20 324.477   3
  18  -4  -8 6583.84 394.282   3
  18   4  -7 157.154 127.816   1
  18   4  -7-110.081 144.800   3
  18  -4  -7 184.709 172.151   3
  18   4  -6 2497.28 230.367   3
  18  -4  -6 3344.04 295.141   3
  18   4  -6 3330.40 200.883   1
  18   4  -5 823.893 163.813   3
  18  -4  -5 1011.38 213.894   3
  18   4  -4 110.247 132.716   3
  18  -4  -4-131.552 180.522   3
  18   4  -3 37.9129 131.793   3
  18  -4  -3-389.269 201.962   3
  18   4  -2 565.949 164.179   3
  18  -4  -2 813.022 206.943   3
  18  -4  -1 979.182 219.096   3
  18  -4   0 3449.80 323.062   3
  18  -4   1 1024.21 226.855   3
  18   4   1 1330.06 220.804   2
  18   4   2-30.6334 154.848   2
  18   6 -16 196.204 214.038   1
  18   6 -15 1138.05 252.851   1
  18   6 -14 303.192 198.033   1
  18   6 -13 491.124 198.153   1
  18   6 -12 349.984 178.173   1
  18   6 -11 2582.48 258.201   1
  18   6 -10 1215.27 196.910   1
  18   6  -9 2817.79 237.430   3
  18  -6  -9 2943.62 301.273   3
  18   6  -9 3563.16 259.595   1
  18   6  -8 1409.09 186.325   3
  18  -6  -8 1900.39 265.281   3
  18   6  -8 2489.06 221.258   1
  18   6  -7 497.815 141.426   1
  18   6  -7 404.139 138.093   3
  18  -6  -7 630.568 210.625   3
  18   6  -6-313.607 145.866   3
  18  -6  -6-100.402 167.491   3
  18   6  -5 363.021 135.564   3
  18  -6  -5 239.224 178.603   3
  18   6  -4 608.714 146.129   3
  18  -6  -4 420.802 177.162   3
  18   6  -3 2718.83 231.386   3
  18  -6  -3 2646.26 292.082   3
  18  -6  -2 74.7787 166.840   3
  18  -6  -1 142.765 182.260   3
  18  -6   0 3014.45 322.876   3
  18  -6   1 1154.04 245.324   3
  18   6   1 1576.01 241.818   2
  18   8 -15 11.8767 194.341   1
  18   8 -14 5030.66 371.122   1
  18   8 -13 332.376 195.006   1
  18   8 -12 741.304 198.700   1
  18   8 -11 132.362 163.381   1
  18   8 -10 353.809 163.386   1
  18   8 -10 469.935 147.301   3
  18   8  -9 350.116 152.777   1
  18   8  -9 318.379 135.902   3
  18  -8  -9 533.802 207.896   3
  18   8  -8 2713.93 213.829   3
  18   8  -8 3432.76 245.790   1
  18  -8  -8 3247.28 322.787   3
  18   8  -7 645.386 148.991   1
  18   8  -7 102.653 124.672   3
  18  -8  -7 266.117 185.592   3
  18   8  -6 2820.58 214.954   3
  18  -8  -6 3148.75 311.602   3
  18   8  -5 21.2515 115.616   3
  18  -8  -5-206.365 194.225   3
  18   8  -4 65.9060 115.678   3
  18  -8  -4-189.560 199.376   3
  18  -8  -3-133.252 202.144   3
  18  -8  -2 946.461 230.089   3
  18  -8  -1 199.322 184.582   3
  18  -8   0 3150.12 337.078   3
  18  10 -13-106.550 192.499   1
  18  10 -12 554.413 193.370   1
  18  10 -11 1353.35 221.593   1
  18 -10 -10 438.350 221.834   3
  18  10 -10-26.5659 158.315   1
  18 -10  -9 908.675 237.553   3
  18  10  -9 840.272 175.006   1
  18 -10  -8 11.8699 180.520   3
  18  10  -8 79.7169 131.529   1
  18 -10  -7 135.173 181.181   3
  18 -10  -6 108.655 178.026   3
  18 -10  -5 2453.97 302.656   3
  18 -10  -4-214.381 204.558   3
  18 -10  -3 836.443 225.682   3
  18  12  -9-226.397 180.141   1
  19  -1 -16 535.079 243.024   1
  19   1 -16 363.283 232.638   1
  19  -1 -15 603.555 237.715   1
  19   1 -15 610.402 234.029   1
  19   1 -14 555.548 220.911   1
  19  -1 -14 559.574 222.751   1
  19   1 -13 1060.79 232.041   1
  19  -1 -13 1415.50 247.304   1
  19  -1 -12 3209.50 296.672   1
  19   1 -12 2977.11 291.713   1
  19   1 -11 141.637 174.565   1
  19  -1 -11 181.567 167.318   1
  19  -1 -10 1138.65 199.995   1
  19   1 -10 1338.26 205.667   1
  19   1  -9 900.072 170.515   1
  19   1  -9 842.703 203.465   3
  19  -1  -9 1038.44 214.517   3
  19   1  -8 663.939 184.069   3
  19  -1  -8 797.441 193.296   3
  19   1  -8 485.661 143.115   1
  19   1  -7 2509.65 255.789   3
  19  -1  -7 2440.62 264.579   3
  19   1  -6 750.474 184.574   3
  19  -1  -6 516.898 179.191   3
  19   1  -5-252.433 181.216   3
  19  -1  -5-173.490 179.588   3
  19   1  -4 752.230 188.570   3
  19  -1  -4 623.710 183.549   3
  19   1  -3-108.693 157.782   3
  19  -1  -3 91.7008 165.821   3
  19   1  -2-80.7580 166.051   3
  19  -1  -2 150.978 167.222   3
  19   1  -1 2691.95 280.966   3
  19  -1  -1 2665.66 292.155   3
  19  -1   0 342.787 182.141   3
  19  -1   0 613.355 159.695   2
  19   3 -16 489.268 231.349   1
  19  -3 -16 949.656 270.518   1
  19   3 -15 320.200 216.882   1
  19  -3 -15 919.450 247.081   1
  19  -3 -14-45.0149 199.438   1
  19   3 -14-214.794 209.629   1
  19   3 -13 4026.85 327.760   1
  19  -3 -13 4247.56 345.370   1
  19   3 -12 1150.13 221.384   1
  19   3 -11 250.288 171.617   1
  19   3 -10 282.974 163.512   1
  19   3 -10 644.992 182.329   3
  19   3  -9 2671.51 255.693   3
  19   3  -9 3307.89 253.849   1
  19  -3  -9 2986.35 301.402   3
  19   3  -8 232.949 137.235   1
  19   3  -8 1.48343 146.261   3
  19  -3  -8 273.294 181.306   3
  19   3  -7 2582.00 247.137   3
  19  -3  -7 2780.37 281.397   3
  19   3  -6 355.315 158.312   3
  19  -3  -6 320.674 164.441   3
  19   3  -5 989.606 184.281   3
  19  -3  -5 1130.63 219.703   3
  19   3  -4 1353.57 210.319   3
  19  -3  -4 920.904 206.847   3
  19   3  -3 386.629 157.913   3
  19  -3  -3 370.345 182.215   3
  19   3  -2 1702.33 228.230   3
  19  -3  -2 1881.89 260.336   3
  19   3  -1 2560.59 269.150   3
  19  -3  -1 2742.28 300.412   3
  19  -3   0 1144.47 237.751   3
  19   5 -15 921.988 242.202   1
  19   5 -14 1359.59 255.819   1
  19   5 -13 776.900 222.599   1
  19   5 -12 1078.37 227.800   1
  19   5 -11-225.625 173.620   1
  19   5 -10 4113.54 292.978   1
  19   5 -10 4335.75 302.346   3
  19  -5 -10 4248.26 349.650   3
  19   5  -9 471.838 156.517   1
  19   5  -9 477.072 170.665   3
  19  -5  -9 957.825 234.849   3
  19   5  -8-63.8385 142.112   3
  19  -5  -8 280.894 186.860   3
  19   5  -8 197.204 140.752   1
  19   5  -7 684.747 160.497   3
  19  -5  -7 845.719 211.685   3
  19   5  -6-89.4442 149.372   3
  19  -5  -6 167.440 175.971   3
  19   5  -5 109.200 135.804   3
  19  -5  -5-203.353 196.718   3
  19   5  -4 1337.67 199.391   3
  19  -5  -4 1293.05 238.412   3
  19   5  -3 146.962 146.218   3
  19  -5  -3 33.4349 169.889   3
  19   5  -2 240.393 149.970   3
  19  -5  -2 392.447 200.633   3
  19  -5  -1 566.705 208.048   3
  19   7 -14 728.583 224.694   1
  19   7 -13 1890.27 262.034   1
  19   7 -12 1016.74 221.084   1
  19   7 -11 365.949 173.459   1
  19   7 -11 370.531 164.454   3
  19   7 -10 1021.14 181.425   3
  19  -7 -10 1478.28 263.014   3
  19   7 -10 1651.00 217.369   1
  19   7  -9 1092.90 177.090   3
  19  -7  -9 1471.68 259.369   3
  19   7  -9 1880.06 222.425   1
  19   7  -8-34.5906 135.938   3
  19  -7  -8 306.643 203.761   3
  19   7  -7 3294.20 248.939   3
  19  -7  -7 3457.57 327.833   3
  19   7  -6-148.905 133.658   3
  19  -7  -6-264.965 201.413   3
  19   7  -5 407.108 142.727   3
  19  -7  -5 302.876 189.300   3
  19   7  -4 1863.16 206.169   3
  19  -7  -4 1606.85 262.562   3
  19  -7  -3-38.1117 174.975   3
  19  -7  -2 85.8511 180.074   3
  19   9 -12 2103.47 259.732   1
  19   9 -11 151.252 168.802   1
  19   9 -10 1199.08 203.135   1
  19  -9 -10 1200.44 261.313   3
  19  -9  -9 217.953 198.621   3
  19  -9  -8 84.4732 187.037   3
  19  -9  -7 666.985 220.713   3
  19  -9  -6 125.649 191.913   3
  19  -9  -5-383.300 214.544   3
  20   0 -15 188.121 220.382   1
  20   0 -14 2723.81 310.076   1
  20   0 -13 142.501 197.383   1
  20   0 -12 64.0708 182.210   1
  20   0 -11 63.7686 169.670   1
  20   0 -10 864.481 188.476   1
  20   0 -10 1181.76 228.425   3
  20   0  -9 117.249 175.360   3
  20   0  -8 3717.41 314.272   3
  20   0  -7-164.314 179.373   3
  20   0  -6 1986.94 254.671   3
  20   0  -5-96.0006 178.147   3
  20   0  -4 275.220 177.989   3
  20   0  -3-84.8884 178.667   3
  20   0  -2 3127.96 310.258   3
  20  -2 -15 718.289 247.576   1
  20   2 -15 533.873 235.353   1
  20   2 -14-172.132 207.332   1
  20  -2 -14 161.238 200.792   1
  20   2 -13 1433.20 258.553   1
  20  -2 -13 1241.73 244.700   1
  20   2 -12 174.049 186.914   1
  20   2 -11 1472.96 229.675   1
  20   2 -11 1604.63 236.631   3
  20   2 -10 389.121 183.024   3
  20  -2 -10 550.848 205.144   3
  20   2 -10 305.146 162.385   1
  20   2  -9 1038.39 176.503   1
  20   2  -9 882.526 201.623   3
  20  -2  -9 1209.14 237.343   3
  20   2  -8-33.9540 158.157   3
  20  -2  -8-18.3304 172.364   3
  20   2  -7-188.809 174.085   3
  20  -2  -7-66.4192 176.927   3
  20   2  -6 233.809 164.035   3
  20  -2  -6 534.387 195.184   3
  20   2  -5 1868.49 242.074   3
  20  -2  -5 1944.13 265.739   3
  20   2  -4 337.480 166.176   3
  20  -2  -4 258.945 170.510   3
  20   2  -3 1054.16 212.683   3
  20  -2  -3 1167.76 241.151   3
  20   2  -2 29.3889 168.923   3
  20  -2  -2 25.0386 175.946   3
  20   4 -14 1877.65 278.510   1
  20   4 -13 2.93980 186.054   1
  20   4 -12 753.960 213.825   1
  20   4 -11 1192.73 212.289   1
  20   4 -11 1270.37 221.390   3
  20   4 -10 748.983 188.324   1
  20   4 -10 686.482 185.817   3
  20  -4 -10 874.315 234.422   3
  20   4  -9 113.320 149.260   3
  20  -4  -9 87.9011 189.574   3
  20   4  -8 2041.25 235.350   3
  20  -4  -8 2413.91 285.648   3
  20   4  -7-42.3521 154.801   3
  20  -4  -7-170.268 188.692   3
  20   4  -6 1024.32 192.742   3
  20  -4  -6 927.512 220.154   3
  20   4  -5 52.9082 145.669   3
  20  -4  -5-305.852 208.869   3
  20   4  -4 90.9544 149.479   3
  20  -4  -4 110.577 177.276   3
  20   4  -3-136.104 158.905   3
  20  -4  -3 162.939 182.416   3
  20   6 -13 947.180 237.867   1
  20   6 -12 44.7110 178.189   1
  20   6 -11 1881.16 243.818   1
  20   6 -11 1950.68 235.700   3
  20  -6 -11 2477.36 308.840   3
  20   6 -10 63.0955 152.489   3
  20  -6 -10 250.229 207.284   3
  20   6  -9 532.610 157.214   3
  20  -6  -9 906.024 232.614   3
  20   6  -8 664.525 166.039   3
  20  -6  -8 940.435 228.081   3
  20   6  -7-99.6787 153.752   3
  20  -6  -7 18.0171 191.869   3
  20   6  -6 143.298 141.283   3
  20  -6  -6-359.453 207.319   3
  20   6  -5 969.590 185.136   3
  20  -6  -5 853.242 222.904   3
  20   6  -4-113.552 148.604   3
  20  -6  -4-299.089 212.587   3
  21   1 -12 370.370 194.894   1
  21   1 -11 350.466 197.668   3
  21  -1 -11 221.969 197.059   3
  21   1 -11-92.2232 166.250   1
  21   1 -10 273.166 193.521   3
  21  -1 -10 188.750 187.198   3
  21   1  -9 247.037 181.010   3
  21  -1  -9 192.090 182.913   3
  21   1  -8 192.611 173.991   3
  21  -1  -8 97.5123 180.532   3
  21   1  -7 508.579 184.748   3
  21  -1  -7 417.814 194.786   3
  21   1  -6 1094.90 214.958   3
  21  -1  -6 932.775 217.887   3
  21   1  -5 987.702 214.433   3
  21  -1  -5 493.482 189.856   3
  21   3 -11 301.784 187.211   3
  21  -3 -11 522.662 219.325   3
  21   3 -10 769.086 204.828   3
  21  -3 -10 1224.42 249.007   3
  21   3  -9 319.233 172.649   3
  21  -3  -9 455.160 204.953   3
  21   3  -8-92.6807 173.867   3
  21  -3  -8 0.91759 182.526   3
  21   3  -7 1071.94 209.192   3
  21  -3  -7 1306.55 249.039   3
  21   3  -6 214.310 161.743   3
  21  -3  -6 76.2800 186.016   3
   0   0   0    0.00    0.00   0
 
TITL dmsalno215 in C2/c
REM C2/c (#15 in standard setting)
CELL 0.71073  17.584880  18.505979  17.286031  90.0000 115.1219  90.0000
ZERR    5.00   0.000938   0.000568   0.000812   0.0000   0.0062   0.0000
LATT  7
SYMM -x, y,-z+1/2
SFAC C H Li N O Zn
UNIT 170.00 110.00 10.00 10.00 60.00 10.00
TREF
HKLF 4
END
;
_shelx_hkl_checksum              69048
_shelx_fab_file
;
    0    0    4    -10.70      0.00
    0    0    6     -6.42      0.00
    0    0    8      4.71      0.00
    0    0   10     -6.46      0.00
    0    0   12     -3.88      0.00
    0    0   14     -3.06      0.00
    0    0   16     -5.42      0.00
    0    0   18      3.13      0.00
    0    2    3     31.25      0.00
    0    2    4     20.62      0.00
    0    2    5    -11.09      0.00
    0    2    6     -0.99      0.00
    0    2    7     -2.23      0.00
    0    2    8     -3.09      0.00
    0    2    9     -2.78      0.00
    0    2   10      5.17      0.00
    0    2   11      0.81      0.00
    0    2   12      6.62      0.00
    0    2   13      3.99      0.00
    0    2   14      0.76      0.00
    0    2   15     -3.56      0.00
    0    2   16      1.77      0.00
    0    2   17     -0.71      0.00
    0    2   18     -0.87      0.00
    0    2   19     -3.80      0.00
    0    4    0    -68.66      0.00
    0    4    1     -0.54      0.00
    0    4    2     66.15      0.00
    0    4    3    -22.88      0.00
    0    4    4     -1.36      0.00
    0    4    5      2.68      0.00
    0    4    6     -0.70      0.00
    0    4    7      1.06      0.00
    0    4    8     -2.33      0.00
    0    4    9     -1.16      0.00
    0    4   10     -3.48      0.00
    0    4   11     -0.70      0.00
    0    4   12     -3.94      0.00
    0    4   13     -0.55      0.00
    0    4   14      1.41      0.00
    0    4   15      1.32      0.00
    0    4   16     -0.33      0.00
    0    4   17      2.46      0.00
    0    4   18     -1.51      0.00
    0    6    1     -3.42      0.00
    0    6    2      0.53      0.00
    0    6    3      4.21      0.00
    0    6    4    -22.77      0.00
    0    6    5      9.53      0.00
    0    6    6      4.97      0.00
    0    6    7      0.44      0.00
    0    6    8      4.94      0.00
    0    6    9     -0.74      0.00
    0    6   10      0.89      0.00
    0    6   11      1.22      0.00
    0    6   12     -2.30      0.00
    0    6   13     -4.08      0.00
    0    6   14      2.24      0.00
    0    6   15      0.68      0.00
    0    6   16      0.79      0.00
    0    6   17      0.56      0.00
    0    6   18      0.37      0.00
    0    8    0     19.99      0.00
    0    8    1     -3.91      0.00
    0    8    2     -7.70      0.00
    0    8    3      0.26      0.00
    0    8    4      3.85      0.00
    0    8    5     -5.97      0.00
    0    8    6      5.39      0.00
    0    8    7     -0.78      0.00
    0    8    8     -0.77      0.00
    0    8    9     -0.62      0.00
    0    8   10      0.45      0.00
    0    8   11      1.54      0.00
    0    8   12      2.12      0.00
    0    8   13      2.54      0.00
    0    8   14     -1.06      0.00
    0    8   15     -0.04      0.00
    0    8   16     -5.11      0.00
    0    8   17     -3.30      0.00
    0   10    0      0.71      0.00
    0   10    1      9.16      0.00
    0   10    2     -8.66      0.00
    0   10    3     -2.08      0.00
    0   10    4      6.43      0.00
    0   10    5     -0.93      0.00
    0   10    6     -2.94      0.00
    0   10    7     -0.35      0.00
    0   10    8     -1.59      0.00
    0   10    9      3.08      0.00
    0   10   10     -2.16      0.00
    0   10   11     -3.48      0.00
    0   10   12      0.84      0.00
    0   10   13      0.01      0.00
    0   10   14      1.42      0.00
    0   10   15      1.81      0.00
    0   10   16      2.73      0.00
    0   10   17     -0.61      0.00
    0   12    0      3.10      0.00
    0   12    1      2.68      0.00
    0   12    2     -1.31      0.00
    0   12    3     -4.08      0.00
    0   12    4      3.66      0.00
    0   12    5      3.10      0.00
    0   12    6     -2.45      0.00
    0   12    7     -0.75      0.00
    0   12    8      3.43      0.00
    0   12    9     -0.80      0.00
    0   12   10     -0.06      0.00
    0   12   11      0.97      0.00
    0   12   12     -0.91      0.00
    0   12   13      0.06      0.00
    0   12   14      0.30      0.00
    0   12   15      0.32      0.00
    0   12   16     -1.39      0.00
    0   14    0     -2.04      0.00
    0   14    1     -3.23      0.00
    0   14    2      1.78      0.00
    0   14    3      0.39      0.00
    0   14    4     -1.00      0.00
    0   14    5     -3.77      0.00
    0   14    6     -1.01      0.00
    0   14    7      1.15      0.00
    0   14    8     -1.46      0.00
    0   14    9      0.03      0.00
    0   14   10      0.41      0.00
    0   14   11      1.07      0.00
    0   14   12     -0.51      0.00
    0   14   13     -1.51      0.00
    0   14   14     -2.56      0.00
    0   16    0     -2.85      0.00
    0   16    1     -1.97      0.00
    0   16    2      4.24      0.00
    0   16    3      3.13      0.00
    0   16    4     -4.23      0.00
    0   16    5      0.95      0.00
    0   16    6      4.39      0.00
    0   16    7     -1.30      0.00
    0   16    8     -2.35      0.00
    0   16    9      1.52      0.00
    0   16   10      0.91      0.00
    0   16   11      0.59      0.00
    0   16   12      1.67      0.00
    0   16   13     -0.80      0.00
    0   18    0     -1.69      0.00
    0   18    1      3.16      0.00
    0   18    2      0.76      0.00
    0   18    3     -2.15      0.00
    0   18    4      0.22      0.00
    0   18    5      0.28      0.00
    0   18    6     -0.17      0.00
    0   18    7     -0.18      0.00
    0   18    8      0.75      0.00
    0   18    9     -0.77      0.00
    0   18   10     -3.78      0.00
    0   18   11     -1.72      0.00
    0   20    0      2.16      0.00
    0   20    1     -0.53      0.00
    0   20    2     -0.84      0.00
    0   20    3      0.39      0.00
    0   20    4      2.20      0.00
    0   20    5      0.22      0.00
    0   20    6     -2.41      0.00
    0   20    7      1.06      0.00
    0   20    8     -0.71      0.00
    0   22    0      0.07      0.00
    0   22    1     -0.57      0.00
    0   22    2     -1.74      0.00
    0   22    3      1.02      0.00
    0   22    4      0.09      0.00
   -1    1   19     -1.02      0.00
   -1    1   18      2.37      0.00
   -1    1   17      3.09      0.00
   -1    1   16     -0.35      0.00
   -1    1   15      3.02      0.00
   -1    1   14      2.33      0.00
   -1    1   13      3.31      0.00
   -1    1   12      1.02      0.00
   -1    1   11     -1.72      0.00
   -1    1   10     -3.88      0.00
   -1    1    9     -5.49      0.00
   -1    1    8      0.80      0.00
   -1    1    7      8.00      0.00
   -1    1    6      6.91      0.00
   -1    1    5     -6.72      0.00
   -1    1    4     17.10      0.00
   -1    1    3     11.49      0.00
    1    1    2     -1.85      0.00
    1    1    3     -7.51      0.00
    1    1    4     18.88      0.00
    1    1    5     10.50      0.00
    1    1    6     -0.76      0.00
    1    1    7      0.80      0.00
    1    1    8     -0.22      0.00
    1    1    9     -6.80      0.00
    1    1   10      0.51      0.00
    1    1   11     -0.15      0.00
    1    1   12     -1.29      0.00
    1    1   13      1.94      0.00
    1    1   14      2.79      0.00
    1    1   15     -0.98      0.00
    1    1   16      0.67      0.00
    1    1   17      4.52      0.00
    1    1   18      1.01      0.00
   -1    3   19      2.26      0.00
   -1    3   18      0.22      0.00
   -1    3   17     -0.89      0.00
   -1    3   16      0.84      0.00
   -1    3   15     -2.35      0.00
   -1    3   14     -5.81      0.00
   -1    3   13     -4.64      0.00
   -1    3   12     -0.13      0.00
   -1    3   11      0.42      0.00
   -1    3   10      3.05      0.00
   -1    3    9      6.62      0.00
   -1    3    8     -2.28      0.00
   -1    3    7      7.38      0.00
   -1    3    6     -4.04      0.00
   -1    3    5    -11.61      0.00
   -1    3    4    -26.33      0.00
   -1    3    3     44.82      0.00
   -1    3    2     15.52      0.00
   -1    3    1    -31.06      0.00
    1    3    0     21.37      0.00
    1    3    1    -67.35      0.00
    1    3    2     12.88      0.00
    1    3    3     26.67      0.00
    1    3    4    -18.29      0.00
    1    3    5      1.88      0.00
    1    3    6     -0.51      0.00
    1    3    7      4.60      0.00
    1    3    8      0.30      0.00
    1    3    9      2.01      0.00
    1    3   10     -0.14      0.00
    1    3   11      1.38      0.00
    1    3   12     -0.89      0.00
    1    3   13     -4.14      0.00
    1    3   14     -3.24      0.00
    1    3   15      0.33      0.00
    1    3   16     -0.80      0.00
    1    3   17      1.60      0.00
    1    3   18     -0.92      0.00
   -1    5   19      0.11      0.00
   -1    5   18     -1.28      0.00
   -1    5   17      0.03      0.00
   -1    5   16      0.85      0.00
   -1    5   15      0.41      0.00
   -1    5   14      0.28      0.00
   -1    5   13      3.13      0.00
   -1    5   12      1.84      0.00
   -1    5   11     -0.84      0.00
   -1    5   10      3.74      0.00
   -1    5    9     -2.70      0.00
   -1    5    8      1.03      0.00
   -1    5    7     -3.13      0.00
   -1    5    6     -0.89      0.00
   -1    5    5    -14.93      0.00
   -1    5    4      8.45      0.00
   -1    5    3    -11.93      0.00
   -1    5    2     -6.77      0.00
   -1    5    1     25.62      0.00
    1    5    0      4.75      0.00
    1    5    1     43.23      0.00
    1    5    2     -8.44      0.00
    1    5    3     -0.18      0.00
    1    5    4     -7.69      0.00
    1    5    5    -11.41      0.00
    1    5    6      4.39      0.00
    1    5    7     -5.03      0.00
    1    5    8      4.06      0.00
    1    5    9      0.59      0.00
    1    5   10     -0.25      0.00
    1    5   11      5.59      0.00
    1    5   12      2.29      0.00
    1    5   13     -1.26      0.00
    1    5   14     -0.95      0.00
    1    5   15     -0.23      0.00
    1    5   16      1.73      0.00
    1    5   17     -0.68      0.00
    1    5   18     -1.22      0.00
   -1    7   18     -2.56      0.00
   -1    7   17     -2.69      0.00
   -1    7   16      0.58      0.00
   -1    7   15     -0.21      0.00
   -1    7   14      4.00      0.00
   -1    7   13      3.40      0.00
   -1    7   12     -5.50      0.00
   -1    7   11      1.31      0.00
   -1    7   10     -3.37      0.00
   -1    7    9     -1.93      0.00
   -1    7    8     -1.09      0.00
   -1    7    7      2.81      0.00
   -1    7    6     -3.06      0.00
   -1    7    5     16.46      0.00
   -1    7    4      3.93      0.00
   -1    7    3    -16.59      0.00
   -1    7    2     -2.37      0.00
   -1    7    1     24.17      0.00
    1    7    0      1.74      0.00
    1    7    1     11.11      0.00
    1    7    2      7.18      0.00
    1    7    3    -11.55      0.00
    1    7    4      4.51      0.00
    1    7    5      3.31      0.00
    1    7    6     -5.29      0.00
    1    7    7      1.82      0.00
    1    7    8     -5.40      0.00
    1    7    9      0.18      0.00
    1    7   10     -1.48      0.00
    1    7   11     -2.71      0.00
    1    7   12     -0.03      0.00
    1    7   13      2.24      0.00
    1    7   14      0.42      0.00
    1    7   15      0.10      0.00
    1    7   16      2.17      0.00
    1    7   17     -0.21      0.00
   -1    9   17      4.15      0.00
   -1    9   16      0.57      0.00
   -1    9   15     -1.03      0.00
   -1    9   14     -2.57      0.00
   -1    9   13     -4.59      0.00
   -1    9   12      0.45      0.00
   -1    9   11     -0.33      0.00
   -1    9   10      3.95      0.00
   -1    9    9      0.52      0.00
   -1    9    8     -0.84      0.00
   -1    9    7     -5.03      0.00
   -1    9    6     -0.57      0.00
   -1    9    5      6.02      0.00
   -1    9    4     -1.61      0.00
   -1    9    3     -6.69      0.00
   -1    9    2      7.61      0.00
   -1    9    1     -4.38      0.00
    1    9    0     -8.49      0.00
    1    9    1      0.30      0.00
    1    9    2      2.22      0.00
    1    9    3     -2.32      0.00
    1    9    4     -2.11      0.00
    1    9    5      6.08      0.00
    1    9    6      3.32      0.00
    1    9    7     -1.23      0.00
    1    9    8     -0.57      0.00
    1    9    9      1.74      0.00
    1    9   10      4.08      0.00
    1    9   11     -3.91      0.00
    1    9   12     -1.45      0.00
    1    9   13      0.53      0.00
    1    9   14     -0.01      0.00
    1    9   15     -2.13      0.00
    1    9   16     -0.74      0.00
    1    9   17      2.61      0.00
   -1   11   17     -0.76      0.00
   -1   11   16     -1.29      0.00
   -1   11   15     -0.95      0.00
   -1   11   14     -0.01      0.00
   -1   11   13      0.74      0.00
   -1   11   12      2.93      0.00
   -1   11   11      0.87      0.00
   -1   11   10     -2.58      0.00
   -1   11    9      3.42      0.00
   -1   11    8     -0.41      0.00
   -1   11    7     -1.42      0.00
   -1   11    6      1.34      0.00
   -1   11    5      0.93      0.00
   -1   11    4     -2.97      0.00
   -1   11    3      4.44      0.00
   -1   11    2     -0.05      0.00
   -1   11    1     -1.96      0.00
    1   11    0      5.30      0.00
    1   11    1     -4.69      0.00
    1   11    2     -2.77      0.00
    1   11    3      3.79      0.00
    1   11    4     -2.79      0.00
    1   11    5     -0.33      0.00
    1   11    6      0.43      0.00
    1   11    7     -0.55      0.00
    1   11    8      0.11      0.00
    1   11    9     -1.71      0.00
    1   11   10     -0.74      0.00
    1   11   11      1.77      0.00
    1   11   12     -0.37      0.00
    1   11   13      1.06      0.00
    1   11   14     -0.86      0.00
    1   11   15     -0.44      0.00
    1   11   16     -0.93      0.00
   -1   13   15     -2.81      0.00
   -1   13   14     -1.81      0.00
   -1   13   13      1.93      0.00
   -1   13   12      0.88      0.00
   -1   13   11     -0.95      0.00
   -1   13   10      0.73      0.00
   -1   13    9     -4.74      0.00
   -1   13    8      0.42      0.00
   -1   13    7      2.63      0.00
   -1   13    6     -1.73      0.00
   -1   13    5     -2.87      0.00
   -1   13    4      2.85      0.00
   -1   13    3      4.59      0.00
   -1   13    2     -5.78      0.00
   -1   13    1     -5.33      0.00
    1   13    0      5.63      0.00
    1   13    1     -3.77      0.00
    1   13    2     -3.24      0.00
    1   13    3      4.05      0.00
    1   13    4      5.78      0.00
    1   13    5     -2.53      0.00
    1   13    6     -2.26      0.00
    1   13    7      2.55      0.00
    1   13    8     -0.07      0.00
    1   13    9     -2.49      0.00
    1   13   10      0.16      0.00
    1   13   11      2.60      0.00
    1   13   12      0.76      0.00
    1   13   13      0.27      0.00
    1   13   14      0.74      0.00
    1   13   15     -4.60      0.00
   -1   15   14      1.40      0.00
   -1   15   13      1.59      0.00
   -1   15   12     -1.24      0.00
   -1   15   11      0.73      0.00
   -1   15   10      1.79      0.00
   -1   15    9     -0.53      0.00
   -1   15    8     -1.07      0.00
   -1   15    7      4.03      0.00
   -1   15    6      2.51      0.00
   -1   15    5     -3.35      0.00
   -1   15    4      0.39      0.00
   -1   15    3      3.03      0.00
   -1   15    2     -1.36      0.00
   -1   15    1     -2.01      0.00
    1   15    0     -0.54      0.00
    1   15    1     -1.84      0.00
    1   15    2     -2.64      0.00
    1   15    3      2.83      0.00
    1   15    4     -1.55      0.00
    1   15    5     -2.48      0.00
    1   15    6      1.25      0.00
    1   15    7      1.08      0.00
    1   15    8      0.09      0.00
    1   15    9     -0.01      0.00
    1   15   10     -0.34      0.00
    1   15   11     -1.71      0.00
    1   15   12      0.87      0.00
    1   15   13      0.10      0.00
   -1   17   12     -1.98      0.00
   -1   17   11     -2.73      0.00
   -1   17   10     -1.04      0.00
   -1   17    9      1.64      0.00
   -1   17    8      0.99      0.00
   -1   17    7     -3.04      0.00
   -1   17    6     -0.67      0.00
   -1   17    5      3.18      0.00
   -1   17    4     -1.30      0.00
   -1   17    3     -3.14      0.00
   -1   17    2      2.97      0.00
   -1   17    1      1.49      0.00
    1   17    0     -2.76      0.00
    1   17    1      1.39      0.00
    1   17    2      3.43      0.00
    1   17    3     -2.22      0.00
    1   17    4     -0.87      0.00
    1   17    5      2.33      0.00
    1   17    6     -0.11      0.00
    1   17    7     -1.51      0.00
    1   17    8      1.21      0.00
    1   17    9      1.44      0.00
    1   17   10      1.47      0.00
    1   17   11     -0.09      0.00
    1   17   12     -2.02      0.00
   -1   19   10      1.65      0.00
   -1   19    9     -0.20      0.00
   -1   19    8      1.22      0.00
   -1   19    7     -1.42      0.00
   -1   19    6     -1.75      0.00
   -1   19    5      2.24      0.00
   -1   19    4     -0.58      0.00
   -1   19    3     -2.40      0.00
   -1   19    2     -1.84      0.00
   -1   19    1      2.88      0.00
    1   19    0      0.87      0.00
    1   19    1      1.46      0.00
    1   19    2     -1.87      0.00
    1   19    3     -1.54      0.00
    1   19    4      0.60      0.00
    1   19    5      1.96      0.00
    1   19    6      0.06      0.00
    1   19    7      0.14      0.00
    1   19    8     -0.23      0.00
    1   19    9     -4.65      0.00
   -1   21    7      0.31      0.00
   -1   21    6      0.49      0.00
   -1   21    5     -1.92      0.00
   -1   21    4      1.19      0.00
   -1   21    3      0.03      0.00
   -1   21    2      0.15      0.00
   -1   21    1     -0.60      0.00
    1   21    0      1.60      0.00
    1   21    1     -0.01      0.00
    1   21    2     -0.85      0.00
    1   21    3     -0.83      0.00
    1   21    4      0.22      0.00
    1   21    5     -2.63      0.00
    1   21    6     -0.03      0.00
   -2    0   18     -2.40      0.00
   -2    0   16     -0.27      0.00
   -2    0   14      0.50      0.00
   -2    0   12     -6.39      0.00
   -2    0   10     -2.11      0.00
   -2    0    8      5.64      0.00
   -2    0    6    -26.81      0.00
   -2    0    4      9.53      0.00
    2    0    2    -45.40      0.00
    2    0    4    -17.49      0.00
    2    0    6      2.12      0.00
    2    0    8      1.42      0.00
    2    0   10     -5.34      0.00
    2    0   12     -3.28      0.00
    2    0   14      0.01      0.00
    2    0   16     -3.31      0.00
    2    0   18     -7.51      0.00
   -2    2   19     -2.68      0.00
   -2    2   18     -0.42      0.00
   -2    2   17     -0.54      0.00
   -2    2   16     -2.65      0.00
   -2    2   15     -1.44      0.00
   -2    2   14      2.13      0.00
   -2    2   13      0.40      0.00
   -2    2   12      4.04      0.00
   -2    2   11      4.41      0.00
   -2    2   10      4.47      0.00
   -2    2    9     -6.18      0.00
   -2    2    8      1.19      0.00
   -2    2    7     -9.00      0.00
   -2    2    6      1.48      0.00
   -2    2    5     -2.85      0.00
   -2    2    4      9.95      0.00
   -2    2    3     52.50      0.00
   -2    2    2     16.33      0.00
    2    2    0     -5.17      0.00
    2    2    1      4.74      0.00
    2    2    2     -5.53      0.00
    2    2    3     14.82      0.00
    2    2    4     10.19      0.00
    2    2    5     -6.83      0.00
    2    2    6     -3.90      0.00
    2    2    7     -2.06      0.00
    2    2    8      3.07      0.00
    2    2    9      0.48      0.00
    2    2   10      2.72      0.00
    2    2   11      0.78      0.00
    2    2   12      4.50      0.00
    2    2   13      0.80      0.00
    2    2   14     -0.62      0.00
    2    2   15     -1.73      0.00
    2    2   16     -0.66      0.00
    2    2   17      0.39      0.00
    2    2   18     10.00      0.00
   -2    4   19     -1.49      0.00
   -2    4   18      0.20      0.00
   -2    4   17      1.43      0.00
   -2    4   16      1.90      0.00
   -2    4   15      4.06      0.00
   -2    4   14      0.65      0.00
   -2    4   13     -2.75      0.00
   -2    4   12     -4.59      0.00
   -2    4   11      0.61      0.00
   -2    4   10     -6.38      0.00
   -2    4    9      3.88      0.00
   -2    4    8     -5.02      0.00
   -2    4    7     -1.09      0.00
   -2    4    6     10.10      0.00
   -2    4    5      1.78      0.00
   -2    4    4    -15.15      0.00
   -2    4    3    -14.22      0.00
   -2    4    2     24.10      0.00
   -2    4    1     13.33      0.00
    2    4    0    -65.57      0.00
    2    4    1      2.17      0.00
    2    4    2     33.67      0.00
    2    4    3      2.83      0.00
    2    4    4      0.71      0.00
    2    4    5     -2.55      0.00
    2    4    6      1.02      0.00
    2    4    7     -4.28      0.00
    2    4    8     -6.04      0.00
    2    4    9      1.69      0.00
    2    4   10     -6.18      0.00
    2    4   11     -1.63      0.00
    2    4   12      1.59      0.00
    2    4   13      1.04      0.00
    2    4   14      1.39      0.00
    2    4   15      0.19      0.00
    2    4   16     -0.38      0.00
    2    4   17      0.80      0.00
   -2    6   19     -0.44      0.00
   -2    6   18      0.02      0.00
   -2    6   17     -0.52      0.00
   -2    6   16      0.39      0.00
   -2    6   15     -0.16      0.00
   -2    6   14      0.28      0.00
   -2    6   13     -4.44      0.00
   -2    6   12      3.91      0.00
   -2    6   11     -2.43      0.00
   -2    6   10      2.25      0.00
   -2    6    9      1.78      0.00
   -2    6    8      0.16      0.00
   -2    6    7      6.20      0.00
   -2    6    6     11.84      0.00
   -2    6    5      0.18      0.00
   -2    6    4    -16.52      0.00
   -2    6    3     -5.57      0.00
   -2    6    2     12.44      0.00
   -2    6    1      0.33      0.00
    2    6    0      3.64      0.00
    2    6    1     -4.52      0.00
    2    6    2      1.32      0.00
    2    6    3      1.22      0.00
    2    6    4     -5.77      0.00
    2    6    5      7.41      0.00
    2    6    6      5.91      0.00
    2    6    7      3.79      0.00
    2    6    8      0.77      0.00
    2    6    9     -2.00      0.00
    2    6   10      6.30      0.00
    2    6   11     -2.61      0.00
    2    6   12     -3.42      0.00
    2    6   13     -1.09      0.00
    2    6   14      1.19      0.00
    2    6   15      0.82      0.00
    2    6   16     -1.10      0.00
    2    6   17     -0.75      0.00
   -2    8   18      0.42      0.00
   -2    8   17     -1.37      0.00
   -2    8   16     -2.32      0.00
   -2    8   15     -1.27      0.00
   -2    8   14     -3.98      0.00
   -2    8   13      5.78      0.00
   -2    8   12      0.98      0.00
   -2    8   11      1.50      0.00
   -2    8   10      3.77      0.00
   -2    8    9     -4.71      0.00
   -2    8    8     -4.49      0.00
   -2    8    7     -2.05      0.00
   -2    8    6     -0.71      0.00
   -2    8    5     -1.46      0.00
   -2    8    4      3.77      0.00
   -2    8    3      7.58      0.00
   -2    8    2    -11.99      0.00
   -2    8    1     -5.88      0.00
    2    8    0      7.43      0.00
    2    8    1      1.74      0.00
    2    8    2     -7.42      0.00
    2    8    3     -5.50      0.00
    2    8    4      0.84      0.00
    2    8    5     -8.16      0.00
    2    8    6      1.98      0.00
    2    8    7      1.45      0.00
    2    8    8     -2.74      0.00
    2    8    9     -0.52      0.00
    2    8   10      2.85      0.00
    2    8   11      3.00      0.00
    2    8   12     -2.18      0.00
    2    8   13     -0.07      0.00
    2    8   14     -1.53      0.00
    2    8   15      1.27      0.00
    2    8   16      1.05      0.00
   -2   10   17      1.06      0.00
   -2   10   16      1.04      0.00
   -2   10   15      1.02      0.00
   -2   10   14      3.17      0.00
   -2   10   13      0.56      0.00
   -2   10   12     -2.10      0.00
   -2   10   11     -2.28      0.00
   -2   10   10      0.05      0.00
   -2   10    9      1.49      0.00
   -2   10    8      2.00      0.00
   -2   10    7      0.55      0.00
   -2   10    6     -2.99      0.00
   -2   10    5     -3.17      0.00
   -2   10    4      7.53      0.00
   -2   10    3     -1.54      0.00
   -2   10    2     -6.67      0.00
   -2   10    1      7.44      0.00
    2   10    0      7.00      0.00
    2   10    1      8.52      0.00
    2   10    2     -4.99      0.00
    2   10    3     -1.97      0.00
    2   10    4      4.34      0.00
    2   10    5      2.37      0.00
    2   10    6     -3.54      0.00
    2   10    7      0.84      0.00
    2   10    8      3.82      0.00
    2   10    9      0.35      0.00
    2   10   10     -3.81      0.00
    2   10   11     -0.87      0.00
    2   10   12      1.80      0.00
    2   10   13      2.30      0.00
    2   10   14      1.22      0.00
    2   10   15     -1.20      0.00
    2   10   16     -0.64      0.00
   -2   12   16      0.26      0.00
   -2   12   15     -1.63      0.00
   -2   12   14      0.45      0.00
   -2   12   13     -0.26      0.00
   -2   12   12     -1.00      0.00
   -2   12   11      1.75      0.00
   -2   12   10     -4.21      0.00
   -2   12    9      0.48      0.00
   -2   12    8      4.53      0.00
   -2   12    7     -0.21      0.00
   -2   12    6     -3.06      0.00
   -2   12    5      1.39      0.00
   -2   12    4      3.08      0.00
   -2   12    3     -5.49      0.00
   -2   12    2     -3.98      0.00
   -2   12    1      4.60      0.00
    2   12    0      1.18      0.00
    2   12    1      0.17      0.00
    2   12    2      0.01      0.00
    2   12    3     -6.04      0.00
    2   12    4      2.51      0.00
    2   12    5      3.44      0.00
    2   12    6     -2.57      0.00
    2   12    7     -1.12      0.00
    2   12    8      1.12      0.00
    2   12    9      0.30      0.00
    2   12   10     -2.63      0.00
    2   12   11     -1.62      0.00
    2   12   12      1.66      0.00
    2   12   13     -0.59      0.00
    2   12   14      1.49      0.00
    2   12   15      0.64      0.00
   -2   14   15      1.94      0.00
   -2   14   14      0.15      0.00
   -2   14   13     -2.47      0.00
   -2   14   12      0.51      0.00
   -2   14   11      1.43      0.00
   -2   14   10      2.03      0.00
   -2   14    9     -1.12      0.00
   -2   14    8     -1.50      0.00
   -2   14    7      1.01      0.00
   -2   14    6     -0.80      0.00
   -2   14    5     -2.46      0.00
   -2   14    4      0.25      0.00
   -2   14    3      2.17      0.00
   -2   14    2      2.29      0.00
   -2   14    1     -3.43      0.00
    2   14    0     -2.13      0.00
    2   14    1     -0.81      0.00
    2   14    2      0.76      0.00
    2   14    3      3.14      0.00
    2   14    4     -1.01      0.00
    2   14    5     -2.13      0.00
    2   14    6      2.02      0.00
    2   14    7     -0.71      0.00
    2   14    8     -2.72      0.00
    2   14    9      1.46      0.00
    2   14   10      3.92      0.00
    2   14   11     -0.58      0.00
    2   14   12     -1.67      0.00
    2   14   13      0.55      0.00
    2   14   14     -3.14      0.00
   -2   16   14     -1.20      0.00
   -2   16   13     -1.55      0.00
   -2   16   12     -2.15      0.00
   -2   16   11     -0.65      0.00
   -2   16   10      1.63      0.00
   -2   16    9      0.97      0.00
   -2   16    8     -4.02      0.00
   -2   16    7     -1.14      0.00
   -2   16    6      4.96      0.00
   -2   16    5      0.69      0.00
   -2   16    4     -4.80      0.00
   -2   16    3      3.44      0.00
   -2   16    2      4.39      0.00
   -2   16    1     -2.51      0.00
    2   16    0     -2.56      0.00
    2   16    1     -2.77      0.00
    2   16    2      3.37      0.00
    2   16    3      0.44      0.00
    2   16    4     -3.40      0.00
    2   16    5     -0.33      0.00
    2   16    6      1.91      0.00
    2   16    7     -0.08      0.00
    2   16    8     -1.13      0.00
    2   16    9     -0.61      0.00
    2   16   10     -0.47      0.00
    2   16   11      1.98      0.00
    2   16   12     -0.96      0.00
   -2   18   12      2.48      0.00
   -2   18   11      0.90      0.00
   -2   18   10     -0.92      0.00
   -2   18    9      0.08      0.00
   -2   18    8      0.80      0.00
   -2   18    7     -1.57      0.00
   -2   18    6      0.01      0.00
   -2   18    5     -1.00      0.00
   -2   18    4      0.41      0.00
   -2   18    3     -1.34      0.00
   -2   18    2      0.78      0.00
   -2   18    1      1.43      0.00
    2   18    0     -0.62      0.00
    2   18    1      1.93      0.00
    2   18    2      1.18      0.00
    2   18    3     -1.86      0.00
    2   18    4     -0.81      0.00
    2   18    5      0.23      0.00
    2   18    6     -0.05      0.00
    2   18    7      1.53      0.00
    2   18    8      0.91      0.00
    2   18    9      0.03      0.00
    2   18   10     -0.00      0.00
   -2   20    9     -0.21      0.00
   -2   20    8      0.34      0.00
   -2   20    7      2.74      0.00
   -2   20    6     -1.70      0.00
   -2   20    5      1.29      0.00
   -2   20    4      2.58      0.00
   -2   20    3     -0.18      0.00
   -2   20    2     -2.16      0.00
   -2   20    1      1.89      0.00
    2   20    0      1.42      0.00
    2   20    1      2.28      0.00
    2   20    2     -0.23      0.00
    2   20    3      1.33      0.00
    2   20    4      1.76      0.00
    2   20    5     -0.43      0.00
    2   20    6     -1.82      0.00
    2   20    7      0.75      0.00
   -2   22    4     -0.54      0.00
   -2   22    3      0.04      0.00
   -2   22    2     -0.52      0.00
   -2   22    1     -1.17      0.00
    2   22    0     -0.85      0.00
    2   22    1     -1.41      0.00
    2   22    2     -1.39      0.00
    2   22    3      0.29      0.00
   -3    1   20     -0.29      0.00
   -3    1   19      2.73      0.00
   -3    1   18     -0.41      0.00
   -3    1   17     -1.38      0.00
   -3    1   16      2.80      0.00
   -3    1   15      0.10      0.00
   -3    1   14     -1.14      0.00
   -3    1   13      1.56      0.00
   -3    1   12      1.27      0.00
   -3    1   11     -1.18      0.00
   -3    1   10     -3.29      0.00
   -3    1    9     -1.79      0.00
   -3    1    8      1.36      0.00
   -3    1    7      6.62      0.00
   -3    1    6      3.22      0.00
   -3    1    5    -21.62      0.00
   -3    1    4     33.26      0.00
   -3    1    3     -9.03      0.00
   -3    1    2    -66.05      0.00
   -3    1    1     10.44      0.00
    3    1    0     16.76      0.00
    3    1    1    -55.33      0.00
    3    1    2      6.44      0.00
    3    1    3      4.96      0.00
    3    1    4      3.03      0.00
    3    1    5      4.56      0.00
    3    1    6      1.44      0.00
    3    1    7     -4.64      0.00
    3    1    8      0.29      0.00
    3    1    9     -1.34      0.00
    3    1   10     -0.06      0.00
    3    1   11      0.46      0.00
    3    1   12      0.64      0.00
    3    1   13      3.37      0.00
    3    1   14      1.25      0.00
    3    1   15      2.77      0.00
    3    1   16     -1.49      0.00
    3    1   17     -6.23      0.00
   -3    3   19      1.39      0.00
   -3    3   18      1.66      0.00
   -3    3   17      2.55      0.00
   -3    3   16     -0.64      0.00
   -3    3   15     -4.09      0.00
   -3    3   14     -3.42      0.00
   -3    3   13     -0.46      0.00
   -3    3   12      1.55      0.00
   -3    3   11     -0.38      0.00
   -3    3   10      4.75      0.00
   -3    3    9      0.84      0.00
   -3    3    8     -2.74      0.00
   -3    3    7     10.64      0.00
   -3    3    6    -10.14      0.00
   -3    3    5     -2.18      0.00
   -3    3    4    -21.05      0.00
   -3    3    3      2.68      0.00
   -3    3    2     63.83      0.00
   -3    3    1    -42.68      0.00
    3    3    0    -13.22      0.00
    3    3    1    -27.72      0.00
    3    3    2    -14.51      0.00
    3    3    3     19.03      0.00
    3    3    4     -1.46      0.00
    3    3    5     -2.92      0.00
    3    3    6      2.85      0.00
    3    3    7      8.64      0.00
    3    3    8     -2.88      0.00
    3    3    9      1.28      0.00
    3    3   10      0.25      0.00
    3    3   11     -2.46      0.00
    3    3   12     -2.48      0.00
    3    3   13     -2.65      0.00
    3    3   14     -1.32      0.00
    3    3   15     -0.24      0.00
    3    3   16      1.86      0.00
    3    3   17      4.92      0.00
   -3    5   19     -0.61      0.00
   -3    5   18     -1.16      0.00
   -3    5   17     -0.67      0.00
   -3    5   16     -1.42      0.00
   -3    5   15      0.40      0.00
   -3    5   14      1.69      0.00
   -3    5   13      4.30      0.00
   -3    5   12     -0.58      0.00
   -3    5   11     -0.15      0.00
   -3    5   10     -1.35      0.00
   -3    5    9     -3.64      0.00
   -3    5    8      6.63      0.00
   -3    5    7     -4.92      0.00
   -3    5    6      3.13      0.00
   -3    5    5     -2.97      0.00
   -3    5    4    -13.00      0.00
   -3    5    3      4.23      0.00
   -3    5    2     -3.60      0.00
   -3    5    1     20.74      0.00
    3    5    0      0.01      0.00
    3    5    1     17.21      0.00
    3    5    2      1.19      0.00
    3    5    3    -10.23      0.00
    3    5    4     -1.25      0.00
    3    5    5    -10.26      0.00
    3    5    6     -1.55      0.00
    3    5    7      1.57      0.00
    3    5    8      4.06      0.00
    3    5    9     -4.25      0.00
    3    5   10      2.44      0.00
    3    5   11      6.38      0.00
    3    5   12      0.56      0.00
    3    5   13      0.04      0.00
    3    5   14     -1.01      0.00
    3    5   15     -0.48      0.00
    3    5   16      1.57      0.00
    3    5   17     -1.97      0.00
   -3    7   19     -0.61      0.00
   -3    7   18      0.03      0.00
   -3    7   17     -0.51      0.00
   -3    7   16      1.40      0.00
   -3    7   15     -0.53      0.00
   -3    7   14      2.22      0.00
   -3    7   13      0.50      0.00
   -3    7   12     -2.18      0.00
   -3    7   11      2.43      0.00
   -3    7   10     -4.53      0.00
   -3    7    9      0.18      0.00
   -3    7    8     -4.65      0.00
   -3    7    7     -2.65      0.00
   -3    7    6      3.54      0.00
   -3    7    5     10.31      0.00
   -3    7    4     10.79      0.00
   -3    7    3    -15.10      0.00
   -3    7    2     -3.69      0.00
   -3    7    1      8.65      0.00
    3    7    0      1.94      0.00
    3    7    1     11.96      0.00
    3    7    2     10.44      0.00
    3    7    3     -5.17      0.00
    3    7    4      1.57      0.00
    3    7    5      7.46      0.00
    3    7    6     -8.84      0.00
    3    7    7      0.40      0.00
    3    7    8     -1.33      0.00
    3    7    9     -0.88      0.00
    3    7   10     -2.16      0.00
    3    7   11      0.70      0.00
    3    7   12     -0.52      0.00
    3    7   13      1.26      0.00
    3    7   14      1.27      0.00
    3    7   15     -4.38      0.00
    3    7   16      0.63      0.00
   -3    9   18      2.60      0.00
   -3    9   17      0.98      0.00
   -3    9   16     -0.93      0.00
   -3    9   15     -0.21      0.00
   -3    9   14     -1.42      0.00
   -3    9   13     -3.66      0.00
   -3    9   12      0.60      0.00
   -3    9   11     -2.64      0.00
   -3    9   10      4.27      0.00
   -3    9    9      4.94      0.00
   -3    9    8     -1.67      0.00
   -3    9    7     -3.56      0.00
   -3    9    6     -3.64      0.00
   -3    9    5      4.78      0.00
   -3    9    4     -2.17      0.00
   -3    9    3     -3.53      0.00
   -3    9    2      5.76      0.00
   -3    9    1      6.35      0.00
    3    9    0     -8.49      0.00
    3    9    1      0.98      0.00
    3    9    2      0.30      0.00
    3    9    3     -0.10      0.00
    3    9    4     -4.98      0.00
    3    9    5      5.16      0.00
    3    9    6      2.98      0.00
    3    9    7     -7.92      0.00
    3    9    8      2.34      0.00
    3    9    9      3.94      0.00
    3    9   10      0.73      0.00
    3    9   11     -3.00      0.00
    3    9   12     -1.92      0.00
    3    9   13     -1.22      0.00
    3    9   14      1.95      0.00
    3    9   15      3.27      0.00
    3    9   16     -1.01      0.00
   -3   11   17      1.12      0.00
   -3   11   16     -1.22      0.00
   -3   11   15     -0.71      0.00
   -3   11   14      0.38      0.00
   -3   11   13      1.42      0.00
   -3   11   12      1.36      0.00
   -3   11   11     -1.47      0.00
   -3   11   10     -0.89      0.00
   -3   11    9      1.89      0.00
   -3   11    8      1.34      0.00
   -3   11    7     -0.56      0.00
   -3   11    6      0.82      0.00
   -3   11    5      0.65      0.00
   -3   11    4     -2.23      0.00
   -3   11    3     -0.27      0.00
   -3   11    2      2.02      0.00
   -3   11    1     -4.79      0.00
    3   11    0      4.74      0.00
    3   11    1     -4.36      0.00
    3   11    2     -0.12      0.00
    3   11    3      1.59      0.00
    3   11    4     -2.12      0.00
    3   11    5      0.12      0.00
    3   11    6      2.46      0.00
    3   11    7      1.45      0.00
    3   11    8     -0.50      0.00
    3   11    9     -0.11      0.00
    3   11   10     -0.51      0.00
    3   11   11      0.33      0.00
    3   11   12      1.88      0.00
    3   11   13     -1.04      0.00
    3   11   14     -2.14      0.00
    3   11   15     -0.90      0.00
   -3   13   16      1.61      0.00
   -3   13   15      1.14      0.00
   -3   13   14     -3.19      0.00
   -3   13   13     -0.49      0.00
   -3   13   12      1.69      0.00
   -3   13   11      1.59      0.00
   -3   13   10     -1.36      0.00
   -3   13    9     -3.60      0.00
   -3   13    8      0.22      0.00
   -3   13    7      2.68      0.00
   -3   13    6     -1.47      0.00
   -3   13    5     -0.57      0.00
   -3   13    4      3.64      0.00
   -3   13    3      4.39      0.00
   -3   13    2     -6.15      0.00
   -3   13    1     -4.45      0.00
    3   13    0      2.82      0.00
    3   13    1     -1.79      0.00
    3   13    2     -4.78      0.00
    3   13    3      3.81      0.00
    3   13    4      3.69      0.00
    3   13    5     -4.98      0.00
    3   13    6      0.23      0.00
    3   13    7      3.73      0.00
    3   13    8     -1.70      0.00
    3   13    9     -4.52      0.00
    3   13   10     -0.85      0.00
    3   13   11      3.13      0.00
    3   13   12      1.06      0.00
    3   13   13      0.58      0.00
    3   13   14     -0.98      0.00
   -3   15   15     -0.68      0.00
   -3   15   14     -0.04      0.00
   -3   15   13     -0.09      0.00
   -3   15   12     -0.46      0.00
   -3   15   11      0.59      0.00
   -3   15   10      2.18      0.00
   -3   15    9     -0.33      0.00
   -3   15    8     -0.91      0.00
   -3   15    7      2.17      0.00
   -3   15    6      2.45      0.00
   -3   15    5     -4.00      0.00
   -3   15    4     -0.06      0.00
   -3   15    3      2.74      0.00
   -3   15    2     -1.45      0.00
   -3   15    1     -1.35      0.00
    3   15    0      0.60      0.00
    3   15    1     -2.03      0.00
    3   15    2      0.40      0.00
    3   15    3      2.59      0.00
    3   15    4      0.52      0.00
    3   15    5     -0.62      0.00
    3   15    6     -1.30      0.00
    3   15    7     -0.47      0.00
    3   15    8      2.19      0.00
    3   15    9      1.70      0.00
    3   15   10     -1.39      0.00
    3   15   11      0.08      0.00
    3   15   12      1.99      0.00
   -3   17   13      2.77      0.00
   -3   17   12     -0.41      0.00
   -3   17   11     -1.95      0.00
   -3   17   10      0.33      0.00
   -3   17    9      2.11      0.00
   -3   17    8     -1.45      0.00
   -3   17    7     -2.60      0.00
   -3   17    6     -1.70      0.00
   -3   17    5      3.54      0.00
   -3   17    4     -1.94      0.00
   -3   17    3     -3.33      0.00
   -3   17    2      3.01      0.00
   -3   17    1      1.69      0.00
    3   17    0     -1.35      0.00
    3   17    1      0.09      0.00
    3   17    2      0.55      0.00
    3   17    3     -0.92      0.00
    3   17    4     -0.70      0.00
    3   17    5      1.76      0.00
    3   17    6     -1.25      0.00
    3   17    7     -0.94      0.00
    3   17    8      1.85      0.00
    3   17    9     -1.45      0.00
    3   17   10     -0.32      0.00
    3   17   11     -1.20      0.00
   -3   19   11     -1.31      0.00
   -3   19   10     -0.20      0.00
   -3   19    9     -0.72      0.00
   -3   19    8      2.09      0.00
   -3   19    7     -0.62      0.00
   -3   19    6      0.88      0.00
   -3   19    5      1.51      0.00
   -3   19    4     -1.01      0.00
   -3   19    3     -2.13      0.00
   -3   19    2      0.37      0.00
   -3   19    1      1.88      0.00
    3   19    0     -1.89      0.00
    3   19    1      1.95      0.00
    3   19    2     -1.84      0.00
    3   19    3     -1.97      0.00
    3   19    4      2.12      0.00
    3   19    5      1.59      0.00
    3   19    6      0.32      0.00
    3   19    7     -0.52      0.00
    3   19    8      0.13      0.00
   -3   21    7     -0.14      0.00
   -3   21    6     -0.87      0.00
   -3   21    5     -1.05      0.00
   -3   21    4      0.59      0.00
   -3   21    3      0.22      0.00
   -3   21    2     -1.42      0.00
   -3   21    1     -0.12      0.00
    3   21    0      3.78      0.00
    3   21    1      0.04      0.00
    3   21    2     -0.46      0.00
    3   21    3     -2.01      0.00
    3   21    4     -1.22      0.00
    3   21    5     -1.55      0.00
   -4    0   20      0.41      0.00
   -4    0   18     -4.76      0.00
   -4    0   16     -4.09      0.00
   -4    0   14     -2.20      0.00
   -4    0   12     -2.95      0.00
   -4    0   10     -4.12      0.00
   -4    0    8     -8.00      0.00
   -4    0    6    -24.01      0.00
   -4    0    4     -0.54      0.00
   -4    0    2     69.35      0.00
    4    0    0     46.84      0.00
    4    0    2    -46.24      0.00
    4    0    4      1.75      0.00
    4    0    6      1.78      0.00
    4    0    8     -4.49      0.00
    4    0   10     -6.62      0.00
    4    0   12     -3.79      0.00
    4    0   14     -2.96      0.00
    4    0   16      5.64      0.00
   -4    2   20      1.60      0.00
   -4    2   19      3.01      0.00
   -4    2   18      3.35      0.00
   -4    2   17     -4.43      0.00
   -4    2   16     -0.15      0.00
   -4    2   15      1.19      0.00
   -4    2   14      4.78      0.00
   -4    2   13      3.59      0.00
   -4    2   12      2.04      0.00
   -4    2   11     -0.41      0.00
   -4    2   10      4.23      0.00
   -4    2    9     -6.70      0.00
   -4    2    8      6.03      0.00
   -4    2    7      3.42      0.00
   -4    2    6     12.09      0.00
   -4    2    5    -10.14      0.00
   -4    2    4     -3.82      0.00
   -4    2    3     77.69      0.00
   -4    2    2    -48.51      0.00
   -4    2    1    -53.10      0.00
    4    2    0     -8.77      0.00
    4    2    1     23.00      0.00
    4    2    2      0.32      0.00
    4    2    3    -10.16      0.00
    4    2    4      7.72      0.00
    4    2    5     -2.03      0.00
    4    2    6     -5.25      0.00
    4    2    7      2.46      0.00
    4    2    8      4.57      0.00
    4    2    9      0.01      0.00
    4    2   10      4.85      0.00
    4    2   11     -0.53      0.00
    4    2   12      4.25      0.00
    4    2   13     -0.67      0.00
    4    2   14      0.95      0.00
    4    2   15     -3.57      0.00
    4    2   16     -2.86      0.00
   -4    4   20     -2.80      0.00
   -4    4   19     -1.26      0.00
   -4    4   18     -1.93      0.00
   -4    4   17      1.11      0.00
   -4    4   16      1.30      0.00
   -4    4   15      1.41      0.00
   -4    4   14     -1.51      0.00
   -4    4   13     -3.20      0.00
   -4    4   12     -4.99      0.00
   -4    4   11     -1.07      0.00
   -4    4   10     -3.13      0.00
   -4    4    9      4.99      0.00
   -4    4    8     -4.29      0.00
   -4    4    7      4.65      0.00
   -4    4    6      1.71      0.00
   -4    4    5    -16.15      0.00
   -4    4    4      2.13      0.00
   -4    4    3    -20.41      0.00
   -4    4    2     24.62      0.00
   -4    4    1     12.78      0.00
    4    4    0    -20.47      0.00
    4    4    1    -12.42      0.00
    4    4    2     30.76      0.00
    4    4    3     -0.54      0.00
    4    4    4     -2.58      0.00
    4    4    5      2.59      0.00
    4    4    6     -4.12      0.00
    4    4    7     -3.82      0.00
    4    4    8     -1.69      0.00
    4    4    9     -2.07      0.00
    4    4   10     -4.49      0.00
    4    4   11      0.26      0.00
    4    4   12     -0.58      0.00
    4    4   13      1.81      0.00
    4    4   14      0.36      0.00
    4    4   15      0.47      0.00
    4    4   16     -1.29      0.00
   -4    6   19      0.53      0.00
   -4    6   18     -0.03      0.00
   -4    6   17      0.69      0.00
   -4    6   16      1.37      0.00
   -4    6   15     -1.78      0.00
   -4    6   14      0.42      0.00
   -4    6   13     -1.69      0.00
   -4    6   12      3.65      0.00
   -4    6   11      2.30      0.00
   -4    6   10      2.81      0.00
   -4    6    9     -4.44      0.00
   -4    6    8     -0.00      0.00
   -4    6    7      2.30      0.00
   -4    6    6      3.95      0.00
   -4    6    5     16.67      0.00
   -4    6    4    -10.97      0.00
   -4    6    3     -5.27      0.00
   -4    6    2      0.27      0.00
   -4    6    1      3.83      0.00
    4    6    0     -9.90      0.00
    4    6    1     -3.16      0.00
    4    6    2      0.16      0.00
    4    6    3      7.80      0.00
    4    6    4    -10.25      0.00
    4    6    5      8.23      0.00
    4    6    6      9.46      0.00
    4    6    7     -1.84      0.00
    4    6    8      0.52      0.00
    4    6    9     -0.19      0.00
    4    6   10      1.54      0.00
    4    6   11     -0.25      0.00
    4    6   12     -0.66      0.00
    4    6   13     -1.63      0.00
    4    6   14      3.10      0.00
    4    6   15      0.24      0.00
    4    6   16     -2.49      0.00
   -4    8   19      0.04      0.00
   -4    8   18     -1.09      0.00
   -4    8   17     -0.94      0.00
   -4    8   16     -2.26      0.00
   -4    8   15      1.36      0.00
   -4    8   14     -2.27      0.00
   -4    8   13      1.67      0.00
   -4    8   12     -1.10      0.00
   -4    8   11      1.69      0.00
   -4    8   10      3.71      0.00
   -4    8    9     -1.29      0.00
   -4    8    8     -3.03      0.00
   -4    8    7     -5.33      0.00
   -4    8    6      0.36      0.00
   -4    8    5     -3.76      0.00
   -4    8    4      3.68      0.00
   -4    8    3      2.87      0.00
   -4    8    2      0.04      0.00
   -4    8    1     -7.71      0.00
    4    8    0      5.49      0.00
    4    8    1     -1.18      0.00
    4    8    2     -4.41      0.00
    4    8    3     -1.32      0.00
    4    8    4      1.88      0.00
    4    8    5     -7.81      0.00
    4    8    6      6.22      0.00
    4    8    7     -0.25      0.00
    4    8    8     -4.96      0.00
    4    8    9      2.58      0.00
    4    8   10      1.56      0.00
    4    8   11     -0.01      0.00
    4    8   12     -0.36      0.00
    4    8   13      0.44      0.00
    4    8   14     -4.56      0.00
    4    8   15      0.66      0.00
   -4   10   18      1.34      0.00
   -4   10   17      0.77      0.00
   -4   10   16      1.58      0.00
   -4   10   15      0.61      0.00
   -4   10   14      1.54      0.00
   -4   10   13     -0.16      0.00
   -4   10   12     -0.51      0.00
   -4   10   11     -2.12      0.00
   -4   10   10     -0.96      0.00
   -4   10    9      3.50      0.00
   -4   10    8      1.58      0.00
   -4   10    7      0.28      0.00
   -4   10    6     -1.55      0.00
   -4   10    5     -0.81      0.00
   -4   10    4     -0.06      0.00
   -4   10    3      0.42      0.00
   -4   10    2     -8.49      0.00
   -4   10    1      6.19      0.00
    4   10    0      8.30      0.00
    4   10    1      3.83      0.00
    4   10    2     -3.05      0.00
    4   10    3     -1.43      0.00
    4   10    4      2.35      0.00
    4   10    5     -0.87      0.00
    4   10    6     -5.35      0.00
    4   10    7      2.55      0.00
    4   10    8      2.68      0.00
    4   10    9      0.74      0.00
    4   10   10     -0.63      0.00
    4   10   11     -3.22      0.00
    4   10   12      2.06      0.00
    4   10   13      2.41      0.00
    4   10   14      0.95      0.00
    4   10   15     -0.63      0.00
   -4   12   17      0.66      0.00
   -4   12   16      2.75      0.00
   -4   12   15     -2.56      0.00
   -4   12   14     -1.62      0.00
   -4   12   13      2.33      0.00
   -4   12   12      0.75      0.00
   -4   12   11     -0.19      0.00
   -4   12   10     -1.56      0.00
   -4   12    9     -1.81      0.00
   -4   12    8      2.58      0.00
   -4   12    7     -0.25      0.00
   -4   12    6     -1.32      0.00
   -4   12    5      0.87      0.00
   -4   12    4      4.75      0.00
   -4   12    3     -3.69      0.00
   -4   12    2     -2.99      0.00
   -4   12    1      2.21      0.00
    4   12    0      0.39      0.00
    4   12    1      2.40      0.00
    4   12    2     -2.48      0.00
    4   12    3     -4.07      0.00
    4   12    4      4.88      0.00
    4   12    5      1.00      0.00
    4   12    6     -3.00      0.00
    4   12    7      2.65      0.00
    4   12    8      1.84      0.00
    4   12    9     -1.25      0.00
    4   12   10     -1.16      0.00
    4   12   11      0.08      0.00
    4   12   12     -0.86      0.00
    4   12   13      0.78      0.00
    4   12   14     -0.22      0.00
   -4   14   16     -1.06      0.00
   -4   14   15      1.57      0.00
   -4   14   14      1.35      0.00
   -4   14   13     -2.74      0.00
   -4   14   12     -0.52      0.00
   -4   14   11      3.21      0.00
   -4   14   10     -0.34      0.00
   -4   14    9     -2.65      0.00
   -4   14    8     -1.86      0.00
   -4   14    7      2.49      0.00
   -4   14    6     -1.62      0.00
   -4   14    5     -3.01      0.00
   -4   14    4      1.20      0.00
   -4   14    3      2.33      0.00
   -4   14    2      1.32      0.00
   -4   14    1     -2.05      0.00
    4   14    0     -0.19      0.00
    4   14    1     -2.34      0.00
    4   14    2      1.21      0.00
    4   14    3      0.10      0.00
    4   14    4     -2.98      0.00
    4   14    5      1.42      0.00
    4   14    6      2.35      0.00
    4   14    7     -3.22      0.00
    4   14    8     -3.01      0.00
    4   14    9      0.52      0.00
    4   14   10      1.62      0.00
    4   14   11      0.35      0.00
    4   14   12     -0.74      0.00
   -4   16   14      1.07      0.00
   -4   16   13     -1.13      0.00
   -4   16   12     -1.77      0.00
   -4   16   11     -0.43      0.00
   -4   16   10      0.62      0.00
   -4   16    9     -0.22      0.00
   -4   16    8     -0.09      0.00
   -4   16    7     -1.61      0.00
   -4   16    6      4.02      0.00
   -4   16    5      0.43      0.00
   -4   16    4     -4.20      0.00
   -4   16    3      3.26      0.00
   -4   16    2      3.43      0.00
   -4   16    1     -0.93      0.00
    4   16    0     -1.52      0.00
    4   16    1      0.71      0.00
    4   16    2      2.43      0.00
    4   16    3      1.22      0.00
    4   16    4     -3.06      0.00
    4   16    5     -0.63      0.00
    4   16    6      1.72      0.00
    4   16    7      0.40      0.00
    4   16    8      0.52      0.00
    4   16    9      0.04      0.00
    4   16   10      0.99      0.00
    4   16   11      0.62      0.00
   -4   18   12     -0.31      0.00
   -4   18   11     -0.95      0.00
   -4   18   10     -0.80      0.00
   -4   18    9      2.19      0.00
   -4   18    8      0.95      0.00
   -4   18    7      0.99      0.00
   -4   18    6     -0.78      0.00
   -4   18    5     -0.52      0.00
   -4   18    4      0.40      0.00
   -4   18    3     -1.50      0.00
   -4   18    2      0.51      0.00
   -4   18    1     -0.20      0.00
    4   18    0     -2.49      0.00
    4   18    1      0.35      0.00
    4   18    2      2.05      0.00
    4   18    3     -1.54      0.00
    4   18    4      0.15      0.00
    4   18    5     -0.83      0.00
    4   18    6     -0.27      0.00
    4   18    7      2.47      0.00
    4   18    8     -3.76      0.00
    4   18    9     -1.83      0.00
   -4   20    9      0.25      0.00
   -4   20    8      0.08      0.00
   -4   20    7     -1.15      0.00
   -4   20    6     -0.56      0.00
   -4   20    5      0.86      0.00
   -4   20    4      0.78      0.00
   -4   20    3     -0.60      0.00
   -4   20    2      0.12      0.00
   -4   20    1      2.20      0.00
    4   20    0      0.90      0.00
    4   20    1      0.24      0.00
    4   20    2      0.57      0.00
    4   20    3      2.71      0.00
    4   20    4      0.24      0.00
    4   20    5     -1.77      0.00
    4   20    6     -0.91      0.00
   -4   22    4      0.55      0.00
   -4   22    3      0.15      0.00
   -4   22    2     -1.71      0.00
   -4   22    1     -1.46      0.00
    4   22    0      0.01      0.00
   -5    1   20      3.42      0.00
   -5    1   19      4.56      0.00
   -5    1   18     -2.75      0.00
   -5    1   17      1.85      0.00
   -5    1   16      1.43      0.00
   -5    1   15      3.96      0.00
   -5    1   14      3.24      0.00
   -5    1   13      0.61      0.00
   -5    1   12     -3.34      0.00
   -5    1   11      4.78      0.00
   -5    1   10     -1.00      0.00
   -5    1    9      3.77      0.00
   -5    1    8      9.26      0.00
   -5    1    7      3.06      0.00
   -5    1    6     -2.84      0.00
   -5    1    5    -24.19      0.00
   -5    1    4     20.41      0.00
   -5    1    3    -43.46      0.00
   -5    1    2    -38.04      0.00
   -5    1    1     -1.98      0.00
    5    1    0     -2.45      0.00
    5    1    1    -39.91      0.00
    5    1    2     14.27      0.00
    5    1    3      6.31      0.00
    5    1    4     -0.67      0.00
    5    1    5      0.58      0.00
    5    1    6     -1.05      0.00
    5    1    7     -5.47      0.00
    5    1    8      0.81      0.00
    5    1    9     -5.44      0.00
    5    1   10      2.79      0.00
    5    1   11      0.97      0.00
    5    1   12     -0.30      0.00
    5    1   13      1.70      0.00
    5    1   14      0.99      0.00
    5    1   15      3.45      0.00
    5    1   16     -2.19      0.00
   -5    3   20     -3.80      0.00
   -5    3   19     -2.49      0.00
   -5    3   18      3.47      0.00
   -5    3   17     -0.31      0.00
   -5    3   16     -2.53      0.00
   -5    3   15     -4.10      0.00
   -5    3   14     -3.77      0.00
   -5    3   13     -2.53      0.00
   -5    3   12      3.44      0.00
   -5    3   11     -0.96      0.00
   -5    3   10      1.42      0.00
   -5    3    9      0.79      0.00
   -5    3    8     -8.74      0.00
   -5    3    7     -0.37      0.00
   -5    3    6     -5.66      0.00
   -5    3    5     -0.49      0.00
   -5    3    4    -17.03      0.00
   -5    3    3     33.89      0.00
   -5    3    2     33.71      0.00
   -5    3    1    -11.06      0.00
    5    3    0      8.22      0.00
    5    3    1    -19.94      0.00
    5    3    2    -10.97      0.00
    5    3    3     17.12      0.00
    5    3    4     -2.20      0.00
    5    3    5      1.39      0.00
    5    3    6      2.47      0.00
    5    3    7      4.04      0.00
    5    3    8      0.72      0.00
    5    3    9      1.23      0.00
    5    3   10     -4.37      0.00
    5    3   11      2.08      0.00
    5    3   12     -2.13      0.00
    5    3   13     -1.02      0.00
    5    3   14      0.18      0.00
    5    3   15      0.96      0.00
    5    3   16      0.75      0.00
   -5    5   20     -0.18      0.00
   -5    5   19      0.19      0.00
   -5    5   18      0.93      0.00
   -5    5   17      1.44      0.00
   -5    5   16     -0.34      0.00
   -5    5   15      1.89      0.00
   -5    5   14      0.58      0.00
   -5    5   13      3.67      0.00
   -5    5   12      3.11      0.00
   -5    5   11     -1.49      0.00
   -5    5   10     -2.58      0.00
   -5    5    9     -2.38      0.00
   -5    5    8     -0.81      0.00
   -5    5    7      1.26      0.00
   -5    5    6     16.20      0.00
   -5    5    5     -1.39      0.00
   -5    5    4     -5.41      0.00
   -5    5    3    -12.68      0.00
   -5    5    2     -0.09      0.00
   -5    5    1     -2.45      0.00
    5    5    0     -5.54      0.00
    5    5    1      8.30      0.00
    5    5    2     -6.69      0.00
    5    5    3     -2.97      0.00
    5    5    4     -2.21      0.00
    5    5    5    -11.54      0.00
    5    5    6      4.08      0.00
    5    5    7      1.26      0.00
    5    5    8      0.21      0.00
    5    5    9      1.74      0.00
    5    5   10      0.61      0.00
    5    5   11      0.55      0.00
    5    5   12      1.61      0.00
    5    5   13     -2.68      0.00
    5    5   14      0.47      0.00
    5    5   15      0.18      0.00
   -5    7   19      0.73      0.00
   -5    7   18      0.89      0.00
   -5    7   17     -2.93      0.00
   -5    7   16      1.91      0.00
   -5    7   15     -0.37      0.00
   -5    7   14     -0.82      0.00
   -5    7   13     -0.47      0.00
   -5    7   12     -3.54      0.00
   -5    7   11      2.35      0.00
   -5    7   10      2.18      0.00
   -5    7    9     -2.93      0.00
   -5    7    8     -3.43      0.00
   -5    7    7      0.49      0.00
   -5    7    6     -5.66      0.00
   -5    7    5      6.88      0.00
   -5    7    4      4.49      0.00
   -5    7    3     -3.19      0.00
   -5    7    2     -4.00      0.00
   -5    7    1     12.08      0.00
    5    7    0      5.77      0.00
    5    7    1      8.13      0.00
    5    7    2      4.10      0.00
    5    7    3     -4.47      0.00
    5    7    4      1.92      0.00
    5    7    5      3.13      0.00
    5    7    6     -3.85      0.00
    5    7    7      2.01      0.00
    5    7    8     -3.87      0.00
    5    7    9     -0.74      0.00
    5    7   10      1.55      0.00
    5    7   11      0.09      0.00
    5    7   12     -0.16      0.00
    5    7   13      2.66      0.00
    5    7   14     -0.80      0.00
    5    7   15     -3.63      0.00
   -5    9   19      1.31      0.00
   -5    9   18     -0.62      0.00
   -5    9   17      1.13      0.00
   -5    9   16      0.08      0.00
   -5    9   15      0.00      0.00
   -5    9   14     -0.83      0.00
   -5    9   13     -1.48      0.00
   -5    9   12     -0.69      0.00
   -5    9   11     -1.23      0.00
   -5    9   10      2.17      0.00
   -5    9    9      3.54      0.00
   -5    9    8      0.72      0.00
   -5    9    7     -2.26      0.00
   -5    9    6      0.18      0.00
   -5    9    5     -2.06      0.00
   -5    9    4      0.96      0.00
   -5    9    3     -4.19      0.00
   -5    9    2      3.89      0.00
   -5    9    1      5.98      0.00
    5    9    0     -6.18      0.00
    5    9    1      4.25      0.00
    5    9    2      1.44      0.00
    5    9    3     -0.71      0.00
    5    9    4      0.02      0.00
    5    9    5      4.06      0.00
    5    9    6     -1.66      0.00
    5    9    7     -5.72      0.00
    5    9    8      2.25      0.00
    5    9    9      0.72      0.00
    5    9   10      1.18      0.00
    5    9   11     -2.25      0.00
    5    9   12     -0.62      0.00
    5    9   13      0.62      0.00
    5    9   14      0.09      0.00
   -5   11   18     -1.44      0.00
   -5   11   17      1.95      0.00
   -5   11   16     -0.30      0.00
   -5   11   15     -1.50      0.00
   -5   11   14      1.94      0.00
   -5   11   13      1.47      0.00
   -5   11   12      0.67      0.00
   -5   11   11     -1.49      0.00
   -5   11   10     -3.09      0.00
   -5   11    9      2.27      0.00
   -5   11    8      1.06      0.00
   -5   11    7     -0.44      0.00
   -5   11    6     -0.12      0.00
   -5   11    5      4.68      0.00
   -5   11    4     -0.25      0.00
   -5   11    3     -1.14      0.00
   -5   11    2     -0.39      0.00
   -5   11    1     -3.69      0.00
    5   11    0      0.07      0.00
    5   11    1     -1.07      0.00
    5   11    2      1.29      0.00
    5   11    3     -1.68      0.00
    5   11    4     -0.87      0.00
    5   11    5      0.68      0.00
    5   11    6     -1.54      0.00
    5   11    7      1.30      0.00
    5   11    8      1.35      0.00
    5   11    9      0.03      0.00
    5   11   10     -2.56      0.00
    5   11   11      1.72      0.00
    5   11   12      0.25      0.00
    5   11   13     -0.94      0.00
   -5   13   17     -2.16      0.00
   -5   13   16      0.04      0.00
   -5   13   15      0.80      0.00
   -5   13   14     -3.82      0.00
   -5   13   13     -1.23      0.00
   -5   13   12      2.67      0.00
   -5   13   11     -0.81      0.00
   -5   13   10     -0.83      0.00
   -5   13    9     -0.97      0.00
   -5   13    8      1.65      0.00
   -5   13    7      1.20      0.00
   -5   13    6     -2.20      0.00
   -5   13    5     -1.35      0.00
   -5   13    4      1.99      0.00
   -5   13    3      2.87      0.00
   -5   13    2     -3.11      0.00
   -5   13    1     -2.51      0.00
    5   13    0      3.47      0.00
    5   13    1     -3.41      0.00
    5   13    2     -1.99      0.00
    5   13    3      5.68      0.00
    5   13    4     -0.21      0.00
    5   13    5     -3.19      0.00
    5   13    6      4.30      0.00
    5   13    7      1.89      0.00
    5   13    8     -2.17      0.00
    5   13    9     -1.71      0.00
    5   13   10      0.05      0.00
    5   13   11      0.44      0.00
    5   13   12      0.37      0.00
   -5   15   15      1.19      0.00
   -5   15   14      1.50      0.00
   -5   15   13     -0.16      0.00
   -5   15   12     -0.97      0.00
   -5   15   11      1.70      0.00
   -5   15   10      3.10      0.00
   -5   15    9      1.90      0.00
   -5   15    8     -2.99      0.00
   -5   15    7      0.80      0.00
   -5   15    6      2.46      0.00
   -5   15    5     -3.79      0.00
   -5   15    4     -0.55      0.00
   -5   15    3      2.51      0.00
   -5   15    2     -0.15      0.00
   -5   15    1     -1.47      0.00
    5   15    0     -1.69      0.00
    5   15    1     -0.85      0.00
    5   15    2     -1.57      0.00
    5   15    3      0.69      0.00
    5   15    4      1.56      0.00
    5   15    5     -0.59      0.00
    5   15    6     -1.41      0.00
    5   15    7     -0.36      0.00
    5   15    8      1.11      0.00
    5   15    9     -0.27      0.00
    5   15   10      0.71      0.00
    5   15   11      0.92      0.00
   -5   17   13      0.42      0.00
   -5   17   12     -1.29      0.00
   -5   17   11      0.03      0.00
   -5   17   10      1.40      0.00
   -5   17    9     -1.63      0.00
   -5   17    8     -0.44      0.00
   -5   17    7     -1.27      0.00
   -5   17    6     -0.88      0.00
   -5   17    5      1.77      0.00
   -5   17    4     -1.35      0.00
   -5   17    3     -2.13      0.00
   -5   17    2      0.90      0.00
   -5   17    1      0.09      0.00
    5   17    0      0.59      0.00
    5   17    1     -0.25      0.00
    5   17    2      0.58      0.00
    5   17    3     -2.28      0.00
    5   17    4     -0.00      0.00
    5   17    5      2.01      0.00
    5   17    6     -0.71      0.00
    5   17    7      1.35      0.00
    5   17    8      1.05      0.00
    5   17    9     -1.83      0.00
   -5   19   11     -0.05      0.00
   -5   19   10     -1.03      0.00
   -5   19    9     -0.37      0.00
   -5   19    8     -1.63      0.00
   -5   19    7      0.42      0.00
   -5   19    6      0.13      0.00
   -5   19    5      0.90      0.00
   -5   19    4      0.39      0.00
   -5   19    3     -0.49      0.00
   -5   19    2      0.01      0.00
   -5   19    1      2.38      0.00
    5   19    0      0.41      0.00
    5   19    1      1.84      0.00
    5   19    2     -1.29      0.00
    5   19    3     -0.23      0.00
    5   19    4      0.36      0.00
    5   19    5     -0.45      0.00
    5   19    6      1.04      0.00
    5   19    7     -2.41      0.00
   -5   21    7      0.16      0.00
   -5   21    6      0.87      0.00
   -5   21    5      1.10      0.00
   -5   21    4     -0.12      0.00
   -5   21    3     -3.04      0.00
   -5   21    2     -0.56      0.00
   -5   21    1      2.11      0.00
    5   21    0      0.18      0.00
    5   21    1      2.02      0.00
    5   21    2      0.31      0.00
    5   21    3     -2.12      0.00
   -6    0   20      2.07      0.00
   -6    0   18     -2.29      0.00
   -6    0   16      3.51      0.00
   -6    0   14     -2.17      0.00
   -6    0   12      2.17      0.00
   -6    0   10     -7.05      0.00
   -6    0    8     -2.21      0.00
   -6    0    6    -26.33      0.00
   -6    0    4     11.38      0.00
   -6    0    2      2.85      0.00
    6    0    0     24.60      0.00
    6    0    2    -19.89      0.00
    6    0    4      3.40      0.00
    6    0    6      0.00      0.00
    6    0    8      0.85      0.00
    6    0   10     -6.43      0.00
    6    0   12     -1.55      0.00
    6    0   14     -0.47      0.00
   -6    2   20     -0.80      0.00
   -6    2   19      4.75      0.00
   -6    2   18      0.03      0.00
   -6    2   17     -1.94      0.00
   -6    2   16     -1.36      0.00
   -6    2   15     -3.82      0.00
   -6    2   14      0.14      0.00
   -6    2   13      5.66      0.00
   -6    2   12      0.67      0.00
   -6    2   11     -4.04      0.00
   -6    2   10      4.64      0.00
   -6    2    9     -7.57      0.00
   -6    2    8      2.63      0.00
   -6    2    7      7.74      0.00
   -6    2    6      3.51      0.00
   -6    2    5      7.31      0.00
   -6    2    4     16.71      0.00
   -6    2    3     12.11      0.00
   -6    2    2     -9.39      0.00
   -6    2    1    -13.57      0.00
    6    2    0     -2.09      0.00
    6    2    1      7.14      0.00
    6    2    2     -4.72      0.00
    6    2    3     -3.20      0.00
    6    2    4      2.51      0.00
    6    2    5     -0.05      0.00
    6    2    6     -2.04      0.00
    6    2    7      0.52      0.00
    6    2    8      0.96      0.00
    6    2    9      3.73      0.00
    6    2   10      1.56      0.00
    6    2   11     -2.70      0.00
    6    2   12      2.64      0.00
    6    2   13     -2.15      0.00
    6    2   14     -0.19      0.00
    6    2   15     -0.06      0.00
   -6    4   20      0.44      0.00
   -6    4   19     -0.75      0.00
   -6    4   18     -0.62      0.00
   -6    4   17      1.85      0.00
   -6    4   16      1.63      0.00
   -6    4   15     -0.70      0.00
   -6    4   14     -0.50      0.00
   -6    4   13      0.81      0.00
   -6    4   12     -3.58      0.00
   -6    4   11      0.89      0.00
   -6    4   10     -2.28      0.00
   -6    4    9      1.84      0.00
   -6    4    8      1.91      0.00
   -6    4    7      1.21      0.00
   -6    4    6      8.52      0.00
   -6    4    5     -6.94      0.00
   -6    4    4    -27.60      0.00
   -6    4    3     -0.42      0.00
   -6    4    2      7.59      0.00
   -6    4    1     -1.87      0.00
    6    4    0     -6.06      0.00
    6    4    1     -0.65      0.00
    6    4    2     14.44      0.00
    6    4    3      1.62      0.00
    6    4    4     -0.56      0.00
    6    4    5     -4.21      0.00
    6    4    6     -2.35      0.00
    6    4    7     -0.02      0.00
    6    4    8     -3.67      0.00
    6    4    9     -2.09      0.00
    6    4   10      2.39      0.00
    6    4   11     -0.57      0.00
    6    4   12      1.09      0.00
    6    4   13      1.45      0.00
    6    4   14     -1.09      0.00
    6    4   15     -0.52      0.00
   -6    6   20      1.86      0.00
   -6    6   19     -1.54      0.00
   -6    6   18     -2.64      0.00
   -6    6   17      1.80      0.00
   -6    6   16      1.15      0.00
   -6    6   15     -2.35      0.00
   -6    6   14      0.41      0.00
   -6    6   13     -2.32      0.00
   -6    6   12      3.53      0.00
   -6    6   11      3.72      0.00
   -6    6   10     -1.59      0.00
   -6    6    9      0.78      0.00
   -6    6    8     -1.31      0.00
   -6    6    7     -4.76      0.00
   -6    6    6      2.55      0.00
   -6    6    5      6.44      0.00
   -6    6    4      1.88      0.00
   -6    6    3     -4.66      0.00
   -6    6    2      8.91      0.00
   -6    6    1      6.71      0.00
    6    6    0     -9.33      0.00
    6    6    1      1.02      0.00
    6    6    2      0.50      0.00
    6    6    3      2.76      0.00
    6    6    4     -2.52      0.00
    6    6    5      2.63      0.00
    6    6    6      4.87      0.00
    6    6    7      1.27      0.00
    6    6    8      0.89      0.00
    6    6    9     -2.71      0.00
    6    6   10     -0.03      0.00
    6    6   11     -0.54      0.00
    6    6   12     -2.44      0.00
    6    6   13      2.07      0.00
    6    6   14      2.31      0.00
    6    6   15     -0.77      0.00
   -6    8   19     -2.99      0.00
   -6    8   18      0.99      0.00
   -6    8   17      1.09      0.00
   -6    8   16     -0.81      0.00
   -6    8   15      0.05      0.00
   -6    8   14     -1.06      0.00
   -6    8   13      0.92      0.00
   -6    8   12     -0.73      0.00
   -6    8   11     -1.80      0.00
   -6    8   10      5.34      0.00
   -6    8    9      0.66      0.00
   -6    8    8     -3.64      0.00
   -6    8    7     -0.25      0.00
   -6    8    6     -3.85      0.00
   -6    8    5     -0.31      0.00
   -6    8    4      1.76      0.00
   -6    8    3      0.47      0.00
   -6    8    2     -3.44      0.00
   -6    8    1     -4.51      0.00
    6    8    0      0.67      0.00
    6    8    1     -3.58      0.00
    6    8    2      1.12      0.00
    6    8    3     -5.44      0.00
    6    8    4      1.47      0.00
    6    8    5      3.16      0.00
    6    8    6      1.65      0.00
    6    8    7     -1.69      0.00
    6    8    8     -1.29      0.00
    6    8    9      0.95      0.00
    6    8   10      0.93      0.00
    6    8   11      0.50      0.00
    6    8   12     -1.98      0.00
    6    8   13     -0.06      0.00
    6    8   14     -2.05      0.00
   -6   10   18      1.57      0.00
   -6   10   17      0.95      0.00
   -6   10   16     -0.70      0.00
   -6   10   15      1.97      0.00
   -6   10   14      2.15      0.00
   -6   10   13      0.57      0.00
   -6   10   12     -2.35      0.00
   -6   10   11     -1.87      0.00
   -6   10   10      0.94      0.00
   -6   10    9      0.86      0.00
   -6   10    8      0.34      0.00
   -6   10    7     -0.67      0.00
   -6   10    6      2.39      0.00
   -6   10    5      0.05      0.00
   -6   10    4     -0.19      0.00
   -6   10    3     -0.60      0.00
   -6   10    2     -4.04      0.00
   -6   10    1      1.59      0.00
    6   10    0      5.27      0.00
    6   10    1      1.27      0.00
    6   10    2     -1.56      0.00
    6   10    3      0.27      0.00
    6   10    4     -0.86      0.00
    6   10    5      1.05      0.00
    6   10    6     -3.71      0.00
    6   10    7      1.25      0.00
    6   10    8      2.73      0.00
    6   10    9      0.21      0.00
    6   10   10     -1.35      0.00
    6   10   11     -0.03      0.00
    6   10   12      2.94      0.00
    6   10   13     -0.41      0.00
   -6   12   17     -3.31      0.00
   -6   12   16      0.21      0.00
   -6   12   15     -0.95      0.00
   -6   12   14     -1.74      0.00
   -6   12   13      1.14      0.00
   -6   12   12      2.26      0.00
   -6   12   11      0.53      0.00
   -6   12   10     -1.98      0.00
   -6   12    9     -0.55      0.00
   -6   12    8      1.70      0.00
   -6   12    7     -1.55      0.00
   -6   12    6     -3.33      0.00
   -6   12    5      0.80      0.00
   -6   12    4      4.00      0.00
   -6   12    3     -0.57      0.00
   -6   12    2     -2.69      0.00
   -6   12    1      3.02      0.00
    6   12    0      2.77      0.00
    6   12    1      2.19      0.00
    6   12    2     -4.19      0.00
    6   12    3     -0.53      0.00
    6   12    4      2.21      0.00
    6   12    5     -3.90      0.00
    6   12    6      0.05      0.00
    6   12    7      2.07      0.00
    6   12    8      1.86      0.00
    6   12    9     -1.58      0.00
    6   12   10     -0.96      0.00
    6   12   11      0.95      0.00
    6   12   12      0.26      0.00
   -6   14   16      3.93      0.00
   -6   14   15      2.26      0.00
   -6   14   14     -0.92      0.00
   -6   14   13     -1.19      0.00
   -6   14   12      0.56      0.00
   -6   14   11      1.18      0.00
   -6   14   10     -0.83      0.00
   -6   14    9     -3.09      0.00
   -6   14    8     -0.92      0.00
   -6   14    7      2.42      0.00
   -6   14    6     -0.56      0.00
   -6   14    5     -1.44      0.00
   -6   14    4      0.33      0.00
   -6   14    3      0.75      0.00
   -6   14    2      1.76      0.00
   -6   14    1     -2.63      0.00
    6   14    0     -1.86      0.00
    6   14    1     -0.53      0.00
    6   14    2      2.79      0.00
    6   14    3     -1.03      0.00
    6   14    4     -1.21      0.00
    6   14    5      1.22      0.00
    6   14    6     -0.30      0.00
    6   14    7     -2.07      0.00
    6   14    8     -0.24      0.00
    6   14    9      0.60      0.00
    6   14   10     -0.32      0.00
    6   14   11      0.68      0.00
   -6   16   14      0.20      0.00
   -6   16   13     -1.85      0.00
   -6   16   12     -1.17      0.00
   -6   16   11     -0.14      0.00
   -6   16   10     -1.59      0.00
   -6   16    9      1.11      0.00
   -6   16    8      1.39      0.00
   -6   16    7     -0.67      0.00
   -6   16    6      2.25      0.00
   -6   16    5      1.59      0.00
   -6   16    4     -3.02      0.00
   -6   16    3      0.96      0.00
   -6   16    2      2.45      0.00
   -6   16    1     -0.06      0.00
    6   16    0     -1.11      0.00
    6   16    1     -0.82      0.00
    6   16    2      2.09      0.00
    6   16    3      1.10      0.00
    6   16    4     -1.47      0.00
    6   16    5      0.24      0.00
    6   16    6     -0.63      0.00
    6   16    7      0.52      0.00
    6   16    8      0.11      0.00
    6   16    9      0.78      0.00
   -6   18   12     -0.32      0.00
   -6   18   11     -1.08      0.00
   -6   18   10      1.68      0.00
   -6   18    9     -0.05      0.00
   -6   18    8      1.05      0.00
   -6   18    7     -0.74      0.00
   -6   18    6      0.57      0.00
   -6   18    5      0.02      0.00
   -6   18    4     -0.37      0.00
   -6   18    3     -0.12      0.00
   -6   18    2      0.57      0.00
   -6   18    1      0.66      0.00
    6   18    0     -1.40      0.00
    6   18    1     -0.02      0.00
    6   18    2     -0.53      0.00
    6   18    3      0.75      0.00
    6   18    4      1.23      0.00
    6   18    5     -0.81      0.00
    6   18    6      0.28      0.00
    6   18    7      0.41      0.00
   -6   20    9      1.19      0.00
   -6   20    8      0.03      0.00
   -6   20    7      1.39      0.00
   -6   20    6      0.13      0.00
   -6   20    5     -1.44      0.00
   -6   20    4     -1.50      0.00
   -6   20    3     -0.31      0.00
   -6   20    2      1.22      0.00
   -6   20    1     -0.77      0.00
    6   20    0      0.04      0.00
    6   20    1      0.19      0.00
    6   20    2      0.41      0.00
    6   20    3      0.04      0.00
    6   20    4      0.00      0.00
   -7    1   20      3.40      0.00
   -7    1   19      1.90      0.00
   -7    1   18     -0.86      0.00
   -7    1   17     -2.40      0.00
   -7    1   16     -2.87      0.00
   -7    1   15      1.40      0.00
   -7    1   14      4.13      0.00
   -7    1   13      1.54      0.00
   -7    1   12     -3.44      0.00
   -7    1   11      7.22      0.00
   -7    1   10      1.03      0.00
   -7    1    9     -7.20      0.00
   -7    1    8      5.19      0.00
   -7    1    7      2.70      0.00
   -7    1    6      5.39      0.00
   -7    1    5    -20.84      0.00
   -7    1    4    -11.30      0.00
   -7    1    3     10.87      0.00
   -7    1    2    -11.81      0.00
   -7    1    1      7.38      0.00
    7    1    0      9.57      0.00
    7    1    1     -8.97      0.00
    7    1    2      2.08      0.00
    7    1    3      3.91      0.00
    7    1    4     -2.30      0.00
    7    1    5     -3.31      0.00
    7    1    6      1.05      0.00
    7    1    7     -2.25      0.00
    7    1    8      0.66      0.00
    7    1    9     -1.40      0.00
    7    1   10      2.37      0.00
    7    1   11      2.59      0.00
    7    1   12      0.18      0.00
    7    1   13      2.39      0.00
    7    1   14     -1.83      0.00
    7    1   15     -3.65      0.00
   -7    3   20     -4.56      0.00
   -7    3   19     -0.86      0.00
   -7    3   18      2.77      0.00
   -7    3   17     -0.20      0.00
   -7    3   16     -0.27      0.00
   -7    3   15     -0.90      0.00
   -7    3   14     -0.67      0.00
   -7    3   13     -2.32      0.00
   -7    3   12      2.39      0.00
   -7    3   11     -0.79      0.00
   -7    3   10     -1.94      0.00
   -7    3    9      0.88      0.00
   -7    3    8     -8.64      0.00
   -7    3    7     12.21      0.00
   -7    3    6     -5.25      0.00
   -7    3    5    -20.34      0.00
   -7    3    4     16.57      0.00
   -7    3    3     11.61      0.00
   -7    3    2      7.62      0.00
   -7    3    1     -3.77      0.00
    7    3    0     -9.57      0.00
    7    3    1     -5.37      0.00
    7    3    2     -4.84      0.00
    7    3    3     10.00      0.00
    7    3    4      5.76      0.00
    7    3    5     -1.20      0.00
    7    3    6     -0.42      0.00
    7    3    7      2.97      0.00
    7    3    8     -1.13      0.00
    7    3    9     -1.58      0.00
    7    3   10     -3.00      0.00
    7    3   11      0.22      0.00
    7    3   12     -1.30      0.00
    7    3   13      0.28      0.00
    7    3   14      2.21      0.00
   -7    5   20     -1.09      0.00
   -7    5   19      0.78      0.00
   -7    5   18      1.68      0.00
   -7    5   17      0.79      0.00
   -7    5   16     -0.44      0.00
   -7    5   15      2.02      0.00
   -7    5   14     -0.70      0.00
   -7    5   13      1.08      0.00
   -7    5   12      1.95      0.00
   -7    5   11     -2.28      0.00
   -7    5   10      2.37      0.00
   -7    5    9     -2.58      0.00
   -7    5    8      1.31      0.00
   -7    5    7     -4.46      0.00
   -7    5    6      4.28      0.00
   -7    5    5     11.87      0.00
   -7    5    4    -12.40      0.00
   -7    5    3     -1.72      0.00
   -7    5    2      5.44      0.00
   -7    5    1     -6.40      0.00
    7    5    0     -4.32      0.00
    7    5    1      0.08      0.00
    7    5    2      1.63      0.00
    7    5    3     -7.92      0.00
    7    5    4     -1.75      0.00
    7    5    5     -4.25      0.00
    7    5    6      0.81      0.00
    7    5    7      2.62      0.00
    7    5    8      1.89      0.00
    7    5    9      2.22      0.00
    7    5   10      0.59      0.00
    7    5   11      1.03      0.00
    7    5   12     -0.89      0.00
    7    5   13     -1.95      0.00
    7    5   14      0.99      0.00
   -7    7   19      1.54      0.00
   -7    7   18     -1.11      0.00
   -7    7   17     -1.60      0.00
   -7    7   16      1.68      0.00
   -7    7   15     -0.31      0.00
   -7    7   14     -1.55      0.00
   -7    7   13     -0.54      0.00
   -7    7   12     -3.54      0.00
   -7    7   11      4.40      0.00
   -7    7   10     -0.32      0.00
   -7    7    9     -2.03      0.00
   -7    7    8     -0.82      0.00
   -7    7    7     -2.04      0.00
   -7    7    6     -0.26      0.00
   -7    7    5      3.21      0.00
   -7    7    4      4.75      0.00
   -7    7    3     -7.48      0.00
   -7    7    2     -1.26      0.00
   -7    7    1      7.04      0.00
    7    7    0      5.19      0.00
    7    7    1      0.64      0.00
    7    7    2      4.75      0.00
    7    7    3      0.39      0.00
    7    7    4     -8.89      0.00
    7    7    5      5.19      0.00
    7    7    6     -0.13      0.00
    7    7    7     -2.18      0.00
    7    7    8     -0.48      0.00
    7    7    9     -0.09      0.00
    7    7   10     -0.54      0.00
    7    7   11      0.73      0.00
    7    7   12      1.31      0.00
    7    7   13      1.24      0.00
    7    7   14     -0.35      0.00
   -7    9   19      0.39      0.00
   -7    9   18      0.18      0.00
   -7    9   17     -0.53      0.00
   -7    9   16      1.62      0.00
   -7    9   15      0.94      0.00
   -7    9   14     -0.08      0.00
   -7    9   13     -2.35      0.00
   -7    9   12     -0.17      0.00
   -7    9   11     -1.61      0.00
   -7    9   10      1.14      0.00
   -7    9    9      2.16      0.00
   -7    9    8     -0.17      0.00
   -7    9    7      1.36      0.00
   -7    9    6     -0.17      0.00
   -7    9    5      0.25      0.00
   -7    9    4      0.51      0.00
   -7    9    3      0.28      0.00
   -7    9    2     -1.74      0.00
   -7    9    1      1.62      0.00
    7    9    0     -2.98      0.00
    7    9    1      4.27      0.00
    7    9    2     -1.80      0.00
    7    9    3      1.56      0.00
    7    9    4      2.50      0.00
    7    9    5     -0.17      0.00
    7    9    6     -0.52      0.00
    7    9    7     -4.38      0.00
    7    9    8      0.92      0.00
    7    9    9      1.50      0.00
    7    9   10     -0.70      0.00
    7    9   11     -2.59      0.00
    7    9   12      0.51      0.00
    7    9   13      0.43      0.00
   -7   11   18     -4.67      0.00
   -7   11   17     -1.53      0.00
   -7   11   16      0.79      0.00
   -7   11   15     -0.84      0.00
   -7   11   14     -0.60      0.00
   -7   11   13      3.89      0.00
   -7   11   12      0.42      0.00
   -7   11   11     -2.19      0.00
   -7   11   10     -0.54      0.00
   -7   11    9      2.09      0.00
   -7   11    8      0.18      0.00
   -7   11    7     -1.56      0.00
   -7   11    6      1.34      0.00
   -7   11    5      0.56      0.00
   -7   11    4      0.31      0.00
   -7   11    3     -1.28      0.00
   -7   11    2      0.25      0.00
   -7   11    1      0.27      0.00
    7   11    0      0.08      0.00
    7   11    1      0.56      0.00
    7   11    2     -0.46      0.00
    7   11    3     -0.89      0.00
    7   11    4      3.41      0.00
    7   11    5     -1.44      0.00
    7   11    6      0.02      0.00
    7   11    7      0.67      0.00
    7   11    8     -1.60      0.00
    7   11    9      1.36      0.00
    7   11   10     -0.85      0.00
    7   11   11      1.20      0.00
    7   11   12      0.98      0.00
   -7   13   17      4.77      0.00
   -7   13   16     -0.70      0.00
   -7   13   15     -2.50      0.00
   -7   13   14      0.14      0.00
   -7   13   13     -2.68      0.00
   -7   13   12     -0.08      0.00
   -7   13   11      1.10      0.00
   -7   13   10     -0.16      0.00
   -7   13    9     -0.52      0.00
   -7   13    8      1.13      0.00
   -7   13    7      1.97      0.00
   -7   13    6     -1.84      0.00
   -7   13    5     -3.11      0.00
   -7   13    4     -0.06      0.00
   -7   13    3      4.94      0.00
   -7   13    2     -2.77      0.00
   -7   13    1     -4.13      0.00
    7   13    0      2.79      0.00
    7   13    1     -3.45      0.00
    7   13    2     -0.25      0.00
    7   13    3      1.66      0.00
    7   13    4     -1.20      0.00
    7   13    5      0.55      0.00
    7   13    6      1.73      0.00
    7   13    7      1.42      0.00
    7   13    8     -2.56      0.00
    7   13    9     -2.05      0.00
    7   13   10      0.52      0.00
    7   13   11     -0.05      0.00
   -7   15   15      3.21      0.00
   -7   15   14     -0.71      0.00
   -7   15   13     -0.28      0.00
   -7   15   12      2.00      0.00
   -7   15   11      2.05      0.00
   -7   15   10      0.97      0.00
   -7   15    9      0.26      0.00
   -7   15    8     -0.88      0.00
   -7   15    7      0.44      0.00
   -7   15    6      1.48      0.00
   -7   15    5     -2.22      0.00
   -7   15    4      0.78      0.00
   -7   15    3      0.50      0.00
   -7   15    2     -0.82      0.00
   -7   15    1     -0.33      0.00
    7   15    0     -0.32      0.00
    7   15    1     -0.43      0.00
    7   15    2     -1.03      0.00
    7   15    3      0.60      0.00
    7   15    4     -0.74      0.00
    7   15    5      0.39      0.00
    7   15    6      0.62      0.00
    7   15    7      1.23      0.00
    7   15    8      0.79      0.00
    7   15    9     -0.36      0.00
   -7   17   13      0.31      0.00
   -7   17   12     -1.06      0.00
   -7   17   11      0.76      0.00
   -7   17   10     -1.25      0.00
   -7   17    9     -0.36      0.00
   -7   17    8     -1.69      0.00
   -7   17    7     -0.74      0.00
   -7   17    6     -1.56      0.00
   -7   17    5      0.63      0.00
   -7   17    4      1.14      0.00
   -7   17    3     -2.13      0.00
   -7   17    2      1.20      0.00
   -7   17    1      1.48      0.00
    7   17    0     -0.45      0.00
    7   17    1      1.28      0.00
    7   17    2     -0.04      0.00
    7   17    3     -0.96      0.00
    7   17    4      0.50      0.00
    7   17    5     -1.20      0.00
    7   17    6      0.56      0.00
    7   17    7      0.39      0.00
   -7   19   11     -1.21      0.00
   -7   19   10      0.39      0.00
   -7   19    9     -1.13      0.00
   -7   19    8      1.36      0.00
   -7   19    7      0.44      0.00
   -7   19    6     -1.34      0.00
   -7   19    5      1.14      0.00
   -7   19    4     -1.13      0.00
   -7   19    3     -0.09      0.00
   -7   19    2      0.11      0.00
   -7   19    1      1.28      0.00
    7   19    0     -0.69      0.00
    7   19    1      0.46      0.00
    7   19    2      1.01      0.00
    7   19    3     -0.60      0.00
    7   19    4     -1.45      0.00
    7   19    5      0.05      0.00
   -7   21    6      2.93      0.00
   -7   21    5      2.15      0.00
   -7   21    4      0.14      0.00
   -7   21    3     -2.88      0.00
   -7   21    2     -0.14      0.00
   -7   21    1      1.42      0.00
    7   21    0      0.87      0.00
   -8    0   20      0.38      0.00
   -8    0   18     -3.68      0.00
   -8    0   16     -0.59      0.00
   -8    0   14      1.81      0.00
   -8    0   12      1.58      0.00
   -8    0   10    -14.92      0.00
   -8    0    8      1.17      0.00
   -8    0    6    -13.57      0.00
   -8    0    4     29.62      0.00
   -8    0    2     15.74      0.00
    8    0    0     -0.74      0.00
    8    0    2    -11.24      0.00
    8    0    4      6.87      0.00
    8    0    6     -1.04      0.00
    8    0    8     -6.52      0.00
    8    0   10     -5.80      0.00
    8    0   12     -0.46      0.00
    8    0   14      2.93      0.00
   -8    2   20      0.51      0.00
   -8    2   19      3.73      0.00
   -8    2   18      0.86      0.00
   -8    2   17      0.72      0.00
   -8    2   16      1.07      0.00
   -8    2   15     -1.88      0.00
   -8    2   14     -0.83      0.00
   -8    2   13      1.32      0.00
   -8    2   12      0.12      0.00
   -8    2   11     -3.45      0.00
   -8    2   10      7.07      0.00
   -8    2    9     -2.86      0.00
   -8    2    8      6.97      0.00
   -8    2    7      4.60      0.00
   -8    2    6     -2.98      0.00
   -8    2    5     16.28      0.00
   -8    2    4     -7.89      0.00
   -8    2    3      1.13      0.00
   -8    2    2    -12.07      0.00
   -8    2    1    -22.07      0.00
    8    2    0     -0.24      0.00
    8    2    1     -1.62      0.00
    8    2    2     -1.11      0.00
    8    2    3     -6.94      0.00
    8    2    4      1.70      0.00
    8    2    5      3.12      0.00
    8    2    6     -1.53      0.00
    8    2    7      3.65      0.00
    8    2    8      3.71      0.00
    8    2    9     -0.49      0.00
    8    2   10      4.44      0.00
    8    2   11     -2.46      0.00
    8    2   12      0.64      0.00
    8    2   13     -2.81      0.00
    8    2   14     -1.12      0.00
   -8    4   20      0.04      0.00
   -8    4   19     -1.87      0.00
   -8    4   18      0.09      0.00
   -8    4   17      1.02      0.00
   -8    4   16      0.31      0.00
   -8    4   15     -0.97      0.00
   -8    4   14     -2.32      0.00
   -8    4   13      1.36      0.00
   -8    4   12     -2.06      0.00
   -8    4   11      3.53      0.00
   -8    4   10      0.15      0.00
   -8    4    9      2.23      0.00
   -8    4    8     -8.78      0.00
   -8    4    7     -2.24      0.00
   -8    4    6     11.64      0.00
   -8    4    5    -18.80      0.00
   -8    4    4     -5.37      0.00
   -8    4    3      7.64      0.00
   -8    4    2      2.90      0.00
   -8    4    1      4.48      0.00
    8    4    0      4.09      0.00
    8    4    1     -4.40      0.00
    8    4    2     10.99      0.00
    8    4    3      4.40      0.00
    8    4    4     -5.25      0.00
    8    4    5     -2.03      0.00
    8    4    6     -3.53      0.00
    8    4    7     -3.23      0.00
    8    4    8     -0.79      0.00
    8    4    9     -1.17      0.00
    8    4   10     -0.20      0.00
    8    4   11      1.72      0.00
    8    4   12     -0.41      0.00
    8    4   13      0.69      0.00
    8    4   14      0.54      0.00
   -8    6   20     -0.52      0.00
   -8    6   19     -2.12      0.00
   -8    6   18     -0.51      0.00
   -8    6   17      1.65      0.00
   -8    6   16      0.58      0.00
   -8    6   15     -2.82      0.00
   -8    6   14      1.61      0.00
   -8    6   13     -1.33      0.00
   -8    6   12      2.44      0.00
   -8    6   11     -0.26      0.00
   -8    6   10      0.50      0.00
   -8    6    9     -1.15      0.00
   -8    6    8      0.40      0.00
   -8    6    7      1.45      0.00
   -8    6    6     -0.00      0.00
   -8    6    5     11.85      0.00
   -8    6    4     -5.33      0.00
   -8    6    3     -5.71      0.00
   -8    6    2      5.39      0.00
   -8    6    1      3.72      0.00
    8    6    0     -5.38      0.00
    8    6    1      2.01      0.00
    8    6    2     -2.27      0.00
    8    6    3      7.62      0.00
    8    6    4     -3.60      0.00
    8    6    5      0.19      0.00
    8    6    6      7.99      0.00
    8    6    7     -1.84      0.00
    8    6    8     -0.23      0.00
    8    6    9      0.15      0.00
    8    6   10     -1.13      0.00
    8    6   11     -0.45      0.00
    8    6   12     -0.44      0.00
    8    6   13      0.68      0.00
   -8    8   19      1.44      0.00
   -8    8   18     -1.00      0.00
   -8    8   17     -0.51      0.00
   -8    8   16      0.43      0.00
   -8    8   15      1.12      0.00
   -8    8   14     -1.76      0.00
   -8    8   13      1.62      0.00
   -8    8   12     -1.69      0.00
   -8    8   11      0.52      0.00
   -8    8   10      1.79      0.00
   -8    8    9     -0.22      0.00
   -8    8    8      0.12      0.00
   -8    8    7     -2.37      0.00
   -8    8    6     -0.82      0.00
   -8    8    5     -1.74      0.00
   -8    8    4      3.81      0.00
   -8    8    3     -4.18      0.00
   -8    8    2     -4.56      0.00
   -8    8    1      0.31      0.00
    8    8    0     -0.61      0.00
    8    8    1     -0.28      0.00
    8    8    2      0.74      0.00
    8    8    3     -6.85      0.00
    8    8    4      3.77      0.00
    8    8    5      1.15      0.00
    8    8    6     -0.17      0.00
    8    8    7      1.41      0.00
    8    8    8     -1.03      0.00
    8    8    9      0.54      0.00
    8    8   10      0.16      0.00
    8    8   11     -0.61      0.00
    8    8   12     -0.04      0.00
    8    8   13     -1.10      0.00
   -8   10   18     -2.75      0.00
   -8   10   17      1.48      0.00
   -8   10   16      2.51      0.00
   -8   10   15     -0.58      0.00
   -8   10   14      2.38      0.00
   -8   10   13      0.59      0.00
   -8   10   12      0.03      0.00
   -8   10   11     -1.30      0.00
   -8   10   10      0.39      0.00
   -8   10    9      1.61      0.00
   -8   10    8     -1.22      0.00
   -8   10    7      0.71      0.00
   -8   10    6     -3.70      0.00
   -8   10    5     -0.30      0.00
   -8   10    4      1.80      0.00
   -8   10    3      0.87      0.00
   -8   10    2      0.83      0.00
   -8   10    1      2.41      0.00
    8   10    0      2.00      0.00
    8   10    1      1.95      0.00
    8   10    2     -1.56      0.00
    8   10    3     -1.59      0.00
    8   10    4      0.41      0.00
    8   10    5      0.22      0.00
    8   10    6     -1.71      0.00
    8   10    7      2.25      0.00
    8   10    8      0.80      0.00
    8   10    9     -0.67      0.00
    8   10   10     -0.61      0.00
    8   10   11     -1.27      0.00
    8   10   12      2.58      0.00
   -8   12   17     -1.05      0.00
   -8   12   16     -4.01      0.00
   -8   12   15      1.46      0.00
   -8   12   14     -3.14      0.00
   -8   12   13     -0.24      0.00
   -8   12   12      2.02      0.00
   -8   12   11     -0.66      0.00
   -8   12   10     -1.31      0.00
   -8   12    9     -1.35      0.00
   -8   12    8      1.07      0.00
   -8   12    7     -1.68      0.00
   -8   12    6     -0.99      0.00
   -8   12    5      0.79      0.00
   -8   12    4      4.09      0.00
   -8   12    3     -0.25      0.00
   -8   12    2     -3.77      0.00
   -8   12    1      1.16      0.00
    8   12    0      2.07      0.00
    8   12    1     -0.09      0.00
    8   12    2     -0.53      0.00
    8   12    3      1.17      0.00
    8   12    4     -0.72      0.00
    8   12    5     -0.56      0.00
    8   12    6     -1.06      0.00
    8   12    7      0.80      0.00
    8   12    8      2.97      0.00
    8   12    9     -0.61      0.00
    8   12   10     -0.18      0.00
    8   12   11      0.26      0.00
   -8   14   16      5.18      0.00
   -8   14   15     -0.59      0.00
   -8   14   14      0.81      0.00
   -8   14   13      1.46      0.00
   -8   14   12      0.05      0.00
   -8   14   11     -1.69      0.00
   -8   14   10     -0.93      0.00
   -8   14    9      0.51      0.00
   -8   14    8     -0.69      0.00
   -8   14    7      1.69      0.00
   -8   14    6      1.35      0.00
   -8   14    5      1.28      0.00
   -8   14    4     -3.12      0.00
   -8   14    3     -0.49      0.00
   -8   14    2      2.88      0.00
   -8   14    1     -2.84      0.00
    8   14    0     -1.05      0.00
    8   14    1     -1.10      0.00
    8   14    2     -0.44      0.00
    8   14    3      0.31      0.00
    8   14    4     -0.50      0.00
    8   14    5     -1.30      0.00
    8   14    6     -0.32      0.00
    8   14    7     -1.95      0.00
    8   14    8     -0.52      0.00
    8   14    9     -0.08      0.00
   -8   16   14     -0.70      0.00
   -8   16   13     -1.95      0.00
   -8   16   12     -1.80      0.00
   -8   16   11     -0.58      0.00
   -8   16   10      2.26      0.00
   -8   16    9     -0.84      0.00
   -8   16    8     -0.82      0.00
   -8   16    7     -0.58      0.00
   -8   16    6      1.89      0.00
   -8   16    5      0.88      0.00
   -8   16    4     -2.20      0.00
   -8   16    3      1.56      0.00
   -8   16    2      2.63      0.00
   -8   16    1     -0.23      0.00
    8   16    0     -1.65      0.00
    8   16    1      0.12      0.00
    8   16    2      1.50      0.00
    8   16    3     -0.18      0.00
    8   16    4      1.09      0.00
    8   16    5      0.72      0.00
    8   16    6     -0.10      0.00
    8   16    7      0.24      0.00
   -8   18   12     -0.91      0.00
   -8   18   11      2.17      0.00
   -8   18   10     -0.12      0.00
   -8   18    9      0.59      0.00
   -8   18    8      2.13      0.00
   -8   18    7      0.45      0.00
   -8   18    6      0.44      0.00
   -8   18    5     -2.93      0.00
   -8   18    4     -0.57      0.00
   -8   18    3      1.11      0.00
   -8   18    2      0.23      0.00
   -8   18    1     -0.23      0.00
    8   18    0     -0.42      0.00
    8   18    1      0.00      0.00
    8   18    2      0.78      0.00
    8   18    3      0.58      0.00
    8   18    4     -1.32      0.00
    8   18    5     -0.81      0.00
   -8   20    8     -0.78      0.00
   -8   20    7      2.33      0.00
   -8   20    6     -0.40      0.00
   -8   20    5      0.44      0.00
   -8   20    4     -0.10      0.00
   -8   20    3     -1.90      0.00
   -8   20    2     -1.19      0.00
   -8   20    1      1.96      0.00
    8   20    0      0.54      0.00
    8   20    1      0.58      0.00
   -9    1   21      0.63      0.00
   -9    1   20      2.83      0.00
   -9    1   19      2.68      0.00
   -9    1   18     -0.91      0.00
   -9    1   17      3.00      0.00
   -9    1   16     -0.18      0.00
   -9    1   15     -2.73      0.00
   -9    1   14     -0.29      0.00
   -9    1   13      1.83      0.00
   -9    1   12      0.21      0.00
   -9    1   11      6.34      0.00
   -9    1   10     -0.24      0.00
   -9    1    9     -3.39      0.00
   -9    1    8      5.38      0.00
   -9    1    7     -6.58      0.00
   -9    1    6     -1.39      0.00
   -9    1    5    -15.71      0.00
   -9    1    4     -2.39      0.00
   -9    1    3     -3.89      0.00
   -9    1    2    -10.27      0.00
   -9    1    1      5.92      0.00
    9    1    0      6.21      0.00
    9    1    1     -8.62      0.00
    9    1    2      2.11      0.00
    9    1    3      3.06      0.00
    9    1    4     -1.71      0.00
    9    1    5     -3.03      0.00
    9    1    6     -0.71      0.00
    9    1    7     -7.55      0.00
    9    1    8      2.87      0.00
    9    1    9     -2.32      0.00
    9    1   10      1.07      0.00
    9    1   11      3.60      0.00
    9    1   12      0.23      0.00
    9    1   13      1.23      0.00
   -9    3   20     -3.99      0.00
   -9    3   19     -0.12      0.00
   -9    3   18      1.83      0.00
   -9    3   17     -1.68      0.00
   -9    3   16     -0.72      0.00
   -9    3   15     -2.05      0.00
   -9    3   14      1.73      0.00
   -9    3   13      0.49      0.00
   -9    3   12      0.57      0.00
   -9    3   11      0.03      0.00
   -9    3   10     -1.32      0.00
   -9    3    9     -5.05      0.00
   -9    3    8     -6.10      0.00
   -9    3    7      6.48      0.00
   -9    3    6     -5.66      0.00
   -9    3    5      4.61      0.00
   -9    3    4     10.97      0.00
   -9    3    3      7.82      0.00
   -9    3    2      8.39      0.00
   -9    3    1     -1.23      0.00
    9    3    0     -2.92      0.00
    9    3    1     -2.24      0.00
    9    3    2     -4.15      0.00
    9    3    3      8.23      0.00
    9    3    4      2.95      0.00
    9    3    5      0.41      0.00
    9    3    6      2.45      0.00
    9    3    7      1.82      0.00
    9    3    8     -2.88      0.00
    9    3    9      3.53      0.00
    9    3   10     -3.52      0.00
    9    3   11     -0.12      0.00
    9    3   12      0.05      0.00
    9    3   13      0.13      0.00
   -9    5   20      2.13      0.00
   -9    5   19     -0.18      0.00
   -9    5   18     -1.07      0.00
   -9    5   17      1.94      0.00
   -9    5   16     -1.05      0.00
   -9    5   15      2.52      0.00
   -9    5   14      0.46      0.00
   -9    5   13     -0.97      0.00
   -9    5   12     -0.92      0.00
   -9    5   11     -0.81      0.00
   -9    5   10      0.50      0.00
   -9    5    9      2.83      0.00
   -9    5    8      2.25      0.00
   -9    5    7     -0.77      0.00
   -9    5    6     10.54      0.00
   -9    5    5     -4.52      0.00
   -9    5    4    -12.25      0.00
   -9    5    3     -1.89      0.00
   -9    5    2      1.57      0.00
   -9    5    1     -3.33      0.00
    9    5    0     -3.24      0.00
    9    5    1     -1.82      0.00
    9    5    2     -1.94      0.00
    9    5    3     -2.17      0.00
    9    5    4     -0.81      0.00
    9    5    5     -6.05      0.00
    9    5    6      2.17      0.00
    9    5    7      2.21      0.00
    9    5    8     -0.85      0.00
    9    5    9      1.52      0.00
    9    5   10      0.92      0.00
    9    5   11     -1.73      0.00
    9    5   12      0.65      0.00
    9    5   13     -0.80      0.00
   -9    7   20      1.05      0.00
   -9    7   19     -2.30      0.00
   -9    7   18     -1.03      0.00
   -9    7   17      0.28      0.00
   -9    7   16      1.99      0.00
   -9    7   15     -1.69      0.00
   -9    7   14      0.72      0.00
   -9    7   13     -0.32      0.00
   -9    7   12     -1.77      0.00
   -9    7   11     -0.56      0.00
   -9    7   10      0.40      0.00
   -9    7    9      0.10      0.00
   -9    7    8     -2.64      0.00
   -9    7    7     -1.36      0.00
   -9    7    6     -2.55      0.00
   -9    7    5      6.38      0.00
   -9    7    4      0.48      0.00
   -9    7    3     -5.63      0.00
   -9    7    2      2.99      0.00
   -9    7    1      4.45      0.00
    9    7    0      2.28      0.00
    9    7    1      3.46      0.00
    9    7    2      3.34      0.00
    9    7    3     -3.46      0.00
    9    7    4     -2.65      0.00
    9    7    5      4.57      0.00
    9    7    6     -2.43      0.00
    9    7    7     -0.35      0.00
    9    7    8     -0.11      0.00
    9    7    9      0.07      0.00
    9    7   10      2.13      0.00
    9    7   11     -0.47      0.00
    9    7   12      0.46      0.00
   -9    9   19     -1.02      0.00
   -9    9   18      1.97      0.00
   -9    9   17      2.18      0.00
   -9    9   16     -0.54      0.00
   -9    9   15      0.04      0.00
   -9    9   14     -2.08      0.00
   -9    9   13      1.34      0.00
   -9    9   12      0.43      0.00
   -9    9   11     -0.63      0.00
   -9    9   10      2.13      0.00
   -9    9    9     -0.31      0.00
   -9    9    8      1.37      0.00
   -9    9    7     -2.78      0.00
   -9    9    6     -1.47      0.00
   -9    9    5      2.61      0.00
   -9    9    4      3.07      0.00
   -9    9    3      1.96      0.00
   -9    9    2     -1.24      0.00
   -9    9    1     -0.04      0.00
    9    9    0     -3.10      0.00
    9    9    1      3.66      0.00
    9    9    2      0.68      0.00
    9    9    3     -1.76      0.00
    9    9    4      0.93      0.00
    9    9    5     -1.24      0.00
    9    9    6     -0.57      0.00
    9    9    7     -0.46      0.00
    9    9    8      0.10      0.00
    9    9    9     -0.88      0.00
    9    9   10      0.23      0.00
    9    9   11     -1.09      0.00
   -9   11   18     -0.86      0.00
   -9   11   17     -6.93      0.00
   -9   11   16      0.81      0.00
   -9   11   15     -0.02      0.00
   -9   11   14     -0.53      0.00
   -9   11   13     -0.24      0.00
   -9   11   12     -0.37      0.00
   -9   11   11      0.12      0.00
   -9   11   10     -2.13      0.00
   -9   11    9      1.07      0.00
   -9   11    8      1.33      0.00
   -9   11    7      2.12      0.00
   -9   11    6      0.55      0.00
   -9   11    5     -1.48      0.00
   -9   11    4      0.91      0.00
   -9   11    3     -1.86      0.00
   -9   11    2     -2.87      0.00
   -9   11    1      0.41      0.00
    9   11    0      2.89      0.00
    9   11    1     -1.78      0.00
    9   11    2     -1.09      0.00
    9   11    3      1.89      0.00
    9   11    4      0.47      0.00
    9   11    5      1.18      0.00
    9   11    6     -1.07      0.00
    9   11    7     -0.44      0.00
    9   11    8     -0.25      0.00
    9   11    9     -0.14      0.00
    9   11   10     -0.57      0.00
   -9   13   16      0.32      0.00
   -9   13   15      1.26      0.00
   -9   13   14      0.23      0.00
   -9   13   13     -0.84      0.00
   -9   13   12      0.12      0.00
   -9   13   11      0.79      0.00
   -9   13   10      1.84      0.00
   -9   13    9     -0.48      0.00
   -9   13    8      1.07      0.00
   -9   13    7      1.14      0.00
   -9   13    6     -0.44      0.00
   -9   13    5     -3.64      0.00
   -9   13    4     -0.82      0.00
   -9   13    3      3.65      0.00
   -9   13    2     -2.55      0.00
   -9   13    1     -2.08      0.00
    9   13    0      2.27      0.00
    9   13    1      0.33      0.00
    9   13    2     -0.91      0.00
    9   13    3      0.52      0.00
    9   13    4      1.11      0.00
    9   13    5     -0.96      0.00
    9   13    6      1.34      0.00
    9   13    7      0.89      0.00
    9   13    8     -0.47      0.00
    9   13    9     -3.17      0.00
   -9   15   15     -0.83      0.00
   -9   15   14      0.33      0.00
   -9   15   13     -0.16      0.00
   -9   15   12      0.83      0.00
   -9   15   11      2.83      0.00
   -9   15   10     -1.90      0.00
   -9   15    9     -0.72      0.00
   -9   15    8     -0.87      0.00
   -9   15    7     -0.85      0.00
   -9   15    6     -0.65      0.00
   -9   15    5     -0.06      0.00
   -9   15    4      1.13      0.00
   -9   15    3      0.68      0.00
   -9   15    2      1.50      0.00
   -9   15    1     -0.80      0.00
    9   15    0     -2.26      0.00
    9   15    1     -1.89      0.00
    9   15    2      0.15      0.00
    9   15    3      0.21      0.00
    9   15    4     -0.10      0.00
    9   15    5      0.99      0.00
    9   15    6     -0.12      0.00
    9   15    7      0.70      0.00
   -9   17   13     -1.04      0.00
   -9   17   12      2.14      0.00
   -9   17   11     -1.29      0.00
   -9   17   10     -1.25      0.00
   -9   17    9      2.15      0.00
   -9   17    8      0.46      0.00
   -9   17    7     -2.04      0.00
   -9   17    6     -1.99      0.00
   -9   17    5      0.71      0.00
   -9   17    4      1.39      0.00
   -9   17    3     -1.03      0.00
   -9   17    2     -0.61      0.00
   -9   17    1      0.94      0.00
    9   17    0      0.38      0.00
    9   17    1      0.07      0.00
    9   17    2     -0.02      0.00
    9   17    3      0.13      0.00
    9   17    4      0.86      0.00
    9   17    5      0.25      0.00
   -9   19   10     -0.57      0.00
   -9   19    9     -1.69      0.00
   -9   19    8     -0.50      0.00
   -9   19    7      0.44      0.00
   -9   19    6      2.91      0.00
   -9   19    5      2.30      0.00
   -9   19    4     -3.00      0.00
   -9   19    3     -3.84      0.00
   -9   19    2      2.13      0.00
   -9   19    1      2.45      0.00
    9   19    0      0.30      0.00
    9   19    1      0.92      0.00
    9   19    2     -1.93      0.00
  -10    0   20      3.56      0.00
  -10    0   18      2.00      0.00
  -10    0   16     -6.27      0.00
  -10    0   14      1.74      0.00
  -10    0   12     -1.16      0.00
  -10    0   10     -5.97      0.00
  -10    0    8     -8.26      0.00
  -10    0    6      1.51      0.00
  -10    0    4      8.84      0.00
  -10    0    2      0.50      0.00
   10    0    0      6.10      0.00
   10    0    2     -3.79      0.00
   10    0    4      3.71      0.00
   10    0    6      3.08      0.00
   10    0    8     -3.89      0.00
   10    0   10     -3.97      0.00
   10    0   12      0.73      0.00
  -10    2   20     -1.54      0.00
  -10    2   19      2.81      0.00
  -10    2   18     -1.21      0.00
  -10    2   17     -1.32      0.00
  -10    2   16      2.78      0.00
  -10    2   15      2.01      0.00
  -10    2   14      0.89      0.00
  -10    2   13     -3.00      0.00
  -10    2   12      1.45      0.00
  -10    2   11      1.43      0.00
  -10    2   10      1.71      0.00
  -10    2    9     -3.31      0.00
  -10    2    8      5.27      0.00
  -10    2    7      8.39      0.00
  -10    2    6      2.08      0.00
  -10    2    5      2.53      0.00
  -10    2    4     -2.45      0.00
  -10    2    3     -0.85      0.00
  -10    2    2     -4.49      0.00
  -10    2    1     -5.84      0.00
   10    2    0     -1.97      0.00
   10    2    1     -2.42      0.00
   10    2    2     -1.98      0.00
   10    2    3      1.31      0.00
   10    2    4     -0.62      0.00
   10    2    5      0.26      0.00
   10    2    6     -2.62      0.00
   10    2    7      2.60      0.00
   10    2    8      0.13      0.00
   10    2    9     -0.58      0.00
   10    2   10      3.55      0.00
   10    2   11     -1.72      0.00
   10    2   12     -0.06      0.00
  -10    4   20     -2.06      0.00
  -10    4   19     -3.33      0.00
  -10    4   18      1.34      0.00
  -10    4   17      0.94      0.00
  -10    4   16      0.95      0.00
  -10    4   15     -0.76      0.00
  -10    4   14     -4.12      0.00
  -10    4   13      0.51      0.00
  -10    4   12     -0.80      0.00
  -10    4   11      1.01      0.00
  -10    4   10      3.50      0.00
  -10    4    9     -0.69      0.00
  -10    4    8     -0.83      0.00
  -10    4    7     -0.42      0.00
  -10    4    6     -5.60      0.00
  -10    4    5     -9.21      0.00
  -10    4    4     -3.32      0.00
  -10    4    3      5.14      0.00
  -10    4    2      6.11      0.00
  -10    4    1      0.26      0.00
   10    4    0      3.06      0.00
   10    4    1      1.23      0.00
   10    4    2      1.79      0.00
   10    4    3      0.81      0.00
   10    4    4     -0.68      0.00
   10    4    5     -2.52      0.00
   10    4    6     -0.22      0.00
   10    4    7     -0.50      0.00
   10    4    8      1.06      0.00
   10    4    9     -1.37      0.00
   10    4   10      0.17      0.00
   10    4   11      0.46      0.00
   10    4   12      0.01      0.00
  -10    6   20     -1.25      0.00
  -10    6   19      2.37      0.00
  -10    6   18     -0.13      0.00
  -10    6   17      1.17      0.00
  -10    6   16     -0.73      0.00
  -10    6   15     -1.56      0.00
  -10    6   14      2.02      0.00
  -10    6   13      0.22      0.00
  -10    6   12     -1.29      0.00
  -10    6   11      0.89      0.00
  -10    6   10     -0.61      0.00
  -10    6    9      0.04      0.00
  -10    6    8     -2.22      0.00
  -10    6    7      0.35      0.00
  -10    6    6      7.56      0.00
  -10    6    5      2.37      0.00
  -10    6    4     -3.67      0.00
  -10    6    3      0.81      0.00
  -10    6    2      1.01      0.00
  -10    6    1      0.55      0.00
   10    6    0     -8.63      0.00
   10    6    1      0.89      0.00
   10    6    2      5.55      0.00
   10    6    3      0.75      0.00
   10    6    4     -2.42      0.00
   10    6    5      1.31      0.00
   10    6    6      0.95      0.00
   10    6    7     -1.15      0.00
   10    6    8      0.85      0.00
   10    6    9     -1.86      0.00
   10    6   10     -0.69      0.00
   10    6   11      1.15      0.00
  -10    8   19      0.25      0.00
  -10    8   18     -0.72      0.00
  -10    8   17     -0.24      0.00
  -10    8   16      0.02      0.00
  -10    8   15     -3.43      0.00
  -10    8   14      2.22      0.00
  -10    8   13      4.68      0.00
  -10    8   12     -0.16      0.00
  -10    8   11     -1.24      0.00
  -10    8   10      0.67      0.00
  -10    8    9      0.62      0.00
  -10    8    8     -1.19      0.00
  -10    8    7     -4.34      0.00
  -10    8    6     -0.74      0.00
  -10    8    5      3.96      0.00
  -10    8    4      2.94      0.00
  -10    8    3     -4.26      0.00
  -10    8    2     -2.04      0.00
  -10    8    1     -0.35      0.00
   10    8    0      1.06      0.00
   10    8    1     -2.74      0.00
   10    8    2      1.80      0.00
   10    8    3     -1.77      0.00
   10    8    4      1.93      0.00
   10    8    5      2.60      0.00
   10    8    6     -1.27      0.00
   10    8    7     -0.52      0.00
   10    8    8      1.28      0.00
   10    8    9      1.53      0.00
   10    8   10     -0.99      0.00
   10    8   11      0.47      0.00
  -10   10   18     -4.39      0.00
  -10   10   17      0.66      0.00
  -10   10   16      2.77      0.00
  -10   10   15      2.33      0.00
  -10   10   14     -3.27      0.00
  -10   10   13     -2.27      0.00
  -10   10   12      0.88      0.00
  -10   10   11     -1.10      0.00
  -10   10   10     -0.14      0.00
  -10   10    9      1.99      0.00
  -10   10    8      0.79      0.00
  -10   10    7      0.97      0.00
  -10   10    6     -3.62      0.00
  -10   10    5     -0.81      0.00
  -10   10    4      1.50      0.00
  -10   10    3     -1.43      0.00
  -10   10    2     -0.71      0.00
  -10   10    1      3.83      0.00
   10   10    0      3.34      0.00
   10   10    1      1.91      0.00
   10   10    2     -5.21      0.00
   10   10    3      0.08      0.00
   10   10    4     -1.61      0.00
   10   10    5      1.77      0.00
   10   10    6      1.22      0.00
   10   10    7     -1.17      0.00
   10   10    8      0.77      0.00
   10   10    9     -0.01      0.00
   10   10   10     -2.36      0.00
  -10   12   17      1.40      0.00
  -10   12   16      0.25      0.00
  -10   12   15     -0.30      0.00
  -10   12   14      0.39      0.00
  -10   12   13      0.09      0.00
  -10   12   12      0.30      0.00
  -10   12   11      1.28      0.00
  -10   12   10     -0.40      0.00
  -10   12    9     -2.06      0.00
  -10   12    8     -0.15      0.00
  -10   12    7      1.10      0.00
  -10   12    6     -0.31      0.00
  -10   12    5     -1.61      0.00
  -10   12    4      2.04      0.00
  -10   12    3      1.14      0.00
  -10   12    2     -1.97      0.00
  -10   12    1     -0.39      0.00
   10   12    0     -0.15      0.00
   10   12    1      1.11      0.00
   10   12    2      0.88      0.00
   10   12    3     -1.16      0.00
   10   12    4      1.35      0.00
   10   12    5     -2.30      0.00
   10   12    6      1.33      0.00
   10   12    7      0.28      0.00
   10   12    8      1.57      0.00
   10   12    9      1.75      0.00
  -10   14   16     -2.13      0.00
  -10   14   15      1.53      0.00
  -10   14   14      0.14      0.00
  -10   14   13     -1.46      0.00
  -10   14   12      0.26      0.00
  -10   14   11     -1.62      0.00
  -10   14   10      0.12      0.00
  -10   14    9     -1.18      0.00
  -10   14    8     -2.28      0.00
  -10   14    7      1.36      0.00
  -10   14    6      1.75      0.00
  -10   14    5      0.10      0.00
  -10   14    4     -0.07      0.00
  -10   14    3      2.48      0.00
  -10   14    2      0.90      0.00
  -10   14    1     -3.07      0.00
   10   14    0      0.07      0.00
   10   14    1     -1.63      0.00
   10   14    2     -0.09      0.00
   10   14    3     -0.75      0.00
   10   14    4     -2.13      0.00
   10   14    5      0.63      0.00
   10   14    6      0.43      0.00
   10   14    7      0.51      0.00
  -10   16   14     -2.18      0.00
  -10   16   13      1.89      0.00
  -10   16   12     -0.38      0.00
  -10   16   11      0.07      0.00
  -10   16   10      1.80      0.00
  -10   16    9      0.66      0.00
  -10   16    8      0.29      0.00
  -10   16    7      0.92      0.00
  -10   16    6      0.24      0.00
  -10   16    5      0.21      0.00
  -10   16    4     -0.95      0.00
  -10   16    3     -1.79      0.00
  -10   16    2      1.79      0.00
  -10   16    1      1.97      0.00
   10   16    0     -1.48      0.00
   10   16    1      1.11      0.00
   10   16    2      2.28      0.00
   10   16    3      0.49      0.00
   10   16    4     -1.28      0.00
   10   16    5     -0.73      0.00
  -10   18   11      1.00      0.00
  -10   18   10     -0.47      0.00
  -10   18    9     -1.62      0.00
  -10   18    8      2.08      0.00
  -10   18    7      2.81      0.00
  -10   18    6      0.09      0.00
  -10   18    5     -2.89      0.00
  -10   18    4     -3.55      0.00
  -10   18    3      1.56      0.00
  -10   18    2      1.92      0.00
  -10   18    1     -0.32      0.00
   10   18    0     -1.17      0.00
   10   18    1      1.53      0.00
   10   18    2      0.63      0.00
  -11    1   20      1.84      0.00
  -11    1   19      1.78      0.00
  -11    1   18     -1.00      0.00
  -11    1   17      4.37      0.00
  -11    1   16      0.38      0.00
  -11    1   15     -0.60      0.00
  -11    1   14     -1.62      0.00
  -11    1   13      3.43      0.00
  -11    1   12      2.64      0.00
  -11    1   11      1.75      0.00
  -11    1   10     -0.59      0.00
  -11    1    9      0.08      0.00
  -11    1    8      3.96      0.00
  -11    1    7     -7.89      0.00
  -11    1    6     -2.67      0.00
  -11    1    5     -6.12      0.00
  -11    1    4     -3.12      0.00
  -11    1    3      6.20      0.00
  -11    1    2     -0.87      0.00
  -11    1    1      0.05      0.00
   11    1    0      4.54      0.00
   11    1    1     -1.13      0.00
   11    1    2     -4.14      0.00
   11    1    3      0.93      0.00
   11    1    4      0.84      0.00
   11    1    5     -1.91      0.00
   11    1    6      1.23      0.00
   11    1    7     -3.23      0.00
   11    1    8      1.09      0.00
   11    1    9      0.55      0.00
   11    1   10      0.28      0.00
   11    1   11      1.60      0.00
  -11    3   20     -2.64      0.00
  -11    3   19     -0.73      0.00
  -11    3   18      1.28      0.00
  -11    3   17     -1.24      0.00
  -11    3   16     -2.11      0.00
  -11    3   15     -1.90      0.00
  -11    3   14      3.55      0.00
  -11    3   13     -0.75      0.00
  -11    3   12     -3.90      0.00
  -11    3   11      1.86      0.00
  -11    3   10     -2.25      0.00
  -11    3    9     -0.49      0.00
  -11    3    8     -3.88      0.00
  -11    3    7      0.55      0.00
  -11    3    6      1.84      0.00
  -11    3    5      1.06      0.00
  -11    3    4      7.85      0.00
  -11    3    3      5.37      0.00
  -11    3    2     -1.41      0.00
  -11    3    1     -1.64      0.00
   11    3    0     -4.70      0.00
   11    3    1      1.57      0.00
   11    3    2      3.38      0.00
   11    3    3      1.87      0.00
   11    3    4      1.22      0.00
   11    3    5     -1.62      0.00
   11    3    6     -0.98      0.00
   11    3    7      0.99      0.00
   11    3    8     -2.11      0.00
   11    3    9      1.76      0.00
   11    3   10     -0.46      0.00
   11    3   11     -0.37      0.00
  -11    5   20      4.34      0.00
  -11    5   19      0.06      0.00
  -11    5   18     -0.41      0.00
  -11    5   17     -0.54      0.00
  -11    5   16     -0.91      0.00
  -11    5   15      3.16      0.00
  -11    5   14      2.05      0.00
  -11    5   13     -2.72      0.00
  -11    5   12     -0.06      0.00
  -11    5   11     -1.96      0.00
  -11    5   10      3.73      0.00
  -11    5    9     -0.65      0.00
  -11    5    8      1.93      0.00
  -11    5    7      5.36      0.00
  -11    5    6     -2.73      0.00
  -11    5    5     -2.97      0.00
  -11    5    4     -2.73      0.00
  -11    5    3     -5.11      0.00
  -11    5    2      0.89      0.00
  -11    5    1     -3.06      0.00
   11    5    0     -0.72      0.00
   11    5    1     -7.69      0.00
   11    5    2      1.95      0.00
   11    5    3     -0.99      0.00
   11    5    4     -1.39      0.00
   11    5    5      2.08      0.00
   11    5    6      1.38      0.00
   11    5    7      0.43      0.00
   11    5    8      0.38      0.00
   11    5    9     -0.61      0.00
   11    5   10     -0.28      0.00
   11    5   11      0.90      0.00
  -11    7   19     -1.53      0.00
  -11    7   18     -0.28      0.00
  -11    7   17      0.67      0.00
  -11    7   16     -0.93      0.00
  -11    7   15      1.36      0.00
  -11    7   14      2.49      0.00
  -11    7   13      0.43      0.00
  -11    7   12     -4.08      0.00
  -11    7   11      1.33      0.00
  -11    7   10     -0.10      0.00
  -11    7    9     -0.11      0.00
  -11    7    8     -5.17      0.00
  -11    7    7     -3.34      0.00
  -11    7    6      6.75      0.00
  -11    7    5      4.63      0.00
  -11    7    4     -3.06      0.00
  -11    7    3     -0.81      0.00
  -11    7    2      2.89      0.00
  -11    7    1      4.08      0.00
   11    7    0      1.45      0.00
   11    7    1      3.24      0.00
   11    7    2     -0.26      0.00
   11    7    3     -0.45      0.00
   11    7    4     -4.93      0.00
   11    7    5      0.90      0.00
   11    7    6      1.43      0.00
   11    7    7     -0.24      0.00
   11    7    8     -1.60      0.00
   11    7    9      0.81      0.00
   11    7   10      1.44      0.00
  -11    9   18     -0.62      0.00
  -11    9   17      0.50      0.00
  -11    9   16      4.39      0.00
  -11    9   15     -5.85      0.00
  -11    9   14     -6.50      0.00
  -11    9   13      1.59      0.00
  -11    9   12      3.85      0.00
  -11    9   11     -1.38      0.00
  -11    9   10      1.20      0.00
  -11    9    9      0.84      0.00
  -11    9    8      3.07      0.00
  -11    9    7     -1.14      0.00
  -11    9    6     -4.21      0.00
  -11    9    5      2.74      0.00
  -11    9    4      1.72      0.00
  -11    9    3     -2.53      0.00
  -11    9    2     -0.33      0.00
  -11    9    1      1.18      0.00
   11    9    0     -1.02      0.00
   11    9    1      4.83      0.00
   11    9    2     -0.69      0.00
   11    9    3     -0.23      0.00
   11    9    4      1.31      0.00
   11    9    5     -2.62      0.00
   11    9    6     -0.06      0.00
   11    9    7     -0.01      0.00
   11    9    8      0.93      0.00
   11    9    9      0.28      0.00
  -11   11   17     -0.18      0.00
  -11   11   16     -0.83      0.00
  -11   11   15      3.11      0.00
  -11   11   14      0.54      0.00
  -11   11   13      0.26      0.00
  -11   11   12      1.02      0.00
  -11   11   11      0.21      0.00
  -11   11   10     -2.58      0.00
  -11   11    9      0.17      0.00
  -11   11    8      2.70      0.00
  -11   11    7      0.51      0.00
  -11   11    6     -1.80      0.00
  -11   11    5     -1.01      0.00
  -11   11    4      1.23      0.00
  -11   11    3     -0.36      0.00
  -11   11    2     -2.18      0.00
  -11   11    1     -0.38      0.00
   11   11    0      0.23      0.00
   11   11    1     -3.17      0.00
   11   11    2      0.87      0.00
   11   11    3     -0.04      0.00
   11   11    4      2.87      0.00
   11   11    5     -1.19      0.00
   11   11    6     -1.90      0.00
   11   11    7      1.26      0.00
   11   11    8     -1.62      0.00
  -11   13   16      1.63      0.00
  -11   13   15      0.38      0.00
  -11   13   14     -0.46      0.00
  -11   13   13     -0.31      0.00
  -11   13   12     -0.95      0.00
  -11   13   11      0.15      0.00
  -11   13   10      0.63      0.00
  -11   13    9     -1.77      0.00
  -11   13    8      0.20      0.00
  -11   13    7      1.28      0.00
  -11   13    6     -0.18      0.00
  -11   13    5     -0.25      0.00
  -11   13    4      0.86      0.00
  -11   13    3      1.85      0.00
  -11   13    2     -0.39      0.00
  -11   13    1     -2.45      0.00
   11   13    0      1.50      0.00
   11   13    1     -0.80      0.00
   11   13    2     -0.38      0.00
   11   13    3      2.33      0.00
   11   13    4     -1.63      0.00
   11   13    5      0.47      0.00
   11   13    6     -1.22      0.00
   11   13    7      1.84      0.00
  -11   15   14      2.87      0.00
  -11   15   13      1.01      0.00
  -11   15   12     -0.48      0.00
  -11   15   11      0.92      0.00
  -11   15   10      0.98      0.00
  -11   15    9      1.61      0.00
  -11   15    8     -0.52      0.00
  -11   15    7     -2.12      0.00
  -11   15    6      0.35      0.00
  -11   15    5     -0.77      0.00
  -11   15    4     -2.60      0.00
  -11   15    3      1.06      0.00
  -11   15    2      2.11      0.00
  -11   15    1     -0.41      0.00
   11   15    0     -1.67      0.00
   11   15    1     -1.85      0.00
   11   15    2     -1.32      0.00
   11   15    3      1.38      0.00
   11   15    4      2.81      0.00
   11   15    5      1.20      0.00
  -11   17   12     -0.54      0.00
  -11   17   11      0.40      0.00
  -11   17   10     -1.04      0.00
  -11   17    9     -0.35      0.00
  -11   17    8     -0.10      0.00
  -11   17    7     -0.07      0.00
  -11   17    6     -0.06      0.00
  -11   17    5     -1.44      0.00
  -11   17    4      0.75      0.00
  -11   17    3     -0.11      0.00
  -11   17    2     -1.34      0.00
  -11   17    1      0.92      0.00
   11   17    0      1.36      0.00
   11   17    1      1.12      0.00
   11   17    2     -1.63      0.00
  -11   19    7      0.12      0.00
  -11   19    6      3.20      0.00
  -11   19    5      3.88      0.00
  -11   19    4     -0.50      0.00
  -11   19    3     -3.13      0.00
  -11   19    2      0.02      0.00
  -12    0   20      3.31      0.00
  -12    0   18     -0.58      0.00
  -12    0   16      2.27      0.00
  -12    0   14      2.49      0.00
  -12    0   12     -0.12      0.00
  -12    0   10     -4.51      0.00
  -12    0    8     -2.66      0.00
  -12    0    6     -0.10      0.00
  -12    0    4     10.28      0.00
  -12    0    2      0.30      0.00
   12    0    0      0.12      0.00
   12    0    2     -1.86      0.00
   12    0    4      4.00      0.00
   12    0    6     -1.05      0.00
   12    0    8     -4.45      0.00
   12    0   10      0.08      0.00
  -12    2   20     -2.47      0.00
  -12    2   19      0.68      0.00
  -12    2   18      0.68      0.00
  -12    2   17      0.37      0.00
  -12    2   16     -0.24      0.00
  -12    2   15      1.78      0.00
  -12    2   14     -2.92      0.00
  -12    2   13     -5.80      0.00
  -12    2   12      1.46      0.00
  -12    2   11      0.40      0.00
  -12    2   10      1.51      0.00
  -12    2    9      1.54      0.00
  -12    2    8      2.85      0.00
  -12    2    7      2.60      0.00
  -12    2    6     -1.42      0.00
  -12    2    5      2.52      0.00
  -12    2    4     -3.33      0.00
  -12    2    3     -2.97      0.00
  -12    2    2     -2.88      0.00
  -12    2    1     -5.01      0.00
   12    2    0     -0.87      0.00
   12    2    1     -5.50      0.00
   12    2    2     -0.08      0.00
   12    2    3      2.30      0.00
   12    2    4     -0.53      0.00
   12    2    5      2.57      0.00
   12    2    6     -0.78      0.00
   12    2    7      0.33      0.00
   12    2    8      2.58      0.00
   12    2    9     -1.31      0.00
   12    2   10     -0.16      0.00
  -12    4   20      0.05      0.00
  -12    4   19      0.11      0.00
  -12    4   18     -0.95      0.00
  -12    4   17      0.10      0.00
  -12    4   16      0.84      0.00
  -12    4   15     -0.85      0.00
  -12    4   14     -1.47      0.00
  -12    4   13      2.64      0.00
  -12    4   12     -0.47      0.00
  -12    4   11      2.75      0.00
  -12    4   10      1.20      0.00
  -12    4    9     -1.92      0.00
  -12    4    8      0.05      0.00
  -12    4    7     -4.91      0.00
  -12    4    6     -1.57      0.00
  -12    4    5     -0.43      0.00
  -12    4    4     -1.65      0.00
  -12    4    3      3.90      0.00
  -12    4    2      3.57      0.00
  -12    4    1     -0.70      0.00
   12    4    0      4.46      0.00
   12    4    1     -1.69      0.00
   12    4    2      0.50      0.00
   12    4    3      0.79      0.00
   12    4    4     -4.01      0.00
   12    4    5     -1.54      0.00
   12    4    6      0.70      0.00
   12    4    7     -1.17      0.00
   12    4    8      1.72      0.00
   12    4    9      0.51      0.00
   12    4   10     -1.14      0.00
  -12    6   19      0.08      0.00
  -12    6   18      1.17      0.00
  -12    6   17      1.15      0.00
  -12    6   16      0.21      0.00
  -12    6   15     -1.83      0.00
  -12    6   14      1.61      0.00
  -12    6   13     -0.59      0.00
  -12    6   12      1.17      0.00
  -12    6   11     -1.40      0.00
  -12    6   10     -1.11      0.00
  -12    6    9     -2.53      0.00
  -12    6    8     -2.17      0.00
  -12    6    7      7.70      0.00
  -12    6    6      4.49      0.00
  -12    6    5     -1.83      0.00
  -12    6    4     -0.77      0.00
  -12    6    3      0.32      0.00
  -12    6    2     -1.12      0.00
  -12    6    1     -0.27      0.00
   12    6    0     -3.61      0.00
   12    6    1      3.13      0.00
   12    6    2      0.35      0.00
   12    6    3      2.38      0.00
   12    6    4      0.68      0.00
   12    6    5     -1.35      0.00
   12    6    6      1.02      0.00
   12    6    7     -0.77      0.00
   12    6    8     -1.29      0.00
   12    6    9     -0.23      0.00
  -12    8   19     -0.82      0.00
  -12    8   18     -2.02      0.00
  -12    8   17      2.78      0.00
  -12    8   16     -4.02      0.00
  -12    8   15     -5.58      0.00
  -12    8   14      2.09      0.00
  -12    8   13      7.53      0.00
  -12    8   12     -1.77      0.00
  -12    8   11     -1.92      0.00
  -12    8   10      1.13      0.00
  -12    8    9      3.32      0.00
  -12    8    8      1.26      0.00
  -12    8    7     -6.88      0.00
  -12    8    6      0.42      0.00
  -12    8    5      2.42      0.00
  -12    8    4     -2.57      0.00
  -12    8    3     -2.94      0.00
  -12    8    2     -0.25      0.00
  -12    8    1      4.20      0.00
   12    8    0     -0.17      0.00
   12    8    1      1.79      0.00
   12    8    2      1.00      0.00
   12    8    3     -3.80      0.00
   12    8    4      1.69      0.00
   12    8    5      2.22      0.00
   12    8    6      0.17      0.00
   12    8    7     -1.48      0.00
   12    8    8      0.19      0.00
   12    8    9      1.70      0.00
  -12   10   18      2.81      0.00
  -12   10   17     -0.16      0.00
  -12   10   16      4.93      0.00
  -12   10   15      1.87      0.00
  -12   10   14     -1.84      0.00
  -12   10   13     -1.36      0.00
  -12   10   12     -0.22      0.00
  -12   10   11     -1.26      0.00
  -12   10   10     -1.13      0.00
  -12   10    9      1.54      0.00
  -12   10    8      0.27      0.00
  -12   10    7     -0.90      0.00
  -12   10    6     -3.13      0.00
  -12   10    5     -0.42      0.00
  -12   10    4      3.58      0.00
  -12   10    3      0.13      0.00
  -12   10    2     -0.29      0.00
  -12   10    1     -0.73      0.00
   12   10    0      2.27      0.00
   12   10    1     -0.70      0.00
   12   10    2     -1.80      0.00
   12   10    3     -1.39      0.00
   12   10    4      1.14      0.00
   12   10    5      0.95      0.00
   12   10    6     -1.39      0.00
   12   10    7      1.52      0.00
   12   10    8     -0.25      0.00
  -12   12   17     -0.25      0.00
  -12   12   16     -0.70      0.00
  -12   12   15      1.20      0.00
  -12   12   14     -1.20      0.00
  -12   12   13     -2.71      0.00
  -12   12   12      0.51      0.00
  -12   12   11      1.89      0.00
  -12   12   10     -0.96      0.00
  -12   12    9     -1.64      0.00
  -12   12    8      0.93      0.00
  -12   12    7      1.18      0.00
  -12   12    6     -0.06      0.00
  -12   12    5      0.90      0.00
  -12   12    4      1.82      0.00
  -12   12    3      1.66      0.00
  -12   12    2     -2.81      0.00
  -12   12    1     -0.70      0.00
   12   12    0      0.46      0.00
   12   12    1      0.45      0.00
   12   12    2     -0.54      0.00
   12   12    3      1.30      0.00
   12   12    4     -1.11      0.00
   12   12    5      0.48      0.00
   12   12    6      1.00      0.00
   12   12    7     -0.86      0.00
  -12   14   15      0.63      0.00
  -12   14   14      0.59      0.00
  -12   14   13     -0.60      0.00
  -12   14   12      1.48      0.00
  -12   14   11      0.38      0.00
  -12   14   10      0.27      0.00
  -12   14    9     -0.00      0.00
  -12   14    8     -2.12      0.00
  -12   14    7      1.33      0.00
  -12   14    6      0.49      0.00
  -12   14    5     -2.24      0.00
  -12   14    4      0.07      0.00
  -12   14    3     -0.01      0.00
  -12   14    2      1.53      0.00
  -12   14    1      0.25      0.00
   12   14    0     -0.77      0.00
   12   14    1      0.81      0.00
   12   14    2      0.27      0.00
   12   14    3     -3.01      0.00
   12   14    4     -1.33      0.00
   12   14    5     -0.86      0.00
  -12   16   13     -0.07      0.00
  -12   16   12      0.44      0.00
  -12   16   11     -0.31      0.00
  -12   16   10     -0.08      0.00
  -12   16    9     -0.22      0.00
  -12   16    8      1.42      0.00
  -12   16    7      0.97      0.00
  -12   16    6     -0.72      0.00
  -12   16    5      0.08      0.00
  -12   16    4     -0.81      0.00
  -12   16    3     -1.45      0.00
  -12   16    2      1.06      0.00
  -12   16    1      2.24      0.00
   12   16    0     -1.50      0.00
   12   16    1      1.35      0.00
   12   16    2      3.14      0.00
  -12   18    9     -0.86      0.00
  -12   18    8     -0.73      0.00
  -12   18    7      1.44      0.00
  -12   18    6      1.58      0.00
  -12   18    5      0.74      0.00
  -12   18    4     -0.11      0.00
  -12   18    3     -0.60      0.00
  -12   18    2     -1.10      0.00
  -12   18    1     -0.29      0.00
  -13    1   20      1.19      0.00
  -13    1   19      2.69      0.00
  -13    1   18      0.43      0.00
  -13    1   17     -6.95      0.00
  -13    1   16     -1.02      0.00
  -13    1   15     -1.36      0.00
  -13    1   14     -2.02      0.00
  -13    1   13      0.84      0.00
  -13    1   12      1.46      0.00
  -13    1   11      1.39      0.00
  -13    1   10      2.67      0.00
  -13    1    9     -4.17      0.00
  -13    1    8     -1.91      0.00
  -13    1    7     -2.31      0.00
  -13    1    6     -0.73      0.00
  -13    1    5     -2.53      0.00
  -13    1    4     -0.79      0.00
  -13    1    3      0.77      0.00
  -13    1    2     -1.59      0.00
  -13    1    1      0.32      0.00
   13    1    0      2.82      0.00
   13    1    1     -2.79      0.00
   13    1    2     -1.72      0.00
   13    1    3      2.28      0.00
   13    1    4     -0.35      0.00
   13    1    5     -2.92      0.00
   13    1    6      1.32      0.00
   13    1    7     -2.12      0.00
   13    1    8     -0.04      0.00
   13    1    9      3.02      0.00
  -13    3   20      1.11      0.00
  -13    3   19     -1.58      0.00
  -13    3   18     -2.30      0.00
  -13    3   17      2.09      0.00
  -13    3   16     -0.22      0.00
  -13    3   15      3.01      0.00
  -13    3   14      5.07      0.00
  -13    3   13      0.02      0.00
  -13    3   12     -2.97      0.00
  -13    3   11      1.55      0.00
  -13    3   10     -3.11      0.00
  -13    3    9     -0.93      0.00
  -13    3    8      1.56      0.00
  -13    3    7      2.04      0.00
  -13    3    6      3.71      0.00
  -13    3    5      1.26      0.00
  -13    3    4      1.11      0.00
  -13    3    3      1.87      0.00
  -13    3    2     -1.16      0.00
  -13    3    1     -0.03      0.00
   13    3    0      0.79      0.00
   13    3    1     -0.01      0.00
   13    3    2      0.82      0.00
   13    3    3      2.74      0.00
   13    3    4      0.22      0.00
   13    3    5     -0.79      0.00
   13    3    6     -0.82      0.00
   13    3    7      0.61      0.00
   13    3    8     -0.62      0.00
   13    3    9     -1.08      0.00
  -13    5   19     -0.62      0.00
  -13    5   18      1.38      0.00
  -13    5   17      0.81      0.00
  -13    5   16     -1.27      0.00
  -13    5   15     -0.20      0.00
  -13    5   14      1.07      0.00
  -13    5   13     -1.15      0.00
  -13    5   12     -2.73      0.00
  -13    5   11     -1.21      0.00
  -13    5   10      1.04      0.00
  -13    5    9      0.54      0.00
  -13    5    8      1.78      0.00
  -13    5    7      1.32      0.00
  -13    5    6     -2.40      0.00
  -13    5    5     -4.54      0.00
  -13    5    4     -2.06      0.00
  -13    5    3     -2.07      0.00
  -13    5    2      2.15      0.00
  -13    5    1      1.79      0.00
   13    5    0     -4.49      0.00
   13    5    1     -0.29      0.00
   13    5    2      1.38      0.00
   13    5    3     -0.68      0.00
   13    5    4      0.86      0.00
   13    5    5     -0.62      0.00
   13    5    6      1.32      0.00
   13    5    7      1.93      0.00
   13    5    8     -1.48      0.00
   13    5    9     -0.08      0.00
  -13    7   19     -1.80      0.00
  -13    7   18      0.31      0.00
  -13    7   17     -1.00      0.00
  -13    7   16     -1.88      0.00
  -13    7   15      0.83      0.00
  -13    7   14      4.51      0.00
  -13    7   13     -1.69      0.00
  -13    7   12     -2.70      0.00
  -13    7   11      1.89      0.00
  -13    7   10      3.02      0.00
  -13    7    9      1.73      0.00
  -13    7    8     -5.55      0.00
  -13    7    7     -0.60      0.00
  -13    7    6      2.18      0.00
  -13    7    5      0.21      0.00
  -13    7    4      0.41      0.00
  -13    7    3      1.09      0.00
  -13    7    2      5.12      0.00
  -13    7    1     -0.38      0.00
   13    7    0     -2.32      0.00
   13    7    1     -0.16      0.00
   13    7    2      1.31      0.00
   13    7    3     -1.65      0.00
   13    7    4     -1.52      0.00
   13    7    5      1.41      0.00
   13    7    6     -0.46      0.00
   13    7    7     -0.47      0.00
   13    7    8     -0.35      0.00
  -13    9   18      0.37      0.00
  -13    9   17      1.92      0.00
  -13    9   16      1.43      0.00
  -13    9   15     -2.84      0.00
  -13    9   14     -3.94      0.00
  -13    9   13      0.13      0.00
  -13    9   12      2.28      0.00
  -13    9   11     -0.93      0.00
  -13    9   10      0.06      0.00
  -13    9    9     -0.54      0.00
  -13    9    8     -0.51      0.00
  -13    9    7     -1.32      0.00
  -13    9    6     -0.67      0.00
  -13    9    5      4.29      0.00
  -13    9    4      1.32      0.00
  -13    9    3     -0.36      0.00
  -13    9    2     -4.30      0.00
  -13    9    1     -1.72      0.00
   13    9    0      2.86      0.00
   13    9    1      1.07      0.00
   13    9    2     -0.09      0.00
   13    9    3     -2.27      0.00
   13    9    4      0.20      0.00
   13    9    5      2.17      0.00
   13    9    6     -1.87      0.00
   13    9    7      0.70      0.00
  -13   11   17     -1.39      0.00
  -13   11   16      3.91      0.00
  -13   11   15      1.03      0.00
  -13   11   14     -3.58      0.00
  -13   11   13      1.28      0.00
  -13   11   12      2.05      0.00
  -13   11   11     -0.12      0.00
  -13   11   10     -0.54      0.00
  -13   11    9     -1.39      0.00
  -13   11    8      2.57      0.00
  -13   11    7      2.13      0.00
  -13   11    6      0.08      0.00
  -13   11    5     -1.08      0.00
  -13   11    4      0.90      0.00
  -13   11    3     -1.20      0.00
  -13   11    2     -1.67      0.00
  -13   11    1      0.25      0.00
   13   11    0      0.64      0.00
   13   11    1     -1.39      0.00
   13   11    2     -1.14      0.00
   13   11    3      2.57      0.00
   13   11    4     -1.19      0.00
   13   11    5     -1.73      0.00
   13   11    6      0.82      0.00
  -13   13   15      1.53      0.00
  -13   13   14      1.45      0.00
  -13   13   13      0.22      0.00
  -13   13   12     -0.35      0.00
  -13   13   11      0.07      0.00
  -13   13   10      0.78      0.00
  -13   13    9     -1.51      0.00
  -13   13    8      0.86      0.00
  -13   13    7      1.60      0.00
  -13   13    6     -3.30      0.00
  -13   13    5     -1.42      0.00
  -13   13    4     -0.88      0.00
  -13   13    3      0.68      0.00
  -13   13    2      2.86      0.00
  -13   13    1     -0.52      0.00
   13   13    0     -1.33      0.00
   13   13    1     -0.19      0.00
   13   13    2      0.78      0.00
   13   13    3      1.24      0.00
   13   13    4      1.35      0.00
   13   13    5     -1.29      0.00
  -13   15   13     -1.54      0.00
  -13   15   12     -0.73      0.00
  -13   15   11      2.39      0.00
  -13   15   10     -1.59      0.00
  -13   15    9     -0.61      0.00
  -13   15    8      0.77      0.00
  -13   15    7     -1.34      0.00
  -13   15    6     -0.22      0.00
  -13   15    5      0.06      0.00
  -13   15    4     -0.35      0.00
  -13   15    3     -0.40      0.00
  -13   15    2      1.29      0.00
  -13   15    1      0.60      0.00
   13   15    0     -0.26      0.00
   13   15    1     -0.95      0.00
   13   15    2     -1.58      0.00
  -13   17   10      0.23      0.00
  -13   17    9     -1.01      0.00
  -13   17    8      0.63      0.00
  -13   17    7      1.24      0.00
  -13   17    6      1.26      0.00
  -13   17    5      1.77      0.00
  -13   17    4     -0.53      0.00
  -13   17    3     -1.59      0.00
  -13   17    2     -1.71      0.00
  -13   17    1      0.64      0.00
  -14    0   20     -0.85      0.00
  -14    0   18    -10.10      0.00
  -14    0   16      3.31      0.00
  -14    0   14     -0.94      0.00
  -14    0   12     -1.22      0.00
  -14    0   10     -5.99      0.00
  -14    0    8      1.80      0.00
  -14    0    6      3.09      0.00
  -14    0    4      2.73      0.00
  -14    0    2     -1.47      0.00
   14    0    0      3.20      0.00
   14    0    2     -3.11      0.00
   14    0    4      1.93      0.00
   14    0    6     -1.74      0.00
   14    0    8     -3.09      0.00
  -14    2   20      0.43      0.00
  -14    2   19     -0.36      0.00
  -14    2   18      8.15      0.00
  -14    2   17      1.17      0.00
  -14    2   16     -0.07      0.00
  -14    2   15      1.45      0.00
  -14    2   14     -0.39      0.00
  -14    2   13     -3.99      0.00
  -14    2   12      1.96      0.00
  -14    2   11      0.26      0.00
  -14    2   10      1.14      0.00
  -14    2    9      5.16      0.00
  -14    2    8      0.38      0.00
  -14    2    7      2.52      0.00
  -14    2    6     -2.29      0.00
  -14    2    5     -2.19      0.00
  -14    2    4     -0.29      0.00
  -14    2    3     -1.39      0.00
  -14    2    2      0.04      0.00
  -14    2    1     -0.35      0.00
   14    2    0     -0.82      0.00
   14    2    1     -0.94      0.00
   14    2    2     -0.59      0.00
   14    2    3      1.80      0.00
   14    2    4     -0.18      0.00
   14    2    5      0.73      0.00
   14    2    6      1.41      0.00
   14    2    7     -1.80      0.00
   14    2    8      2.75      0.00
  -14    4   19      2.58      0.00
  -14    4   18      0.01      0.00
  -14    4   17     -1.32      0.00
  -14    4   16     -2.84      0.00
  -14    4   15     -1.05      0.00
  -14    4   14     -0.48      0.00
  -14    4   13     -0.01      0.00
  -14    4   12      0.27      0.00
  -14    4   11     -0.74      0.00
  -14    4   10      0.97      0.00
  -14    4    9     -4.15      0.00
  -14    4    8     -1.88      0.00
  -14    4    7     -0.42      0.00
  -14    4    6     -2.97      0.00
  -14    4    5      1.73      0.00
  -14    4    4      1.50      0.00
  -14    4    3      2.37      0.00
  -14    4    2      3.34      0.00
  -14    4    1     -4.07      0.00
   14    4    0     -1.78      0.00
   14    4    1     -2.29      0.00
   14    4    2      0.71      0.00
   14    4    3     -1.16      0.00
   14    4    4     -0.98      0.00
   14    4    5     -1.17      0.00
   14    4    6     -0.05      0.00
   14    4    7      3.15      0.00
   14    4    8     -1.83      0.00
  -14    6   19      0.91      0.00
  -14    6   18     -1.23      0.00
  -14    6   17     -1.03      0.00
  -14    6   16      0.29      0.00
  -14    6   15      1.18      0.00
  -14    6   14      0.04      0.00
  -14    6   13      1.76      0.00
  -14    6   12      1.12      0.00
  -14    6   11      0.54      0.00
  -14    6   10      1.63      0.00
  -14    6    9     -0.38      0.00
  -14    6    8      1.34      0.00
  -14    6    7      0.30      0.00
  -14    6    6      1.98      0.00
  -14    6    5      2.46      0.00
  -14    6    4     -1.79      0.00
  -14    6    3     -0.00      0.00
  -14    6    2     -3.04      0.00
  -14    6    1     -0.96      0.00
   14    6    0      0.94      0.00
   14    6    1      1.81      0.00
   14    6    2      2.78      0.00
   14    6    3     -0.49      0.00
   14    6    4     -2.70      0.00
   14    6    5      0.76      0.00
   14    6    6      1.21      0.00
   14    6    7     -2.17      0.00
  -14    8   18     -0.97      0.00
  -14    8   17      0.78      0.00
  -14    8   16      0.07      0.00
  -14    8   15     -4.62      0.00
  -14    8   14      0.90      0.00
  -14    8   13      4.62      0.00
  -14    8   12     -1.87      0.00
  -14    8   11     -2.40      0.00
  -14    8   10     -1.53      0.00
  -14    8    9     -0.30      0.00
  -14    8    8      0.84      0.00
  -14    8    7     -1.73      0.00
  -14    8    6      1.21      0.00
  -14    8    5      0.12      0.00
  -14    8    4     -0.42      0.00
  -14    8    3     -3.00      0.00
  -14    8    2     -2.10      0.00
  -14    8    1      3.91      0.00
   14    8    0      1.06      0.00
   14    8    1     -0.41      0.00
   14    8    2      1.39      0.00
   14    8    3      1.11      0.00
   14    8    4     -1.20      0.00
   14    8    5      0.28      0.00
   14    8    6     -0.96      0.00
  -14   10   17      5.36      0.00
  -14   10   16      1.24      0.00
  -14   10   15     -3.92      0.00
  -14   10   14     -0.24      0.00
  -14   10   13      0.86      0.00
  -14   10   12     -0.73      0.00
  -14   10   11      0.87      0.00
  -14   10   10     -1.23      0.00
  -14   10    9      3.28      0.00
  -14   10    8      1.88      0.00
  -14   10    7     -2.54      0.00
  -14   10    6     -1.46      0.00
  -14   10    5      0.80      0.00
  -14   10    4      0.20      0.00
  -14   10    3     -0.31      0.00
  -14   10    2      1.60      0.00
  -14   10    1      0.03      0.00
   14   10    0      0.71      0.00
   14   10    1      1.08      0.00
   14   10    2     -3.92      0.00
   14   10    3      0.78      0.00
   14   10    4      3.32      0.00
   14   10    5     -1.31      0.00
  -14   12   16      0.20      0.00
  -14   12   15      3.48      0.00
  -14   12   14     -0.77      0.00
  -14   12   13      0.03      0.00
  -14   12   12      0.95      0.00
  -14   12   11     -1.65      0.00
  -14   12   10      0.43      0.00
  -14   12    9      0.63      0.00
  -14   12    8     -1.09      0.00
  -14   12    7     -1.96      0.00
  -14   12    6     -0.12      0.00
  -14   12    5     -0.43      0.00
  -14   12    4     -1.23      0.00
  -14   12    3      3.78      0.00
  -14   12    2      2.02      0.00
  -14   12    1     -2.64      0.00
   14   12    0     -1.60      0.00
   14   12    1     -0.19      0.00
   14   12    2      0.38      0.00
   14   12    3     -2.74      0.00
   14   12    4      0.92      0.00
  -14   14   14     -0.52      0.00
  -14   14   13     -1.80      0.00
  -14   14   12      1.11      0.00
  -14   14   11     -0.98      0.00
  -14   14   10     -0.60      0.00
  -14   14    9      0.93      0.00
  -14   14    8     -1.94      0.00
  -14   14    7      1.53      0.00
  -14   14    6      1.93      0.00
  -14   14    5     -0.14      0.00
  -14   14    4      0.54      0.00
  -14   14    3      0.27      0.00
  -14   14    2     -0.55      0.00
  -14   14    1      0.63      0.00
   14   14    0      0.57      0.00
   14   14    1      0.22      0.00
   14   14    2      1.23      0.00
  -14   16   10      2.28      0.00
  -14   16    9     -1.41      0.00
  -14   16    8      0.56      0.00
  -14   16    7      1.78      0.00
  -14   16    6      0.92      0.00
  -14   16    5     -0.95      0.00
  -14   16    4      0.13      0.00
  -14   16    3     -2.70      0.00
  -14   16    2     -2.34      0.00
  -14   16    1      1.15      0.00
  -15    1   19      5.54      0.00
  -15    1   18     -2.42      0.00
  -15    1   17     -4.78      0.00
  -15    1   16      0.28      0.00
  -15    1   15      2.27      0.00
  -15    1   14     -0.53      0.00
  -15    1   13      1.50      0.00
  -15    1   12      1.93      0.00
  -15    1   11      0.24      0.00
  -15    1   10      1.99      0.00
  -15    1    9     -2.51      0.00
  -15    1    8      0.83      0.00
  -15    1    7     -3.08      0.00
  -15    1    6     -2.06      0.00
  -15    1    5     -0.63      0.00
  -15    1    4     -1.46      0.00
  -15    1    3      2.69      0.00
  -15    1    2     -0.90      0.00
  -15    1    1     -0.90      0.00
   15    1    0      2.20      0.00
   15    1    1     -1.35      0.00
   15    1    2     -1.64      0.00
   15    1    3     -0.43      0.00
   15    1    4      1.10      0.00
   15    1    5     -2.25      0.00
   15    1    6      0.85      0.00
   15    1    7     -0.90      0.00
  -15    3   19     -2.19      0.00
  -15    3   18     -0.41      0.00
  -15    3   17      1.98      0.00
  -15    3   16     -0.01      0.00
  -15    3   15      0.38      0.00
  -15    3   14      0.64      0.00
  -15    3   13      0.17      0.00
  -15    3   12     -4.45      0.00
  -15    3   11      0.51      0.00
  -15    3   10     -2.02      0.00
  -15    3    9     -1.92      0.00
  -15    3    8      2.12      0.00
  -15    3    7      0.85      0.00
  -15    3    6      2.29      0.00
  -15    3    5     -0.05      0.00
  -15    3    4      0.54      0.00
  -15    3    3      1.66      0.00
  -15    3    2     -1.26      0.00
  -15    3    1     -1.16      0.00
   15    3    0      0.63      0.00
   15    3    1     -0.59      0.00
   15    3    2      1.20      0.00
   15    3    3      1.98      0.00
   15    3    4     -0.72      0.00
   15    3    5      0.03      0.00
   15    3    6     -3.89      0.00
   15    3    7      1.83      0.00
  -15    5   19     -3.42      0.00
  -15    5   18     -1.76      0.00
  -15    5   17      0.41      0.00
  -15    5   16      1.50      0.00
  -15    5   15      0.58      0.00
  -15    5   14      2.89      0.00
  -15    5   13     -0.96      0.00
  -15    5   12     -1.03      0.00
  -15    5   11      3.10      0.00
  -15    5   10      1.88      0.00
  -15    5    9      2.29      0.00
  -15    5    8     -3.26      0.00
  -15    5    7     -1.50      0.00
  -15    5    6      1.19      0.00
  -15    5    5     -3.48      0.00
  -15    5    4      0.08      0.00
  -15    5    3     -1.33      0.00
  -15    5    2      0.05      0.00
  -15    5    1      3.00      0.00
   15    5    0     -1.72      0.00
   15    5    1     -1.08      0.00
   15    5    2      1.53      0.00
   15    5    3      0.98      0.00
   15    5    4      0.42      0.00
   15    5    5      0.86      0.00
   15    5    6      3.20      0.00
  -15    7   18      1.29      0.00
  -15    7   17      3.23      0.00
  -15    7   16     -3.69      0.00
  -15    7   15     -1.53      0.00
  -15    7   14      2.33      0.00
  -15    7   13     -2.09      0.00
  -15    7   12     -0.69      0.00
  -15    7   11     -1.39      0.00
  -15    7   10     -1.82      0.00
  -15    7    9      0.08      0.00
  -15    7    8     -1.42      0.00
  -15    7    7      0.90      0.00
  -15    7    6      0.53      0.00
  -15    7    5      2.08      0.00
  -15    7    4      1.85      0.00
  -15    7    3     -1.25      0.00
  -15    7    2      0.71      0.00
  -15    7    1      1.28      0.00
   15    7    0      0.33      0.00
   15    7    1      0.67      0.00
   15    7    2     -2.28      0.00
   15    7    3     -0.60      0.00
   15    7    4     -0.32      0.00
   15    7    5      2.06      0.00
   15    7    6     -0.62      0.00
  -15    9   17     -1.44      0.00
  -15    9   16     -1.45      0.00
  -15    9   15     -0.66      0.00
  -15    9   14     -1.43      0.00
  -15    9   13      1.09      0.00
  -15    9   12      2.25      0.00
  -15    9   11      0.50      0.00
  -15    9   10      1.81      0.00
  -15    9    9     -0.46      0.00
  -15    9    8     -1.06      0.00
  -15    9    7      1.51      0.00
  -15    9    6     -0.23      0.00
  -15    9    5      0.11      0.00
  -15    9    4     -0.33      0.00
  -15    9    3      0.26      0.00
  -15    9    2      0.27      0.00
  -15    9    1     -1.39      0.00
   15    9    0     -0.89      0.00
   15    9    1      2.68      0.00
   15    9    2      0.69      0.00
   15    9    3     -3.53      0.00
   15    9    4      0.43      0.00
   15    9    5     -0.90      0.00
  -15   11   16      6.90      0.00
  -15   11   15      0.41      0.00
  -15   11   14     -1.11      0.00
  -15   11   13      0.46      0.00
  -15   11   12     -2.80      0.00
  -15   11   11     -0.16      0.00
  -15   11   10      0.54      0.00
  -15   11    9     -1.55      0.00
  -15   11    8      1.91      0.00
  -15   11    7      0.30      0.00
  -15   11    6     -2.49      0.00
  -15   11    5     -1.25      0.00
  -15   11    4      1.95      0.00
  -15   11    3      2.28      0.00
  -15   11    2     -1.82      0.00
  -15   11    1     -1.30      0.00
   15   11    0      0.17      0.00
   15   11    1     -1.36      0.00
   15   11    2      1.65      0.00
   15   11    3      0.61      0.00
  -15   13   14     -3.76      0.00
  -15   13   13     -1.30      0.00
  -15   13   12      4.05      0.00
  -15   13   11      0.26      0.00
  -15   13   10     -1.36      0.00
  -15   13    9     -0.22      0.00
  -15   13    8      2.00      0.00
  -15   13    7      0.38      0.00
  -15   13    6     -0.23      0.00
  -15   13    5      2.00      0.00
  -15   13    4     -0.54      0.00
  -15   13    3     -3.75      0.00
  -15   13    2      1.42      0.00
  -15   13    1      2.57      0.00
   15   13    0     -0.10      0.00
   15   13    1     -0.62      0.00
  -15   15   11      1.09      0.00
  -15   15   10     -3.23      0.00
  -15   15    9      0.68      0.00
  -15   15    8      1.47      0.00
  -15   15    7     -0.62      0.00
  -15   15    6     -1.51      0.00
  -15   15    5      0.12      0.00
  -15   15    4     -2.22      0.00
  -15   15    3     -2.80      0.00
  -15   15    2      1.82      0.00
  -16    0   18     -0.50      0.00
  -16    0   16      2.12      0.00
  -16    0   14     -0.50      0.00
  -16    0   12     -2.44      0.00
  -16    0   10     -0.05      0.00
  -16    0    8     -0.26      0.00
  -16    0    6     -0.44      0.00
  -16    0    4      3.30      0.00
  -16    0    2     -0.40      0.00
   16    0    0      0.07      0.00
   16    0    2     -0.66      0.00
   16    0    4      0.63      0.00
  -16    2   19      4.75      0.00
  -16    2   18      4.37      0.00
  -16    2   17     -2.49      0.00
  -16    2   16     -3.45      0.00
  -16    2   15     -1.51      0.00
  -16    2   14      1.24      0.00
  -16    2   13     -3.74      0.00
  -16    2   12      0.13      0.00
  -16    2   11      2.69      0.00
  -16    2   10     -1.80      0.00
  -16    2    9      0.36      0.00
  -16    2    8      0.33      0.00
  -16    2    7      0.81      0.00
  -16    2    6     -0.24      0.00
  -16    2    5      0.21      0.00
  -16    2    4      0.86      0.00
  -16    2    3      0.96      0.00
  -16    2    2      0.46      0.00
  -16    2    1     -3.73      0.00
   16    2    0     -0.81      0.00
   16    2    1     -1.93      0.00
   16    2    2     -0.94      0.00
   16    2    3      1.84      0.00
   16    2    4      0.76      0.00
   16    2    5      0.85      0.00
  -16    4   18     -2.14      0.00
  -16    4   17      0.63      0.00
  -16    4   16      1.78      0.00
  -16    4   15      2.69      0.00
  -16    4   14     -0.33      0.00
  -16    4   13     -0.09      0.00
  -16    4   12      3.45      0.00
  -16    4   11     -1.40      0.00
  -16    4   10      1.50      0.00
  -16    4    9     -2.11      0.00
  -16    4    8     -3.72      0.00
  -16    4    7      3.82      0.00
  -16    4    6      0.41      0.00
  -16    4    5      1.87      0.00
  -16    4    4     -1.05      0.00
  -16    4    3     -1.95      0.00
  -16    4    2      1.34      0.00
  -16    4    1     -0.52      0.00
   16    4    0     -0.39      0.00
   16    4    1     -2.30      0.00
   16    4    2      0.89      0.00
   16    4    3     -1.12      0.00
   16    4    4     -2.53      0.00
   16    4    5     -1.70      0.00
  -16    6   18      3.47      0.00
  -16    6   17     -3.24      0.00
  -16    6   16     -4.90      0.00
  -16    6   15      0.89      0.00
  -16    6   14      0.96      0.00
  -16    6   13      1.95      0.00
  -16    6   12     -2.74      0.00
  -16    6   11     -3.54      0.00
  -16    6   10      0.55      0.00
  -16    6    9      0.64      0.00
  -16    6    8      3.66      0.00
  -16    6    7      0.24      0.00
  -16    6    6      1.77      0.00
  -16    6    5      0.15      0.00
  -16    6    4     -3.21      0.00
  -16    6    3     -1.46      0.00
  -16    6    2     -0.07      0.00
  -16    6    1     -0.78      0.00
   16    6    0      1.01      0.00
   16    6    1      1.59      0.00
   16    6    2     -0.16      0.00
   16    6    3      1.04      0.00
   16    6    4     -0.80      0.00
  -16    8   17      0.40      0.00
  -16    8   16      2.36      0.00
  -16    8   15     -2.90      0.00
  -16    8   14      1.49      0.00
  -16    8   13      1.21      0.00
  -16    8   12     -0.16      0.00
  -16    8   11      2.40      0.00
  -16    8   10      0.46      0.00
  -16    8    9      0.79      0.00
  -16    8    8      0.31      0.00
  -16    8    7     -2.80      0.00
  -16    8    6     -1.83      0.00
  -16    8    5     -1.20      0.00
  -16    8    4     -0.98      0.00
  -16    8    3      4.07      0.00
  -16    8    2     -1.13      0.00
  -16    8    1     -0.03      0.00
   16    8    0      0.08      0.00
   16    8    1     -0.13      0.00
   16    8    2      2.25      0.00
   16    8    3     -1.10      0.00
   16    8    4      1.26      0.00
  -16   10   16     -0.28      0.00
  -16   10   15     -1.76      0.00
  -16   10   14     -1.72      0.00
  -16   10   13     -1.09      0.00
  -16   10   12     -1.34      0.00
  -16   10   11      0.39      0.00
  -16   10   10      2.04      0.00
  -16   10    9      0.34      0.00
  -16   10    8     -2.02      0.00
  -16   10    7     -2.68      0.00
  -16   10    6      0.07      0.00
  -16   10    5      0.09      0.00
  -16   10    4      3.80      0.00
  -16   10    3     -0.03      0.00
  -16   10    2     -0.22      0.00
  -16   10    1     -0.62      0.00
   16   10    0     -0.44      0.00
   16   10    1     -0.19      0.00
   16   10    2     -1.17      0.00
  -16   12   14     -0.21      0.00
  -16   12   13      5.84      0.00
  -16   12   12      0.26      0.00
  -16   12   11     -2.84      0.00
  -16   12   10     -0.60      0.00
  -16   12    9      0.00      0.00
  -16   12    8     -0.73      0.00
  -16   12    7      3.12      0.00
  -16   12    6      1.76      0.00
  -16   12    5      0.08      0.00
  -16   12    4     -2.74      0.00
  -16   12    3     -0.25      0.00
  -16   12    2      1.74      0.00
  -16   12    1     -0.09      0.00
   16   12    0      0.97      0.00
  -16   14   11      0.37      0.00
  -16   14   10      0.82      0.00
  -16   14    9      0.10      0.00
  -16   14    8      1.12      0.00
  -16   14    7     -1.73      0.00
  -16   14    6     -1.82      0.00
  -16   14    5      0.31      0.00
  -16   14    4     -0.66      0.00
  -16   14    3      0.57      0.00
  -17    1   18     -4.88      0.00
  -17    1   17     -0.55      0.00
  -17    1   16      0.61      0.00
  -17    1   15      2.34      0.00
  -17    1   14     -1.18      0.00
  -17    1   13      0.06      0.00
  -17    1   12      3.09      0.00
  -17    1   11     -3.33      0.00
  -17    1   10     -1.15      0.00
  -17    1    9     -0.79      0.00
  -17    1    8     -0.24      0.00
  -17    1    7      1.75      0.00
  -17    1    6     -0.90      0.00
  -17    1    5      0.52      0.00
  -17    1    4      0.74      0.00
  -17    1    3      1.75      0.00
  -17    1    2     -3.20      0.00
  -17    1    1     -0.25      0.00
   17    1    0      2.62      0.00
   17    1    1     -1.68      0.00
   17    1    2     -0.66      0.00
   17    1    3      0.12      0.00
   17    1    4      0.05      0.00
  -17    3   18      2.57      0.00
  -17    3   17      6.02      0.00
  -17    3   16      3.53      0.00
  -17    3   15     -2.05      0.00
  -17    3   14     -0.59      0.00
  -17    3   13      2.66      0.00
  -17    3   12     -4.04      0.00
  -17    3   11      0.76      0.00
  -17    3   10      3.47      0.00
  -17    3    9     -2.51      0.00
  -17    3    8      4.12      0.00
  -17    3    7      0.36      0.00
  -17    3    6      0.24      0.00
  -17    3    5     -2.70      0.00
  -17    3    4     -3.58      0.00
  -17    3    3     -0.35      0.00
  -17    3    2      2.39      0.00
  -17    3    1      1.27      0.00
   17    3    0      0.61      0.00
   17    3    1      0.32      0.00
   17    3    2      0.69      0.00
   17    3    3      2.73      0.00
   17    3    4     -1.01      0.00
  -17    5   17     -5.44      0.00
  -17    5   16     -1.22      0.00
  -17    5   15      1.77      0.00
  -17    5   14      1.13      0.00
  -17    5   13     -2.22      0.00
  -17    5   12     -2.28      0.00
  -17    5   11      1.83      0.00
  -17    5   10     -1.20      0.00
  -17    5    9      2.72      0.00
  -17    5    8     -3.10      0.00
  -17    5    7     -1.40      0.00
  -17    5    6     -0.81      0.00
  -17    5    5     -2.02      0.00
  -17    5    4      1.17      0.00
  -17    5    3      1.04      0.00
  -17    5    2      0.25      0.00
  -17    5    1      2.58      0.00
   17    5    0     -2.23      0.00
   17    5    1      1.11      0.00
   17    5    2     -0.10      0.00
   17    5    3     -0.18      0.00
  -17    7   17      5.79      0.00
  -17    7   16     -2.98      0.00
  -17    7   15     -3.11      0.00
  -17    7   14      1.65      0.00
  -17    7   13      1.50      0.00
  -17    7   12      3.66      0.00
  -17    7   11      0.98      0.00
  -17    7   10     -0.50      0.00
  -17    7    9     -3.00      0.00
  -17    7    8     -1.81      0.00
  -17    7    7     -1.28      0.00
  -17    7    6      1.72      0.00
  -17    7    5      1.81      0.00
  -17    7    4      5.08      0.00
  -17    7    3      0.36      0.00
  -17    7    2      0.10      0.00
  -17    7    1     -1.49      0.00
   17    7    0     -2.25      0.00
   17    7    1     -2.02      0.00
   17    7    2      1.69      0.00
  -17    9   15     -1.58      0.00
  -17    9   14      0.48      0.00
  -17    9   13     -0.44      0.00
  -17    9   12     -2.68      0.00
  -17    9   11      2.05      0.00
  -17    9   10     -1.92      0.00
  -17    9    9     -0.21      0.00
  -17    9    8      0.28      0.00
  -17    9    7      0.95      0.00
  -17    9    6     -0.58      0.00
  -17    9    5      4.37      0.00
  -17    9    4     -1.25      0.00
  -17    9    3     -1.81      0.00
  -17    9    2     -1.71      0.00
  -17    9    1     -3.10      0.00
   17    9    0      1.29      0.00
   17    9    1      0.04      0.00
  -17   11   14      1.97      0.00
  -17   11   13     -0.58      0.00
  -17   11   12     -1.07      0.00
  -17   11   11     -4.06      0.00
  -17   11   10      1.30      0.00
  -17   11    9      2.54      0.00
  -17   11    8      4.08      0.00
  -17   11    7      0.69      0.00
  -17   11    6      0.11      0.00
  -17   11    5     -2.63      0.00
  -17   11    4     -3.51      0.00
  -17   11    3     -0.06      0.00
  -17   11    2      1.46      0.00
  -17   11    1      3.58      0.00
  -17   13   10     -0.27      0.00
  -17   13    9      1.92      0.00
  -17   13    8     -3.92      0.00
  -17   13    7     -3.35      0.00
  -17   13    6      1.56      0.00
  -17   13    5     -1.33      0.00
  -17   13    4      0.48      0.00
  -18    0   16     -0.55      0.00
  -18    0   14     -0.63      0.00
  -18    0   12     -3.37      0.00
  -18    0   10     -0.30      0.00
  -18    0    8      2.87      0.00
  -18    0    6      1.43      0.00
  -18    0    4      3.89      0.00
  -18    0    2     -1.89      0.00
   18    0    0      1.72      0.00
   18    0    2     -2.54      0.00
  -18    2   17     -0.49      0.00
  -18    2   16     -3.84      0.00
  -18    2   15     -0.21      0.00
  -18    2   14      2.18      0.00
  -18    2   13     -2.68      0.00
  -18    2   12      0.58      0.00
  -18    2   11      5.05      0.00
  -18    2   10     -1.34      0.00
  -18    2    9      2.06      0.00
  -18    2    8     -0.46      0.00
  -18    2    7     -0.07      0.00
  -18    2    6     -2.17      0.00
  -18    2    5     -3.12      0.00
  -18    2    4     -0.77      0.00
  -18    2    3      2.03      0.00
  -18    2    2      1.43      0.00
  -18    2    1     -2.01      0.00
   18    2    0     -1.52      0.00
   18    2    1     -0.91      0.00
   18    2    2     -0.39      0.00
  -18    4   17     -5.09      0.00
  -18    4   16      3.40      0.00
  -18    4   15      1.83      0.00
  -18    4   14      0.07      0.00
  -18    4   13     -0.56      0.00
  -18    4   12      1.12      0.00
  -18    4   11     -4.74      0.00
  -18    4   10     -0.42      0.00
  -18    4    9     -1.52      0.00
  -18    4    8     -0.61      0.00
  -18    4    7      2.22      0.00
  -18    4    6      0.18      0.00
  -18    4    5      2.31      0.00
  -18    4    4      1.38      0.00
  -18    4    3     -0.38      0.00
  -18    4    2      0.29      0.00
  -18    4    1     -2.15      0.00
   18    4    0      0.69      0.00
   18    4    1     -0.52      0.00
   18    4    2     -0.52      0.00
  -18    6   16     -4.54      0.00
  -18    6   15      3.47      0.00
  -18    6   14      2.31      0.00
  -18    6   13      0.89      0.00
  -18    6   12      0.87      0.00
  -18    6   11      0.12      0.00
  -18    6   10     -1.85      0.00
  -18    6    9      1.56      0.00
  -18    6    8      0.17      0.00
  -18    6    7      1.13      0.00
  -18    6    6      2.19      0.00
  -18    6    5      1.74      0.00
  -18    6    4     -0.66      0.00
  -18    6    3     -1.76      0.00
  -18    6    2     -3.83      0.00
  -18    6    1     -0.74      0.00
   18    6    0      2.02      0.00
   18    6    1     -0.46      0.00
  -18    8   15     -1.88      0.00
  -18    8   14     -2.61      0.00
  -18    8   13     -3.27      0.00
  -18    8   12      0.92      0.00
  -18    8   11     -0.58      0.00
  -18    8   10      3.82      0.00
  -18    8    9      0.41      0.00
  -18    8    8     -1.17      0.00
  -18    8    7     -2.62      0.00
  -18    8    6      0.70      0.00
  -18    8    5     -0.93      0.00
  -18    8    4     -2.66      0.00
  -18    8    3     -1.99      0.00
  -18    8    2     -0.79      0.00
  -18    8    1      3.89      0.00
   18    8    0      0.58      0.00
  -18   10   13      3.41      0.00
  -18   10   12     -3.97      0.00
  -18   10   11      1.71      0.00
  -18   10   10      3.30      0.00
  -18   10    9      0.55      0.00
  -18   10    8      0.33      0.00
  -18   10    7     -0.38      0.00
  -18   10    6     -3.26      0.00
  -18   10    5     -2.43      0.00
  -18   10    4      1.08      0.00
  -18   10    3      2.95      0.00
  -18   12    9     -3.75      0.00
  -19    1   16      1.54      0.00
  -19    1   15      0.31      0.00
  -19    1   14     -0.36      0.00
  -19    1   13      0.32      0.00
  -19    1   12      2.04      0.00
  -19    1   11      0.14      0.00
  -19    1   10      0.98      0.00
  -19    1    9      0.42      0.00
  -19    1    8     -1.20      0.00
  -19    1    7     -1.54      0.00
  -19    1    6     -1.67      0.00
  -19    1    5     -3.17      0.00
  -19    1    4     -0.18      0.00
  -19    1    3      3.12      0.00
  -19    1    2     -0.59      0.00
  -19    1    1     -0.30      0.00
   19    1    0      1.42      0.00
  -19    3   16      1.34      0.00
  -19    3   15     -0.31      0.00
  -19    3   14     -0.33      0.00
  -19    3   13     -0.37      0.00
  -19    3   12     -3.96      0.00
  -19    3   11     -2.41      0.00
  -19    3   10      1.48      0.00
  -19    3    9     -1.15      0.00
  -19    3    8      2.04      0.00
  -19    3    7      1.06      0.00
  -19    3    6      0.74      0.00
  -19    3    5      0.66      0.00
  -19    3    4     -0.27      0.00
  -19    3    3      0.59      0.00
  -19    3    2     -0.42      0.00
  -19    3    1      0.89      0.00
   19    3    0     -1.23      0.00
  -19    5   15      0.59      0.00
  -19    5   14     -1.24      0.00
  -19    5   13      2.76      0.00
  -19    5   12      1.40      0.00
  -19    5   11      0.85      0.00
  -19    5   10      0.73      0.00
  -19    5    9     -1.72      0.00
  -19    5    8     -1.92      0.00
  -19    5    7      1.45      0.00
  -19    5    6      2.16      0.00
  -19    5    5     -1.26      0.00
  -19    5    4     -1.85      0.00
  -19    5    3     -2.04      0.00
  -19    5    2      1.46      0.00
  -19    5    1     -0.06      0.00
  -19    7   14      1.66      0.00
  -19    7   13      0.29      0.00
  -19    7   12     -1.52      0.00
  -19    7   11      4.50      0.00
  -19    7   10     -1.15      0.00
  -19    7    9     -3.25      0.00
  -19    7    8     -1.60      0.00
  -19    7    7     -0.36      0.00
  -19    7    6      1.14      0.00
  -19    7    5     -0.76      0.00
  -19    7    4     -0.88      0.00
  -19    7    3      2.46      0.00
  -19    7    2      2.30      0.00
  -19    9   12     -0.72      0.00
  -19    9   11      0.89      0.00
  -19    9   10     -0.72      0.00
  -19    9    9      2.06      0.00
  -19    9    8      1.72      0.00
  -19    9    7     -1.48      0.00
  -19    9    6     -1.66      0.00
  -19    9    5      0.95      0.00
  -20    0   14      0.40      0.00
  -20    0   12      2.00      0.00
  -20    0   10      2.87      0.00
  -20    0    8     -1.55      0.00
  -20    0    6     -4.23      0.00
  -20    0    4      4.45      0.00
  -20    0    2      0.11      0.00
  -20    2   15      0.49      0.00
  -20    2   14     -1.07      0.00
  -20    2   13     -0.53      0.00
  -20    2   12     -3.89      0.00
  -20    2   11      1.10      0.00
  -20    2   10     -2.17      0.00
  -20    2    9      1.86      0.00
  -20    2    8      2.72      0.00
  -20    2    7     -1.03      0.00
  -20    2    6      2.03      0.00
  -20    2    5      0.66      0.00
  -20    2    4      0.06      0.00
  -20    2    3     -1.02      0.00
  -20    2    2     -0.85      0.00
  -20    4   14      3.88      0.00
  -20    4   13      0.51      0.00
  -20    4   12      2.15      0.00
  -20    4   11     -0.34      0.00
  -20    4   10     -1.92      0.00
  -20    4    9     -0.67      0.00
  -20    4    8      0.29      0.00
  -20    4    7      4.13      0.00
  -20    4    6     -0.57      0.00
  -20    4    5     -2.35      0.00
  -20    4    4     -2.29      0.00
  -20    4    3      0.86      0.00
  -20    6   13     -2.51      0.00
  -20    6   12      3.17      0.00
  -20    6   11     -0.83      0.00
  -20    6   10     -1.82      0.00
  -20    6    9      0.53      0.00
  -20    6    8     -0.43      0.00
  -20    6    7     -1.26      0.00
  -20    6    6      0.11      0.00
  -20    6    5      0.31      0.00
  -20    6    4      1.55      0.00
  -21    1   12      0.58      0.00
  -21    1   11     -2.59      0.00
  -21    1   10      0.41      0.00
  -21    1    9      3.22      0.00
  -21    1    8     -1.70      0.00
  -21    1    7      3.10      0.00
  -21    1    6      0.11      0.00
  -21    1    5     -1.32      0.00
  -21    3   11     -1.74      0.00
  -21    3   10     -0.01      0.00
  -21    3    9     -1.64      0.00
  -21    3    8      4.01      0.00
  -21    3    7     -0.41      0.00
  -21    3    6     -2.90      0.00
    2    0    0    115.62      0.00
   20    0    0     -1.66      0.00
    1    1    0    -32.65      0.00
    0    2    0    -85.36      0.00
   20    2    0      0.45      0.00
   20    4    0      2.16      0.00
   19    5    0     -0.14      0.00
    0    6    0     -8.61      0.00
   20    6    0     -2.01      0.00
   19    7    0     -0.74      0.00
   19    9    0     -0.44      0.00
   18   10    0     -2.47      0.00
   17   11    0      0.66      0.00
   18   12    0      0.19      0.00
   17   13    0     -0.60      0.00
   16   14    0      0.36      0.00
   15   15    0      0.49      0.00
   14   16    0      0.41      0.00
   13   17    0      1.49      0.00
   12   18    0      0.41      0.00
   11   19    0      2.18      0.00
   10   20    0     -0.21      0.00
    9   21    0      0.96      0.00
    6   22    0      1.96      0.00
    8   22    0      0.34      0.00
  -21    1    1      2.22      0.00
   -1    1    1   -175.03      0.00
    1    1    1   -114.79      0.00
   19    1    1     -0.94      0.00
  -20    2    1     -1.93      0.00
   -2    2    1    -29.86      0.00
    0    2    1     42.04      0.00
   20    2    1     -0.83      0.00
  -21    3    1     -0.15      0.00
   19    3    1      1.14      0.00
  -20    4    1      1.01      0.00
   20    4    1     -0.58      0.00
   19    5    1     -2.73      0.00
  -20    6    1     -0.35      0.00
  -19    7    1     -0.22      0.00
   19    7    1      0.64      0.00
  -20    8    1     -0.12      0.00
   18    8    1      1.32      0.00
  -19    9    1     -2.92      0.00
  -18   10    1      0.23      0.00
   18   10    1      1.19      0.00
   17   11    1      0.96      0.00
  -18   12    1     -2.15      0.00
   16   12    1      1.03      0.00
  -17   13    1     -0.32      0.00
   17   13    1      0.09      0.00
  -16   14    1      0.11      0.00
   16   14    1     -0.56      0.00
  -15   15    1      0.60      0.00
   15   15    1      0.63      0.00
  -16   16    1     -0.22      0.00
   14   16    1     -0.73      0.00
  -15   17    1     -0.49      0.00
   13   17    1      0.78      0.00
  -14   18    1     -0.32      0.00
   12   18    1     -0.87      0.00
  -13   19    1     -0.84      0.00
  -11   19    1      0.79      0.00
   11   19    1     -0.17      0.00
  -12   20    1     -1.06      0.00
  -10   20    1      0.60      0.00
   10   20    1     -2.75      0.00
   -9   21    1     -0.57      0.00
    7   21    1      0.77      0.00
    9   21    1      0.92      0.00
   -8   22    1     -0.99      0.00
   -6   22    1      0.38      0.00
    4   22    1     -0.92      0.00
    6   22    1     -0.30      0.00
    8   22    1     -0.09      0.00
   -2    0    2    -72.73      0.00
    0    0    2   -104.23      0.00
  -21    1    2     -0.63      0.00
   -1    1    2     -6.77      0.00
   19    1    2      0.05      0.00
    0    2    2     -9.08      0.00
  -21    3    2      0.82      0.00
   19    3    2      0.55      0.00
  -20    4    2     -0.15      0.00
  -21    5    2     -0.50      0.00
   19    5    2      0.39      0.00
  -20    6    2      0.50      0.00
   18    6    2      1.01      0.00
  -20    8    2     -1.15      0.00
   18    8    2      0.53      0.00
  -19    9    2     -2.03      0.00
   17    9    2     -0.59      0.00
  -18   10    2      5.73      0.00
  -19   11    2     -2.52      0.00
   17   11    2     -1.23      0.00
  -18   12    2     -2.46      0.00
   16   12    2     -1.01      0.00
  -17   13    2      0.21      0.00
   15   13    2     -2.33      0.00
  -16   14    2     -0.61      0.00
   16   14    2      0.62      0.00
  -17   15    2      0.03      0.00
   15   15    2      0.02      0.00
  -16   16    2     -2.22      0.00
   14   16    2     -0.16      0.00
  -15   17    2     -0.35      0.00
   13   17    2     -0.49      0.00
  -14   18    2     -0.77      0.00
   12   18    2     -0.53      0.00
  -13   19    2     -0.39      0.00
   11   19    2     -0.90      0.00
  -12   20    2      0.29      0.00
  -10   20    2     -3.14      0.00
    8   20    2     -0.33      0.00
   10   20    2      0.68      0.00
  -11   21    2     -0.36      0.00
   -9   21    2     -1.82      0.00
    7   21    2     -0.17      0.00
    9   21    2      1.46      0.00
   -8   22    2     -0.65      0.00
   -6   22    2     -2.86      0.00
    4   22    2     -2.55      0.00
    6   22    2     -1.84      0.00
  -21    1    3     -0.13      0.00
   19    1    3     -0.91      0.00
   18    2    3      0.30      0.00
  -21    3    3      1.30      0.00
   19    3    3      1.84      0.00
   18    4    3     -1.87      0.00
  -21    5    3      0.66      0.00
  -20    6    3     -0.48      0.00
   18    6    3      0.23      0.00
  -21    7    3     -0.90      0.00
   17    7    3     -0.42      0.00
  -20    8    3     -1.62      0.00
   18    8    3     -0.12      0.00
  -19    9    3      3.40      0.00
   17    9    3      0.27      0.00
  -20   10    3     -0.96      0.00
   16   10    3     -0.07      0.00
  -19   11    3     -3.80      0.00
   17   11    3     -0.14      0.00
  -18   12    3     -1.13      0.00
   16   12    3     -0.20      0.00
  -17   13    3      0.99      0.00
   15   13    3      2.10      0.00
  -18   14    3     -0.98      0.00
   14   14    3      0.51      0.00
  -17   15    3     -2.10      0.00
   13   15    3      0.18      0.00
  -16   16    3     -1.19      0.00
   12   16    3      1.07      0.00
   14   16    3      0.58      0.00
  -15   17    3      2.05      0.00
   11   17    3     -2.70      0.00
   13   17    3     -0.94      0.00
  -14   18    3      0.51      0.00
   10   18    3      1.20      0.00
   12   18    3      1.37      0.00
  -13   19    3      1.85      0.00
    9   19    3     -1.53      0.00
   11   19    3     -0.15      0.00
  -12   20    3      0.39      0.00
  -10   20    3     -1.61      0.00
    8   20    3      0.32      0.00
   10   20    3      1.13      0.00
  -11   21    3      1.02      0.00
   -9   21    3      1.09      0.00
    7   21    3     -0.12      0.00
   -8   22    3      0.10      0.00
   -6   22    3      0.01      0.00
    4   22    3      0.75      0.00
    6   22    3      0.31      0.00
   18    0    4     -1.23      0.00
  -21    1    4     -0.40      0.00
   18    2    4      3.36      0.00
  -21    3    4      0.69      0.00
   18    4    4     -2.12      0.00
  -21    5    4     -0.53      0.00
   17    5    4      1.45      0.00
   18    6    4     -0.64      0.00
  -21    7    4      0.25      0.00
   17    7    4     -0.44      0.00
  -20    8    4      0.54      0.00
  -19    9    4      3.58      0.00
   17    9    4     -0.42      0.00
  -20   10    4     -2.41      0.00
   16   10    4     -0.47      0.00
  -19   11    4     -1.54      0.00
   15   11    4     -0.87      0.00
  -18   12    4      2.79      0.00
   15   13    4      0.13      0.00
  -18   14    4     -3.18      0.00
   14   14    4     -2.01      0.00
  -17   15    4      1.49      0.00
   13   15    4      1.14      0.00
  -16   16    4      3.02      0.00
   12   16    4     -1.27      0.00
  -15   17    4      2.12      0.00
   11   17    4      0.80      0.00
  -14   18    4      2.73      0.00
   10   18    4      0.46      0.00
  -13   19    4      0.94      0.00
    9   19    4     -1.09      0.00
  -12   20    4      0.80      0.00
  -10   20    4      4.15      0.00
    8   20    4      1.26      0.00
  -11   21    4      0.05      0.00
   -9   21    4      0.87      0.00
    5   21    4     -1.08      0.00
    7   21    4      0.55      0.00
   -8   22    4      1.91      0.00
   -6   22    4      2.56      0.00
    2   22    4      0.54      0.00
    4   22    4      0.98      0.00
    6   22    4      0.46      0.00
   17    1    5      1.44      0.00
   18    2    5     -0.58      0.00
  -21    3    5     -2.37      0.00
   17    3    5     -3.17      0.00
  -21    5    5      1.79      0.00
   17    5    5      1.56      0.00
   16    6    5     -0.05      0.00
  -21    7    5      0.76      0.00
   17    7    5      0.76      0.00
  -20    8    5      3.47      0.00
   16    8    5     -0.63      0.00
  -20   10    5     -0.82      0.00
   16   10    5      1.10      0.00
  -19   11    5      1.11      0.00
   15   11    5      0.41      0.00
  -18   12    5      2.63      0.00
   14   12    5      0.61      0.00
  -19   13    5     -3.24      0.00
  -18   14    5      3.27      0.00
   14   14    5      0.46      0.00
  -17   15    5      1.30      0.00
   13   15    5      2.06      0.00
  -16   16    5      1.78      0.00
   12   16    5     -0.45      0.00
  -15   17    5      1.61      0.00
   11   17    5      0.88      0.00
  -14   18    5      0.13      0.00
   10   18    5     -1.24      0.00
  -13   19    5     -1.03      0.00
    9   19    5      0.03      0.00
  -12   20    5      0.12      0.00
  -10   20    5      2.18      0.00
    6   20    5      1.03      0.00
    8   20    5      1.75      0.00
  -11   21    5     -1.25      0.00
   -9   21    5      0.51      0.00
    5   21    5     -0.18      0.00
    7   21    5     -1.28      0.00
   -8   22    5      0.85      0.00
   -6   22    5      0.89      0.00
   -4   22    5      0.49      0.00
   -2   22    5     -0.80      0.00
    0   22    5     -0.52      0.00
    2   22    5      0.46      0.00
    4   22    5      1.10      0.00
   16    0    6      0.33      0.00
   17    1    6     -0.19      0.00
   16    2    6     -0.44      0.00
   17    3    6     -0.39      0.00
   16    4    6      3.14      0.00
  -21    5    6      2.33      0.00
   17    5    6      0.64      0.00
   16    6    6     -0.93      0.00
  -21    7    6      2.10      0.00
  -20    8    6     -0.51      0.00
   16    8    6     -1.08      0.00
  -21    9    6     -0.95      0.00
   15    9    6      0.68      0.00
  -20   10    6      0.41      0.00
   14   10    6      1.15      0.00
  -19   11    6      1.01      0.00
   15   11    6     -1.13      0.00
  -18   12    6     -0.34      0.00
   14   12    6      0.25      0.00
  -19   13    6      0.98      0.00
   13   13    6     -0.66      0.00
  -18   14    6      0.74      0.00
   12   14    6      2.51      0.00
  -17   15    6     -1.15      0.00
   11   15    6      0.94      0.00
  -16   16    6      1.22      0.00
   10   16    6     -0.03      0.00
   12   16    6     -2.11      0.00
  -15   17    6     -0.11      0.00
    9   17    6     -0.09      0.00
   11   17    6     -0.06      0.00
  -14   18    6     -1.84      0.00
    8   18    6     -0.70      0.00
   10   18    6     -0.83      0.00
  -13   19    6      0.09      0.00
    7   19    6      1.35      0.00
    9   19    6      1.11      0.00
  -12   20    6     -1.73      0.00
  -10   20    6     -1.44      0.00
    6   20    6     -0.85      0.00
  -11   21    6     -0.93      0.00
   -9   21    6      0.82      0.00
    3   21    6      1.98      0.00
    5   21    6      1.56      0.00
   -8   22    6     -1.07      0.00
   -6   22    6     -1.09      0.00
   -4   22    6     -0.34      0.00
   -2   22    6      0.28      0.00
    0   22    6      1.08      0.00
    2   22    6      1.78      0.00
    4   22    6     -0.15      0.00
   16    2    7     -1.25      0.00
   16    4    7      2.38      0.00
  -21    5    7     -0.17      0.00
   15    5    7     -2.80      0.00
   16    6    7     -1.07      0.00
  -21    7    7     -0.50      0.00
   15    7    7     -0.04      0.00
  -20    8    7     -2.77      0.00
   14    8    7     -0.64      0.00
  -21    9    7      0.48      0.00
   15    9    7      1.53      0.00
  -20   10    7      0.16      0.00
   14   10    7     -0.37      0.00
  -19   11    7      1.43      0.00
   13   11    7     -1.04      0.00
  -18   12    7      1.82      0.00
  -19   13    7     -0.39      0.00
   13   13    7     -0.00      0.00
  -18   14    7     -2.57      0.00
   12   14    7      0.94      0.00
  -17   15    7      3.28      0.00
   11   15    7     -2.40      0.00
  -16   16    7      0.76      0.00
   10   16    7     -0.36      0.00
  -15   17    7     -1.02      0.00
    9   17    7     -0.91      0.00
  -14   18    7      0.63      0.00
    8   18    7      0.30      0.00
  -13   19    7     -1.71      0.00
    7   19    7      0.57      0.00
  -12   20    7     -2.18      0.00
  -10   20    7     -2.16      0.00
    4   20    7      1.82      0.00
    6   20    7     -0.51      0.00
  -11   21    7      0.68      0.00
   -9   21    7      0.65      0.00
   -7   21    7     -0.26      0.00
    1   21    7      0.40      0.00
    3   21    7     -1.05      0.00
    5   21    7      0.98      0.00
   -8   22    7     -2.23      0.00
   -6   22    7     -1.76      0.00
   -4   22    7      0.42      0.00
   -2   22    7      0.39      0.00
    0   22    7      0.26      0.00
    2   22    7     -0.15      0.00
   16    0    8     -0.50      0.00
   15    1    8     -0.84      0.00
   15    3    8      2.25      0.00
  -21    5    8     -3.17      0.00
   15    5    8     -1.47      0.00
   14    6    8      1.13      0.00
  -21    7    8     -0.77      0.00
   15    7    8     -0.14      0.00
  -20    8    8     -1.78      0.00
   14    8    8      1.02      0.00
  -21    9    8      1.53      0.00
   13    9    8      1.42      0.00
  -20   10    8      0.76      0.00
   14   10    8     -1.62      0.00
  -19   11    8      0.99      0.00
   13   11    8      0.51      0.00
  -18   12    8     -2.16      0.00
   12   12    8      1.66      0.00
  -19   13    8     -1.77      0.00
   11   13    8      0.68      0.00
  -18   14    8      4.92      0.00
   10   14    8     -3.23      0.00
  -17   15    8      1.27      0.00
    9   15    8      0.29      0.00
   11   15    8      0.35      0.00
  -16   16    8     -0.14      0.00
    8   16    8     -0.77      0.00
   10   16    8     -0.15      0.00
  -15   17    8     -0.15      0.00
    7   17    8      0.07      0.00
    9   17    8      0.64      0.00
  -14   18    8     -2.08      0.00
    6   18    8     -1.90      0.00
    8   18    8     -0.43      0.00
  -13   19    8     -1.63      0.00
  -11   19    8     -2.77      0.00
    5   19    8     -0.72      0.00
    7   19    8     -0.48      0.00
  -12   20    8      0.26      0.00
  -10   20    8      0.11      0.00
    2   20    8     -3.49      0.00
    4   20    8      1.78      0.00
   -9   21    8     -1.36      0.00
   -7   21    8     -2.13      0.00
   -5   21    8      0.91      0.00
   -3   21    8     -0.05      0.00
   -1   21    8     -0.44      0.00
    1   21    8      0.88      0.00
    3   21    8     -1.16      0.00
   -6   22    8     -0.34      0.00
   -4   22    8     -0.23      0.00
   -2   22    8      0.36      0.00
    0   22    8     -0.33      0.00
   15    1    9      0.72      0.00
   14    2    9      1.01      0.00
   15    3    9     -1.44      0.00
   14    4    9     -1.07      0.00
  -21    5    9     -0.62      0.00
   14    6    9     -0.73      0.00
  -21    7    9     -1.70      0.00
   13    7    9     -0.10      0.00
  -20    8    9      2.58      0.00
  -21    9    9      0.76      0.00
   13    9    9     -1.47      0.00
  -20   10    9     -1.54      0.00
   12   10    9     -0.72      0.00
  -19   11    9      0.31      0.00
   11   11    9     -0.28      0.00
   12   12    9     -0.24      0.00
  -19   13    9      2.87      0.00
   11   13    9     -2.81      0.00
  -18   14    9      2.33      0.00
   10   14    9      0.13      0.00
  -17   15    9     -1.21      0.00
    9   15    9      1.37      0.00
  -16   16    9     -1.92      0.00
    8   16    9      0.85      0.00
  -15   17    9     -0.43      0.00
    7   17    9     -1.71      0.00
  -14   18    9     -1.98      0.00
    6   18    9     -0.54      0.00
  -13   19    9      1.13      0.00
  -11   19    9     -0.47      0.00
    3   19    9      1.79      0.00
    5   19    9      2.22      0.00
  -12   20    9      0.61      0.00
  -10   20    9      0.08      0.00
   -8   20    9     -1.70      0.00
    0   20    9      1.51      0.00
    2   20    9     -0.16      0.00
    4   20    9     -0.41      0.00
   -9   21    9      0.08      0.00
   -7   21    9     -0.28      0.00
   -5   21    9     -0.82      0.00
   -3   21    9      0.04      0.00
   -1   21    9     -1.13      0.00
    1   21    9      2.74      0.00
   -6   22    9      0.07      0.00
   -4   22    9     -0.83      0.00
   -2   22    9     -0.23      0.00
   14    0   10     -0.35      0.00
   13    1   10      0.62      0.00
   14    2   10     -0.76      0.00
   13    3   10     -0.27      0.00
   14    4   10      0.87      0.00
  -21    5   10      0.03      0.00
   13    5   10     -0.28      0.00
   12    6   10      0.24      0.00
  -21    7   10      1.92      0.00
   13    7   10      2.27      0.00
  -20    8   10      3.69      0.00
   12    8   10     -0.18      0.00
  -21    9   10     -2.14      0.00
   11    9   10     -0.27      0.00
  -20   10   10      1.16      0.00
   12   10   10      0.22      0.00
  -19   11   10     -0.71      0.00
   11   11   10      0.40      0.00
  -18   12   10     -1.78      0.00
   10   12   10      0.24      0.00
  -19   13   10      1.91      0.00
    9   13   10     -1.90      0.00
  -18   14   10     -1.96      0.00
    8   14   10      1.45      0.00
  -17   15   10     -0.97      0.00
    7   15   10      2.00      0.00
    9   15   10      1.04      0.00
  -16   16   10     -0.77      0.00
    6   16   10     -0.56      0.00
    8   16   10     -1.39      0.00
  -15   17   10      0.67      0.00
    5   17   10     -0.94      0.00
    7   17   10     -0.55      0.00
  -14   18   10      0.50      0.00
  -12   18   10      1.06      0.00
    4   18   10      1.94      0.00
    6   18   10      1.53      0.00
  -13   19   10      0.14      0.00
  -11   19   10      0.36      0.00
    1   19   10     -0.35      0.00
    3   19   10      0.22      0.00
  -10   20   10      0.45      0.00
   -8   20   10      0.82      0.00
   -6   20   10     -0.31      0.00
   -4   20   10      0.66      0.00
   -2   20   10     -1.79      0.00
    0   20   10      2.99      0.00
    2   20   10      1.36      0.00
   -7   21   10     -0.02      0.00
   -5   21   10     -0.26      0.00
   -3   21   10     -0.17      0.00
   -1   21   10     -0.03      0.00
   13    1   11      0.75      0.00
   12    2   11     -0.49      0.00
   13    3   11      0.59      0.00
   12    4   11     -0.52      0.00
  -21    5   11     -0.55      0.00
   12    6   11      1.11      0.00
  -21    7   11      2.87      0.00
   11    7   11     -0.19      0.00
  -20    8   11     -0.31      0.00
   12    8   11     -1.90      0.00
  -21    9   11      0.77      0.00
   11    9   11     -1.23      0.00
  -20   10   11     -0.66      0.00
   10   10   11     -1.21      0.00
  -19   11   11     -3.31      0.00
    9   11   11      3.63      0.00
  -18   12   11     -1.46      0.00
   10   12   11     -0.55      0.00
  -19   13   11     -0.22      0.00
  -17   13   11      0.81      0.00
    9   13   11     -0.99      0.00
  -18   14   11      0.34      0.00
    8   14   11      2.86      0.00
  -17   15   11     -1.42      0.00
    7   15   11     -0.97      0.00
  -16   16   11      3.47      0.00
  -14   16   11      2.59      0.00
    6   16   11     -0.91      0.00
  -15   17   11     -1.67      0.00
  -13   17   11     -0.01      0.00
    5   17   11     -0.29      0.00
  -14   18   11      0.26      0.00
  -12   18   11     -0.37      0.00
    2   18   11     -0.70      0.00
    4   18   11      0.99      0.00
  -11   19   11     -0.24      0.00
   -9   19   11     -0.41      0.00
   -1   19   11      2.44      0.00
    1   19   11      2.13      0.00
    3   19   11     -1.22      0.00
  -10   20   11      0.82      0.00
   -8   20   11      0.44      0.00
   -6   20   11      1.12      0.00
   -4   20   11      1.04      0.00
   -2   20   11      0.48      0.00
    0   20   11     -0.41      0.00
   -5   21   11     -1.33      0.00
   -3   21   11      0.61      0.00
   12    0   12      1.18      0.00
   11    1   12     -0.04      0.00
   12    2   12      0.24      0.00
  -21    3   12      0.61      0.00
   11    3   12     -0.77      0.00
   12    4   12      0.21      0.00
  -21    5   12     -0.99      0.00
   11    5   12      0.68      0.00
   10    6   12     -1.43      0.00
  -21    7   12     -0.42      0.00
   11    7   12     -0.11      0.00
  -20    8   12     -0.81      0.00
   10    8   12     -0.44      0.00
  -21    9   12     -1.66      0.00
    9    9   12     -2.29      0.00
  -20   10   12     -1.79      0.00
   10   10   12      2.06      0.00
  -19   11   12     -1.28      0.00
    9   11   12      1.38      0.00
  -18   12   12      1.68      0.00
    8   12   12     -2.99      0.00
  -17   13   12      3.26      0.00
    7   13   12      0.72      0.00
  -18   14   12     -0.03      0.00
  -16   14   12     -1.08      0.00
    6   14   12     -1.08      0.00
  -17   15   12      0.84      0.00
  -15   15   12      1.67      0.00
    5   15   12      0.85      0.00
  -16   16   12     -0.26      0.00
  -14   16   12     -2.04      0.00
    4   16   12     -2.11      0.00
  -15   17   12     -1.29      0.00
  -13   17   12     -0.92      0.00
    3   17   12     -0.21      0.00
  -12   18   12     -0.47      0.00
  -10   18   12     -0.97      0.00
    0   18   12      1.34      0.00
    2   18   12     -0.07      0.00
  -11   19   12      0.29      0.00
   -9   19   12     -0.86      0.00
   -7   19   12      0.63      0.00
   -5   19   12      1.29      0.00
   -3   19   12      0.82      0.00
   -1   19   12      0.85      0.00
    1   19   12      0.54      0.00
   -8   20   12      0.49      0.00
   -6   20   12     -0.60      0.00
   -4   20   12      0.94      0.00
   -2   20   12     -0.18      0.00
  -21    1   13     -3.68      0.00
   11    1   13     -0.28      0.00
   10    2   13     -1.78      0.00
  -21    3   13      2.67      0.00
   11    3   13      0.74      0.00
   10    4   13      0.85      0.00
  -21    5   13      1.48      0.00
   10    6   13      0.72      0.00
  -21    7   13     -0.98      0.00
    9    7   13      1.69      0.00
  -20    8   13      0.21      0.00
  -19    9   13     -2.65      0.00
    9    9   13      0.63      0.00
  -20   10   13      0.64      0.00
    8   10   13      2.57      0.00
  -19   11   13      1.07      0.00
    7   11   13     -1.98      0.00
  -18   12   13      2.04      0.00
    6   12   13     -0.00      0.00
  -17   13   13     -0.02      0.00
    5   13   13     -2.09      0.00
    7   13   13     -0.07      0.00
  -16   14   13     -3.67      0.00
    4   14   13      0.28      0.00
    6   14   13      1.14      0.00
  -15   15   13     -0.56      0.00
    3   15   13     -0.91      0.00
    5   15   13      0.43      0.00
  -14   16   13      0.00      0.00
    2   16   13     -1.08      0.00
    4   16   13     -0.81      0.00
  -13   17   13     -0.36      0.00
  -11   17   13     -2.30      0.00
   -1   17   13     -0.42      0.00
    1   17   13     -0.90      0.00
    3   17   13      1.12      0.00
  -12   18   13      1.18      0.00
  -10   18   13     -1.10      0.00
   -8   18   13      0.48      0.00
   -6   18   13      1.48      0.00
   -4   18   13      0.90      0.00
   -2   18   13      1.65      0.00
    0   18   13      1.41      0.00
   -9   19   13      0.88      0.00
   -7   19   13     -0.63      0.00
   -5   19   13      0.79      0.00
   -3   19   13     -0.61      0.00
   -1   19   13     -1.17      0.00
   10    0   14     -0.17      0.00
  -21    1   14      0.39      0.00
    9    1   14     -2.18      0.00
   10    2   14      1.56      0.00
  -21    3   14     -0.62      0.00
    9    3   14      1.60      0.00
  -21    5   14     -1.09      0.00
    9    5   14      0.38      0.00
  -20    6   14     -1.23      0.00
    8    6   14      0.28      0.00
  -21    7   14      0.96      0.00
    9    7   14     -1.28      0.00
  -20    8   14     -1.51      0.00
    8    8   14     -1.73      0.00
  -19    9   14      3.72      0.00
    7    9   14      0.81      0.00
  -18   10   14     -1.15      0.00
    6   10   14     -0.44      0.00
  -19   11   14     -0.75      0.00
    5   11   14      0.16      0.00
    7   11   14     -0.96      0.00
  -18   12   14      0.96      0.00
    6   12   14     -0.20      0.00
  -17   13   14     -5.29      0.00
    5   13   14      0.98      0.00
  -16   14   14      1.57      0.00
    4   14   14      0.57      0.00
  -15   15   14      0.99      0.00
  -13   15   14     -0.03      0.00
    1   15   14      0.45      0.00
    3   15   14      0.49      0.00
  -14   16   14      1.63      0.00
  -12   16   14     -1.67      0.00
    0   16   14     -1.90      0.00
    2   16   14      0.39      0.00
  -13   17   14      0.63      0.00
  -11   17   14     -1.41      0.00
   -9   17   14     -0.03      0.00
   -7   17   14      2.15      0.00
   -5   17   14      1.15      0.00
   -3   17   14      2.09      0.00
   -1   17   14      1.46      0.00
    1   17   14      0.28      0.00
  -10   18   14      1.92      0.00
   -8   18   14     -0.29      0.00
   -6   18   14     -0.02      0.00
   -4   18   14     -1.21      0.00
   -2   18   14     -0.94      0.00
  -21    1   15     -1.95      0.00
    9    1   15      0.76      0.00
    8    2   15      2.02      0.00
  -21    3   15      2.70      0.00
    7    3   15      3.89      0.00
  -20    4   15     -0.71      0.00
    8    4   15     -0.52      0.00
  -21    5   15     -1.45      0.00
    7    5   15     -3.38      0.00
  -20    6   15      3.02      0.00
    8    6   15     -0.25      0.00
  -19    7   15     -4.27      0.00
    7    7   15     -0.23      0.00
  -20    8   15     -0.50      0.00
    6    8   15     -0.52      0.00
  -19    9   15      0.60      0.00
    5    9   15      1.65      0.00
    7    9   15      1.10      0.00
  -18   10   15     -0.69      0.00
    6   10   15     -0.04      0.00
  -17   11   15      0.82      0.00
    5   11   15     -0.26      0.00
  -18   12   15     -1.66      0.00
  -16   12   15     -1.10      0.00
    4   12   15      0.64      0.00
  -17   13   15      0.55      0.00
  -15   13   15      0.48      0.00
    3   13   15     -1.76      0.00
  -16   14   15      2.99      0.00
  -14   14   15     -0.62      0.00
    0   14   15      0.48      0.00
    2   14   15      1.71      0.00
  -15   15   15      0.88      0.00
  -13   15   15      0.03      0.00
  -11   15   15     -0.90      0.00
   -1   15   15      0.37      0.00
    1   15   15      2.61      0.00
  -12   16   15     -1.19      0.00
  -10   16   15     -2.05      0.00
   -8   16   15      0.59      0.00
   -6   16   15     -1.07      0.00
   -4   16   15      1.02      0.00
   -2   16   15      0.67      0.00
    0   16   15     -0.22      0.00
  -11   17   15      2.02      0.00
   -9   17   15      1.37      0.00
   -7   17   15     -0.05      0.00
   -5   17   15     -0.38      0.00
   -3   17   15     -0.34      0.00
   -8   18   15     -0.58      0.00
   -6   18   15     -0.28      0.00
  -20    0   16     -2.68      0.00
    6    0   16     -4.15      0.00
  -21    1   16      1.17      0.00
    7    1   16      0.33      0.00
  -20    2   16      0.33      0.00
    6    2   16      6.26      0.00
  -21    3   16     -1.16      0.00
    7    3   16     -1.19      0.00
  -20    4   16      1.15      0.00
    6    4   16     -6.89      0.00
  -19    5   16      0.13      0.00
    5    5   16      0.71      0.00
    7    5   16      0.51      0.00
  -20    6   16     -2.68      0.00
    6    6   16      3.20      0.00
  -19    7   16     -4.04      0.00
    5    7   16      0.34      0.00
  -18    8   16      1.90      0.00
    4    8   16      3.55      0.00
    6    8   16      0.63      0.00
  -19    9   16      0.43      0.00
  -17    9   16      0.21      0.00
    5    9   16      0.90      0.00
  -18   10   16      1.08      0.00
    4   10   16     -0.89      0.00
  -17   11   16      2.22      0.00
    3   11   16      0.68      0.00
  -16   12   16      0.18      0.00
    2   12   16     -0.54      0.00
  -15   13   16     -0.95      0.00
  -13   13   16     -0.88      0.00
   -1   13   16      0.39      0.00
    1   13   16      0.51      0.00
  -14   14   16     -0.54      0.00
  -12   14   16     -0.58      0.00
   -2   14   16      1.09      0.00
    0   14   16      4.06      0.00
  -13   15   16      0.78      0.00
  -11   15   16     -1.62      0.00
   -9   15   16      0.23      0.00
   -7   15   16     -1.80      0.00
   -5   15   16     -0.23      0.00
   -3   15   16      0.54      0.00
   -1   15   16      0.32      0.00
  -12   16   16      0.16      0.00
  -10   16   16      1.69      0.00
   -8   16   16     -2.00      0.00
   -6   16   16     -1.37      0.00
   -4   16   16     -0.46      0.00
   -2   16   16      0.31      0.00
   -7   17   16      0.65      0.00
  -21    1   17      2.22      0.00
  -19    1   17      0.75      0.00
    5    1   17      3.71      0.00
  -20    2   17     -1.35      0.00
    4    2   17      2.78      0.00
    6    2   17      0.22      0.00
  -19    3   17      4.78      0.00
    5    3   17     -5.86      0.00
  -20    4   17     -2.09      0.00
    4    4   17      0.40      0.00
  -19    5   17     -3.19      0.00
    5    5   17      4.79      0.00
  -20    6   17     -0.87      0.00
  -18    6   17     -0.32      0.00
    4    6   17     -0.29      0.00
  -19    7   17      2.60      0.00
    3    7   17      4.68      0.00
  -18    8   17      1.24      0.00
    2    8   17     -2.70      0.00
    4    8   17     -0.83      0.00
  -17    9   17     -0.91      0.00
    3    9   17     -1.57      0.00
  -18   10   17      1.08      0.00
  -16   10   17      5.23      0.00
    2   10   17      0.49      0.00
  -17   11   17      1.28      0.00
  -15   11   17      0.79      0.00
    1   11   17      0.28      0.00
  -16   12   17     -3.89      0.00
  -14   12   17     -3.53      0.00
   -2   12   17      0.71      0.00
    0   12   17      1.32      0.00
  -15   13   17      0.10      0.00
  -13   13   17      0.36      0.00
  -11   13   17     -2.65      0.00
   -9   13   17      4.27      0.00
   -3   13   17     -1.83      0.00
   -1   13   17      1.18      0.00
  -12   14   17     -1.47      0.00
  -10   14   17     -1.05      0.00
   -8   14   17     -0.76      0.00
   -6   14   17      0.87      0.00
   -4   14   17      0.78      0.00
   -2   14   17      0.54      0.00
  -11   15   17      2.60      0.00
   -9   15   17     -1.93      0.00
   -7   15   17     -3.87      0.00
   -5   15   17     -0.79      0.00
   -3   15   17     -0.38      0.00
  -20    0   18      1.93      0.00
  -18    0   18      4.64      0.00
    4    0   18     -0.33      0.00
  -19    1   18     -1.39      0.00
    3    1   18      1.88      0.00
  -20    2   18      0.41      0.00
  -18    2   18      2.52      0.00
    4    2   18     -0.23      0.00
  -19    3   18     -3.19      0.00
    3    3   18     -2.44      0.00
  -18    4   18     -5.61      0.00
    2    4   18     -6.27      0.00
    4    4   18      2.49      0.00
  -19    5   18      4.02      0.00
  -17    5   18     -1.67      0.00
    3    5   18     -1.13      0.00
  -18    6   18      3.98      0.00
    2    6   18      4.78      0.00
  -17    7   18      1.01      0.00
    1    7   18     -2.35      0.00
    3    7   18     -1.49      0.00
  -18    8   18     -1.77      0.00
  -16    8   18     -3.31      0.00
    0    8   18      2.23      0.00
    2    8   18     -3.21      0.00
  -17    9   18      2.08      0.00
  -15    9   18      3.45      0.00
   -1    9   18      2.44      0.00
    1    9   18      2.32      0.00
  -16   10   18      1.35      0.00
  -14   10   18     -0.03      0.00
   -2   10   18      0.00      0.00
    0   10   18     -1.38      0.00
  -15   11   18     -4.38      0.00
  -13   11   18     -2.66      0.00
  -11   11   18     -0.52      0.00
   -3   11   18     -1.49      0.00
   -1   11   18      0.19      0.00
  -14   12   18      0.56      0.00
  -12   12   18     -2.66      0.00
  -10   12   18      4.18      0.00
   -8   12   18      5.43      0.00
   -6   12   18     -1.21      0.00
   -4   12   18     -2.99      0.00
   -2   12   18     -0.44      0.00
  -13   13   18     -0.72      0.00
  -11   13   18     -1.75      0.00
   -9   13   18     -2.35      0.00
   -7   13   18      2.30      0.00
   -5   13   18      0.92      0.00
   -3   13   18     -0.11      0.00
  -10   14   18      0.06      0.00
   -8   14   18     -3.43      0.00
   -6   14   18     -0.66      0.00
  -19    1   19     -2.53      0.00
  -17    1   19     -2.26      0.00
    1    1   19      8.42      0.00
    3    1   19      2.86      0.00
  -18    2   19      4.68      0.00
    2    2   19     -3.56      0.00
  -19    3   19     -2.04      0.00
  -17    3   19     -2.48      0.00
    1    3   19     -8.08      0.00
  -18    4   19     -0.98      0.00
  -16    4   19     -2.55      0.00
    0    4   19     -0.30      0.00
    2    4   19      0.77      0.00
  -17    5   19      2.05      0.00
    1    5   19      4.54      0.00
  -18    6   19      0.83      0.00
  -16    6   19      3.22      0.00
    0    6   19     -0.41      0.00
  -17    7   19     -2.93      0.00
  -15    7   19     -0.70      0.00
   -1    7   19      1.61      0.00
    1    7   19     -3.09      0.00
  -16    8   19      1.49      0.00
  -14    8   19      0.94      0.00
   -2    8   19      1.66      0.00
    0    8   19      1.80      0.00
  -15    9   19     -0.06      0.00
  -13    9   19      3.16      0.00
  -11    9   19      0.15      0.00
   -3    9   19      1.93      0.00
   -1    9   19     -0.67      0.00
  -14   10   19     -1.88      0.00
  -12   10   19     -0.02      0.00
  -10   10   19     -0.19      0.00
   -8   10   19     -3.11      0.00
   -6   10   19     -0.43      0.00
   -4   10   19     -2.35      0.00
   -2   10   19     -2.20      0.00
  -13   11   19     -3.69      0.00
  -11   11   19      0.85      0.00
   -9   11   19      5.18      0.00
   -7   11   19      0.25      0.00
   -5   11   19     -1.71      0.00
   -3   11   19     -0.64      0.00
  -12   12   19      0.70      0.00
  -10   12   19     -2.23      0.00
   -8   12   19      2.20      0.00
   -6   12   19      2.02      0.00
   -4   12   19      0.51      0.00
   -9   13   19     -2.26      0.00
   -7   13   19     -1.05      0.00
  -18    0   20     -3.21      0.00
  -16    0   20     -0.12      0.00
   -2    0   20     -1.98      0.00
    0    0   20      3.98      0.00
  -17    1   20      3.39      0.00
  -15    1   20      2.01      0.00
   -1    1   20     -3.46      0.00
    1    1   20     -2.03      0.00
  -18    2   20      1.47      0.00
  -16    2   20      0.29      0.00
   -2    2   20      5.30      0.00
    0    2   20     -3.14      0.00
  -17    3   20     -4.21      0.00
  -15    3   20      0.56      0.00
   -3    3   20     -1.53      0.00
   -1    3   20      0.82      0.00
  -16    4   20     -3.17      0.00
  -14    4   20     -3.06      0.00
   -2    4   20     -3.32      0.00
    0    4   20      2.96      0.00
  -17    5   20      2.98      0.00
  -15    5   20      1.13      0.00
  -13    5   20     -0.55      0.00
   -3    5   20      0.94      0.00
   -1    5   20      0.85      0.00
  -16    6   20      1.72      0.00
  -14    6   20      1.38      0.00
  -12    6   20     -0.50      0.00
   -4    6   20      1.87      0.00
   -2    6   20      2.36      0.00
  -15    7   20     -0.60      0.00
  -13    7   20     -0.27      0.00
  -11    7   20     -2.58      0.00
   -7    7   20     -0.50      0.00
   -5    7   20     -1.08      0.00
   -3    7   20      0.02      0.00
  -14    8   20      1.56      0.00
  -12    8   20      0.55      0.00
  -10    8   20      1.33      0.00
   -8    8   20     -0.47      0.00
   -6    8   20     -1.39      0.00
   -4    8   20      0.71      0.00
   -2    8   20     -1.09      0.00
  -13    9   20      0.47      0.00
  -11    9   20      2.09      0.00
   -9    9   20     -1.81      0.00
   -7    9   20      2.11      0.00
   -5    9   20     -0.01      0.00
   -3    9   20     -1.37      0.00
  -12   10   20     -1.51      0.00
  -10   10   20      2.29      0.00
   -8   10   20      1.33      0.00
   -6   10   20     -0.33      0.00
   -9   11   20      0.77      0.00
   -7   11   20      1.32      0.00
  -15    1   21      3.51      0.00
  -13    1   21     -1.39      0.00
  -11    1   21     -3.30      0.00
   -7    1   21      0.72      0.00
   -5    1   21      2.39      0.00
   -3    1   21      4.77      0.00
  -16    2   21     -1.26      0.00
  -14    2   21     -0.66      0.00
  -12    2   21     -1.56      0.00
  -10    2   21     -2.61      0.00
   -8    2   21     -3.97      0.00
   -6    2   21     -4.39      0.00
   -4    2   21     -2.96      0.00
   -2    2   21      1.25      0.00
  -15    3   21     -4.03      0.00
  -13    3   21      0.28      0.00
  -11    3   21     -1.08      0.00
   -9    3   21     -2.07      0.00
   -7    3   21     -1.17      0.00
   -5    3   21     -3.07      0.00
   -3    3   21     -5.21      0.00
  -14    4   21     -1.85      0.00
  -12    4   21      1.82      0.00
  -10    4   21      2.82      0.00
   -8    4   21      1.93      0.00
   -6    4   21      1.32      0.00
   -4    4   21      1.42      0.00
  -15    5   21      3.36      0.00
  -13    5   21      0.71      0.00
  -11    5   21      1.68      0.00
   -9    5   21      1.06      0.00
   -7    5   21      0.77      0.00
   -5    5   21      3.41      0.00
   -3    5   21      3.16      0.00
  -14    6   21      0.17      0.00
  -12    6   21     -2.72      0.00
  -10    6   21     -2.20      0.00
   -8    6   21      0.23      0.00
   -6    6   21      0.11      0.00
   -4    6   21     -0.56      0.00
  -13    7   21     -0.41      0.00
  -11    7   21      1.02      0.00
   -9    7   21      1.02      0.00
   -7    7   21     -1.90      0.00
   -5    7   21     -1.25      0.00
  -12    8   21      2.56      0.00
  -10    8   21     -0.69      0.00
   -8    8   21      1.09      0.00
   -6    8   21      1.14      0.00
    0    0    0      0.00      0.00
# SQUEEZE RESULTS (Version =  30416)
# Note: Data are Listed for all Voids in the P1 Unit Cell
# i.e. Centre of Gravity, Solvent Accessible Volume,
# Recovered number of Electrons in the Void and
# Details about the Squeezed Material
loop_
  _platon_squeeze_void_nr
  _platon_squeeze_void_average_x
  _platon_squeeze_void_average_y
  _platon_squeeze_void_average_z
  _platon_squeeze_void_volume
  _platon_squeeze_void_count_electrons
  _platon_squeeze_void_content
   1  0.247  0.750 -0.003       689       143 ' '
   2  0.747  0.250 -0.003       689       143 ' '
# Missing Reflections Below sin(th)/lambda = 0.25
loop_
  _platon_missing_refln_index_h
  _platon_missing_refln_index_k
  _platon_missing_refln_index_l
  _platon_missing_refln_theta
    2    0    0     2.559
    1    1    0     1.687
    0    2    0     2.201
    0    6    0     6.616
   -1    1    1     1.768
    1    1    1     2.440
   -2    2    1     3.203
    0    2    1     2.557
   -2    0    2     2.769
    0    0    2     2.603
   -1    1    2     2.607
    0    2    2     3.410
_platon_squeeze_void_probe_radius                  1.20
_platon_squeeze_details
)
TITL dmsalno215 in C2/c; 130K; Xcalibur
CELL   17.5849   18.5060   17.2860     90.00    115.12     90.00
SPGR C2/c
# Solvent Accessible Volume =      1381
# Electrons Found in S.A.V. =       282
# Note: Atoms in Void as Cxxx and Qxxx all others
C101 1.000 0.094 0.251 !       2.97 eA-3
C102 0.949 0.358 0.386 !       2.18 eA-3
C103 0.987 0.402 0.257 !       1.58 eA-3
C104 0.031 0.157 0.259 !       1.51 eA-3
C105 0.016 0.137 0.292 !       1.46 eA-3
C106 0.959 0.375 0.323 !       1.37 eA-3
Q107 0.012 0.298 0.057 !       1.27 eA-3
Q108 0.986 0.247 0.017 !       1.21 eA-3
Q109 0.217 0.379 0.340 !       1.06 eA-3
C110 0.012 0.169 0.361 !       0.97 eA-3
Q111 0.189 0.297 0.391 !       0.95 eA-3
Q112 0.216 0.263 0.452 !       0.90 eA-3
Q113 0.194 0.409 0.315 !       0.87 eA-3
C114 0.922 0.311 0.320 !       0.80 eA-3
Q115 0.222 0.372 0.108 !       0.79 eA-3
C116 0.844 0.347 0.237 !       0.77 eA-3
Q117 0.182 0.260 0.395 !       0.76 eA-3
C118 0.141 0.251 0.343 !       0.73 eA-3
Q119 0.302 0.409 0.062 !       0.73 eA-3
Q120 0.124 0.153 0.376 !       0.68 eA-3
Q121 0.166 0.270 0.344 !       0.67 eA-3
C122 0.883 0.347 0.226 !       0.66 eA-3
C123 0.750 0.250-0.000 !       0.66 eA-3
Q124 0.107 0.175 0.339 !       0.64 eA-3
Q125 0.247 0.301 0.409 !       0.63 eA-3
Q126 0.184 0.316 0.333 !       0.63 eA-3
C127 0.075 0.189 0.311 !       0.62 eA-3
C128 0.048 0.190 0.222 !       0.61 eA-3
C129 0.889 0.252 0.198 !       0.58 eA-3
C130 0.086 0.219 0.270 !       0.55 eA-3
Q131 0.372 0.078 0.424 !       0.54 eA-3
Q132 0.193 0.376 0.452 !       0.52 eA-3
Q133 0.213 0.396 0.470 !       0.52 eA-3
C134 0.890 0.266 0.267 !       0.51 eA-3
Q135 0.080 0.167 0.374 !       0.51 eA-3
Q136 0.562 0.409 0.075 !       0.50 eA-3
Q137 0.552 0.482 0.486 !       0.50 eA-3
)
;
_shelx_fab_checksum              41921
loop_
_space_group_symop_operation_xyz
'x, y, z'
'-x, y, -z+1/2'
'x+1/2, y+1/2, z'
'-x+1/2, y+1/2, -z+1/2'
'-x, -y, -z'
'x, -y, z-1/2'
'-x+1/2, -y+1/2, -z'
'x+1/2, -y+1/2, z-1/2'
loop_
_atom_site_label
_atom_site_type_symbol
_atom_site_fract_x
_atom_site_fract_y
_atom_site_fract_z
_atom_site_U_iso_or_equiv
_atom_site_adp_type
_atom_site_occupancy
_atom_site_site_symmetry_order
_atom_site_calc_flag
_atom_site_refinement_flags_posn
_atom_site_refinement_flags_adp
_atom_site_refinement_flags_occupancy
_atom_site_disorder_assembly
_atom_site_disorder_group
Zn1 Zn 0.75389(3) 0.11970(2) 0.57864(2) 0.02654(17) Uani 1 1 d . . . . .
Li1 Li 0.9229(4) 0.1135(3) 0.7524(4) 0.0266(13) Uani 1 1 d . . . . .
O11 O 0.84219(16) 0.09047(18) 0.54595(16) 0.0434(8) Uani 1 1 d . . . . .
O12 O 0.96320(15) 0.10839(13) 0.65979(15) 0.0268(6) Uani 1 1 d . . . . .
C11 C 0.9205(2) 0.0840(2) 0.5876(2) 0.0301(8) Uani 1 1 d . . . . .
C12 C 0.9622(2) 0.0407(2) 0.5427(2) 0.0321(9) Uani 1 1 d . . . . .
C13 C 0.9256(2) -0.0222(3) 0.5005(3) 0.0409(10) Uani 1 1 d . . . . .
C14 C 1.0373(3) 0.0625(3) 0.5426(3) 0.0446(11) Uani 1 1 d . . . . .
N11 N 0.8491(8) -0.0495(7) 0.4925(8) 0.037(3) Uani 0.25 1 d D . P . .
O13 O 0.8430(9) -0.0607(8) 0.5607(9) 0.059(4) Uani 0.25 1 d D . P . .
O14 O 0.7907(7) -0.0631(8) 0.4210(9) 0.062(4) Uani 0.25 1 d D . P . .
N12 N 1.0657(9) 0.1462(10) 0.5544(12) 0.067(4) Uani 0.25 1 d D U P . .
O15 O 1.0168(9) 0.1970(8) 0.5486(9) 0.066(4) Uani 0.25 1 d D U P . .
O16 O 1.1406(9) 0.1604(10) 0.5765(11) 0.081(4) Uani 0.25 1 d D U P . .
O21 O 0.75211(17) 0.21347(14) 0.62396(16) 0.0360(6) Uani 1 1 d . . . . .
O22 O 0.86601(16) 0.20113(14) 0.74752(16) 0.0339(6) Uani 1 1 d . . . . .
O23 O 0.77455(18) 0.53786(16) 0.86978(19) 0.0451(8) Uani 1 1 d . . . . .
O24 O 0.64750(18) 0.53313(15) 0.76234(18) 0.0422(7) Uani 1 1 d . . . . .
C21 C 0.8025(2) 0.23399(19) 0.6992(2) 0.0275(8) Uani 1 1 d . . . . .
C22 C 0.7808(2) 0.3049(2) 0.7261(2) 0.0302(8) Uani 1 1 d . . . . .
C23 C 0.8247(3) 0.3286(2) 0.8095(3) 0.0504(13) Uani 1 1 d . . . . .
C24 C 0.8043(3) 0.3939(2) 0.8338(3) 0.0517(13) Uani 1 1 d . . . . .
C25 C 0.7413(2) 0.4372(2) 0.7782(2) 0.0340(9) Uani 1 1 d . . . . .
C26 C 0.6992(3) 0.4136(2) 0.6956(3) 0.0473(12) Uani 1 1 d . . . . .
H26 H 0.6553 0.4424 0.6557 0.057 Uiso 1 1 calc R U . . .
C27 C 0.7196(3) 0.3484(2) 0.6694(3) 0.0459(11) Uani 1 1 d . . . . .
H27 H 0.6907 0.3338 0.6114 0.055 Uiso 1 1 calc R U . . .
C28 C 0.7182(3) 0.5088(2) 0.8048(2) 0.0342(9) Uani 1 1 d . . . . .
N21 N 0.8648(7) 0.4195(6) 0.9173(6) 0.072(2) Uani 0.519(6) 1 d D U P A 1
O25 O 0.8391(6) 0.4108(5) 0.9719(5) 0.081(2) Uani 0.519(6) 1 d D U P A 1
O26 O 0.9352(5) 0.4431(5) 0.9302(5) 0.088(3) Uani 0.519(6) 1 d D U P A 1
N21' N 0.8232(13) 0.4014(16) 0.9262(16) 0.079(3) Uani 0.231(6) 1 d D U P A 2
O25' O 0.7734(13) 0.4122(11) 0.9565(11) 0.081(3) Uani 0.231(6) 1 d D U P A 2
O26' O 0.8983(13) 0.4056(12) 0.9749(13) 0.085(3) Uani 0.231(6) 1 d D U P A 2
N22 N 0.8614(9) 0.2732(8) 0.8838(9) 0.048(3) Uani 0.25 1 d D U P . .
O27 O 0.8270(9) 0.2157(7) 0.8901(8) 0.056(3) Uani 0.25 1 d D U P . .
O28 O 0.9313(8) 0.2901(8) 0.9338(8) 0.064(4) Uani 0.25 1 d D U P . .
N1 N 0.65806(18) 0.12419(15) 0.46025(18) 0.0261(7) Uani 1 1 d . . . . .
C1 C 0.6420(2) 0.0650(2) 0.4113(2) 0.0341(9) Uani 1 1 d . . . . .
H1 H 0.6744 0.0227 0.4345 0.041 Uiso 1 1 calc R U . . .
C2 C 0.5806(2) 0.0629(2) 0.3287(2) 0.0354(9) Uani 1 1 d . . . . .
H2 H 0.5708 0.0199 0.2957 0.042 Uiso 1 1 calc R U . . .
C3 C 0.5331(2) 0.12471(19) 0.2943(2) 0.0260(8) Uani 1 1 d . . . . .
C4 C 0.5504(2) 0.1862(2) 0.3454(2) 0.0277(8) Uani 1 1 d . . . . .
H4 H 0.5196 0.2294 0.3238 0.033 Uiso 1 1 calc R U . . .
C5 C 0.6130(2) 0.1835(2) 0.4278(2) 0.0276(8) Uani 1 1 d . . . . .
H5 H 0.6241 0.2256 0.4625 0.033 Uiso 1 1 calc R U . . .
loop_
_atom_site_aniso_label
_atom_site_aniso_U_11
_atom_site_aniso_U_22
_atom_site_aniso_U_33
_atom_site_aniso_U_23
_atom_site_aniso_U_13
_atom_site_aniso_U_12
Zn1 0.0295(3) 0.0247(2) 0.0152(2) 0.00033(16) -0.00039(17) 0.00073(17)
Li1 0.027(3) 0.027(3) 0.018(3) 0.001(2) 0.003(2) 0.001(2)
O11 0.0272(14) 0.071(2) 0.0203(13) -0.0139(13) -0.0016(11) 0.0126(14)
O12 0.0252(12) 0.0349(14) 0.0145(11) -0.0042(10) 0.0031(10) -0.0001(10)
C11 0.0290(19) 0.040(2) 0.0160(17) -0.0023(15) 0.0041(15) 0.0016(16)
C12 0.0279(19) 0.048(2) 0.0131(16) -0.0068(16) 0.0012(14) 0.0053(17)
C13 0.032(2) 0.054(3) 0.036(2) -0.012(2) 0.0142(18) -0.0021(19)
C14 0.037(2) 0.054(3) 0.041(2) -0.018(2) 0.0148(19) -0.004(2)
N11 0.043(8) 0.033(7) 0.046(8) -0.007(6) 0.031(7) 0.002(6)
O13 0.063(9) 0.049(8) 0.076(10) -0.002(7) 0.040(8) -0.010(7)
O14 0.039(7) 0.077(10) 0.077(10) -0.047(8) 0.031(7) -0.017(7)
N12 0.064(8) 0.082(9) 0.072(9) -0.045(8) 0.045(7) -0.022(8)
O15 0.069(8) 0.069(9) 0.068(8) -0.040(7) 0.036(7) -0.003(7)
O16 0.069(8) 0.086(9) 0.093(9) -0.049(8) 0.042(8) -0.032(8)
O21 0.0454(16) 0.0273(14) 0.0258(14) -0.0065(11) 0.0060(12) 0.0058(12)
O22 0.0376(15) 0.0276(13) 0.0312(14) -0.0028(11) 0.0094(12) 0.0055(12)
O23 0.0424(16) 0.0378(16) 0.0409(16) -0.0176(13) 0.0039(13) 0.0048(13)
O24 0.0450(17) 0.0324(15) 0.0368(15) -0.0067(12) 0.0054(13) 0.0133(13)
C21 0.0338(19) 0.0249(18) 0.0226(18) -0.0009(15) 0.0108(16) 0.0005(16)
C22 0.034(2) 0.0262(18) 0.0264(18) -0.0023(15) 0.0092(16) 0.0031(16)
C23 0.053(3) 0.038(2) 0.035(2) -0.0112(19) -0.006(2) 0.014(2)
C24 0.057(3) 0.041(3) 0.032(2) -0.0136(19) -0.005(2) 0.018(2)
C25 0.040(2) 0.0271(19) 0.028(2) -0.0030(16) 0.0089(17) 0.0032(17)
C26 0.054(3) 0.036(2) 0.029(2) -0.0012(18) -0.0035(19) 0.020(2)
C27 0.063(3) 0.036(2) 0.0230(19) -0.0048(17) 0.0026(19) 0.015(2)
C28 0.042(2) 0.0272(19) 0.029(2) -0.0036(16) 0.0108(18) 0.0025(17)
N21 0.072(4) 0.077(4) 0.044(3) -0.023(3) 0.002(4) 0.014(4)
O25 0.087(5) 0.084(4) 0.047(3) -0.016(3) 0.006(4) 0.010(4)
O26 0.066(4) 0.098(5) 0.068(4) -0.038(4) -0.003(4) 0.010(4)
N21' 0.081(5) 0.081(5) 0.047(4) -0.021(4) 0.000(5) 0.015(5)
O25' 0.085(6) 0.081(5) 0.050(5) -0.018(4) 0.002(5) 0.010(5)
O26' 0.081(5) 0.087(5) 0.052(4) -0.023(4) -0.004(5) 0.012(5)
N22 0.056(7) 0.051(7) 0.036(6) -0.005(6) 0.017(6) 0.026(6)
O27 0.075(8) 0.051(7) 0.042(6) 0.017(6) 0.025(6) 0.021(6)
O28 0.060(8) 0.065(8) 0.045(7) -0.012(6) 0.002(6) 0.015(7)
N1 0.0259(15) 0.0272(16) 0.0147(14) 0.0010(12) -0.0015(12) 0.0004(12)
C1 0.033(2) 0.030(2) 0.0236(18) 0.0013(15) -0.0034(16) 0.0053(16)
C2 0.040(2) 0.0264(19) 0.0213(18) -0.0052(15) -0.0050(16) 0.0037(17)
C3 0.0245(17) 0.0303(19) 0.0177(17) -0.0005(14) 0.0036(15) -0.0036(14)
C4 0.0310(19) 0.0270(18) 0.0171(16) 0.0017(14) 0.0025(14) 0.0032(15)
C5 0.0308(18) 0.0271(19) 0.0139(16) -0.0016(14) -0.0011(14) 0.0031(15)
loop_
_atom_type_symbol
_atom_type_description
_atom_type_scat_dispersion_real
_atom_type_scat_dispersion_imag
_atom_type_scat_source
C C 0.0033 0.0016 'International Tables Vol C Tables 4.2.6.8 and 6.1.1.4'
H H 0.0000 0.0000 'International Tables Vol C Tables 4.2.6.8 and 6.1.1.4'
Li Li -0.0003 0.0001 'International Tables Vol C Tables 4.2.6.8 and 6.1.1.4'
N N 0.0061 0.0033 'International Tables Vol C Tables 4.2.6.8 and 6.1.1.4'
O O 0.0106 0.0060 'International Tables Vol C Tables 4.2.6.8 and 6.1.1.4'
Zn Zn 0.2839 1.4301 'International Tables Vol C Tables 4.2.6.8 and 6.1.1.4'
loop_
_geom_angle_atom_site_label_1
_geom_angle_atom_site_label_2
_geom_angle_atom_site_label_3
_geom_angle
_geom_angle_site_symmetry_1
_geom_angle_site_symmetry_3
_geom_angle_publ_flag
O11 Zn1 Li1 74.03(13) . . ?
O11 Zn1 N1 98.20(12) . . yes
O21 Zn1 Li1 79.54(13) . . ?
O21 Zn1 O11 121.81(13) . . yes
O21 Zn1 O23 118.12(14) . 4_646 yes
O21 Zn1 N1 103.04(11) . . yes
O23 Zn1 Li1 81.83(14) 4_646 . ?
O23 Zn1 O11 108.20(14) 4_646 . yes
O23 Zn1 N1 103.38(12) 4_646 . yes
N1 Zn1 Li1 171.82(15) . . ?
Li1 Li1 Zn1 120.4(3) 2_756 . ?
O12 Li1 Zn1 167.3(3) 2_756 . ?
O12 Li1 Zn1 75.86(18) . . ?
O12 Li1 Li1 44.74(19) . 2_756 ?
O12 Li1 Li1 46.94(19) 2_756 2_756 ?
O12 Li1 O12 91.4(3) 2_756 . yes
O22 Li1 Zn1 70.43(18) . . ?
O22 Li1 Li1 120.6(2) . 2_756 ?
O22 Li1 O12 111.4(3) . . yes
O22 Li1 O12 115.4(3) . 2_756 yes
O24 Li1 Zn1 66.86(18) 4_646 . ?
O24 Li1 Li1 126.6(2) 4_646 2_756 ?
O24 Li1 O12 106.8(3) 4_646 . yes
O24 Li1 O12 118.0(3) 4_646 2_756 yes
O24 Li1 O22 111.6(3) 4_646 . yes
C11 O11 Zn1 132.5(2) . . ?
Li1 O12 Li1 88.3(3) 2_756 . yes
C11 O12 Li1 123.6(3) . . ?
C11 O12 Li1 142.4(3) . 2_756 ?
O11 C11 C12 114.2(3) . . ?
O12 C11 O11 126.1(4) . . ?
O12 C11 C12 119.7(3) . . ?
C13 C12 C11 120.1(4) . . ?
C13 C12 C14 118.5(4) . . ?
C14 C12 C11 121.4(4) . . ?
C12 C13 C14 121.0(4) . 5_756 ?
C12 C13 N11 125.1(6) . . ?
N11 C13 C14 113.9(6) . 5_756 ?
C12 C14 C13 120.6(4) . 5_756 ?
C12 C14 N12 121.6(6) . . ?
C13 C14 N12 113.1(6) 5_756 . ?
O13 N11 C13 115.9(11) . . ?
O13 N11 O14 122.5(14) . . ?
O14 N11 C13 121.7(11) . . ?
O15 N12 C14 123.2(13) . . ?
O16 N12 C14 118.4(15) . . ?
O16 N12 O15 118.2(18) . . ?
O27 O16 N12 124.1(18) 2_756 . ?
C21 O21 Zn1 124.1(2) . . ?
C21 O22 Li1 139.8(3) . . ?
C28 O23 Zn1 119.1(3) . 4_656 ?
C28 O24 Li1 144.1(3) . 4_656 ?
O21 C21 C22 114.8(3) . . ?
O22 C21 O21 125.3(3) . . ?
O22 C21 C22 119.9(3) . . ?
C23 C22 C21 119.9(3) . . ?
C27 C22 C21 121.3(3) . . ?
C27 C22 C23 118.7(4) . . ?
C22 C23 N22 120.2(6) . . ?
C24 C23 C22 119.6(4) . . ?
C24 C23 N22 113.5(6) . . ?
C23 C24 N21 114.3(5) . . ?
C23 C24 N21' 116.1(12) . . ?
C25 C24 C23 122.4(4) . . ?
C25 C24 N21 122.3(5) . . ?
C25 C24 N21' 116.1(10) . . ?
C24 C25 C28 122.6(3) . . ?
C26 C25 C24 117.5(4) . . ?
C26 C25 C28 119.9(3) . . ?
C25 C26 H26 119.5 . . ?
C25 C26 C27 121.1(4) . . ?
C27 C26 H26 119.5 . . ?
C22 C27 C26 120.7(4) . . ?
C22 C27 H27 119.6 . . ?
C26 C27 H27 119.6 . . ?
O23 C28 C25 115.7(3) . . ?
O24 C28 O23 126.1(4) . . ?
O24 C28 C25 118.2(3) . . ?
O25 N21 C24 111.7(10) . . ?
O25 N21 O26 125.3(10) . . ?
O26 N21 C24 122.9(9) . . ?
O25' N21' C24 127.1(18) . . ?
O25' N21' O26' 117(3) . . ?
O26' N21' C24 115(2) . . ?
O27 N22 C23 126.0(12) . . ?
O28 N22 C23 111.1(13) . . ?
O28 N22 O27 122.8(16) . . ?
O16 O27 N22 128.4(16) 2_756 . ?
C1 N1 Zn1 117.8(2) . . ?
C5 N1 Zn1 123.4(2) . . ?
C5 N1 C1 118.8(3) . . ?
N1 C1 H1 118.6 . . ?
N1 C1 C2 122.7(3) . . ?
C2 C1 H1 118.6 . . ?
C1 C2 H2 120.6 . . ?
C1 C2 C3 118.9(3) . . ?
C3 C2 H2 120.6 . . ?
C2 C3 C3 120.5(2) . 2_655 ?
C4 C3 C2 118.1(3) . . ?
C4 C3 C3 121.4(2) . 2_655 ?
C3 C4 H4 120.4 . . ?
C5 C4 C3 119.3(3) . . ?
C5 C4 H4 120.4 . . ?
N1 C5 C4 122.3(3) . . ?
N1 C5 H5 118.9 . . ?
C4 C5 H5 118.9 . . ?
loop_
_geom_bond_atom_site_label_1
_geom_bond_atom_site_label_2
_geom_bond_distance
_geom_bond_site_symmetry_2
_geom_bond_publ_flag
Zn1 Li1 3.207(6) . ?
Zn1 O11 1.941(3) . yes
Zn1 O21 1.910(3) . yes
Zn1 O23 1.928(3) 4_646 yes
Zn1 N1 2.026(3) . yes
Li1 Li1 2.748(13) 2_756 ?
Li1 O12 1.935(6) 2_756 yes
Li1 O12 2.009(7) . yes
Li1 O22 1.889(6) . yes
Li1 O24 1.881(6) 4_646 yes
O11 C11 1.260(4) . ?
O12 Li1 1.935(6) 2_756 ?
O12 C11 1.237(4) . ?
C11 C12 1.504(5) . ?
C12 C13 1.378(6) . ?
C12 C14 1.383(6) . ?
C13 C14 1.396(6) 5_756 ?
C13 N11 1.389(14) . ?
C14 C13 1.395(6) 5_756 ?
C14 N12 1.614(18) . ?
N11 O13 1.245(14) . ?
N11 O14 1.252(14) . ?
N12 O15 1.248(15) . ?
N12 O16 1.234(15) . ?
O16 O27 1.193(19) 2_756 ?
O21 C21 1.281(4) . ?
O22 C21 1.235(4) . ?
O23 Zn1 1.928(3) 4_656 ?
O23 C28 1.260(5) . ?
O24 Li1 1.881(6) 4_656 ?
O24 C28 1.229(5) . ?
C21 C22 1.494(5) . ?
C22 C23 1.386(5) . ?
C22 C27 1.369(6) . ?
C23 C24 1.376(6) . ?
C23 N22 1.553(15) . ?
C24 C25 1.374(6) . ?
C24 N21 1.461(10) . ?
C24 N21' 1.49(3) . ?
C25 C26 1.370(5) . ?
C25 C28 1.515(5) . ?
C26 H26 0.9500 . ?
C26 C27 1.390(6) . ?
C27 H27 0.9500 . ?
N21 O25 1.217(12) . ?
N21 O26 1.242(12) . ?
N21' O25' 1.212(18) . ?
N21' O26' 1.231(18) . ?
N22 O27 1.251(15) . ?
N22 O28 1.206(14) . ?
O27 O16 1.193(19) 2_756 ?
N1 C1 1.339(5) . ?
N1 C5 1.331(5) . ?
C1 H1 0.9500 . ?
C1 C2 1.378(5) . ?
C2 H2 0.9500 . ?
C2 C3 1.392(5) . ?
C3 C3 1.480(7) 2_655 ?
C3 C4 1.391(5) . ?
C4 H4 0.9500 . ?
C4 C5 1.383(5) . ?
C5 H5 0.9500 . ?
