#------------------------------------------------------------------------------
#$Date: 2017-03-04 15:16:02 +0200 (Sat, 04 Mar 2017) $
#$Revision: 193438 $
#$URL: file:///home/coder/svn-repositories/cod/cif/4/34/50/4345012.cif $
#------------------------------------------------------------------------------
#
# This file is available in the Crystallography Open Database (COD),
# http://www.crystallography.net/
#
# All data on this site have been placed in the public domain by the
# contributors.
#
data_4345012
loop_
_publ_author_name
'Sapianik, Aleksandr A.'
'Zorina-Tikhonova, Ekaterina N'
'Kiskin, Mikhail A.'
'Samsonenko, Denis G.'
'Kovalenko, Konstantin A.'
'Sidorov, Alexey A.'
'Eremenko, Igor L.'
'Dybtsev, Danil N.'
'Blake, Alexander J.'
'Argent, Stephen P.'
'Schr\"oder, Martin'
'Fedin, Vladimir P.'
_publ_section_title
;
 Rational Synthesis and Investigation of Porous Metal-Organic Framework
 Materials from a Preorganized Heterometallic Carboxylate Building Block.
;
_journal_issue                   3
_journal_name_full               'Inorganic chemistry'
_journal_page_first              1599
_journal_page_last               1608
_journal_paper_doi               10.1021/acs.inorgchem.6b02713
_journal_volume                  56
_journal_year                    2017
_chemical_formula_sum            'C47 H47 Li2 N7 O15 Zn2'
_chemical_formula_weight         1094.53
_space_group_crystal_system      monoclinic
_space_group_IT_number           15
_space_group_name_Hall           '-C 2yc'
_space_group_name_H-M_alt        'C 1 2/c 1'
_symmetry_space_group_name_Hall  '-C 2yc'
_symmetry_space_group_name_H-M   'C 1 2/c 1'
_atom_sites_solution_hydrogens   geom
_atom_sites_solution_primary     direct
_atom_sites_solution_secondary   difmap
_audit_creation_method           SHELXL-2014/7
_cell_angle_alpha                90
_cell_angle_beta                 113.193(7)
_cell_angle_gamma                90
_cell_formula_units_Z            4
_cell_length_a                   17.0602(9)
_cell_length_b                   18.8603(9)
_cell_length_c                   16.9468(11)
_cell_measurement_reflns_used    4851
_cell_measurement_temperature    120(2)
_cell_measurement_theta_max      73.20
_cell_measurement_theta_min      3.68
_cell_volume                     5012.1(5)
_computing_cell_refinement       'CrysAlisPro 1.171.38.41 (Rigaku OD, 2015)'
_computing_data_collection       'CrysAlisPro 1.171.38.41 (Rigaku OD, 2015)'
_computing_data_reduction        'CrysAlisPro 1.171.38.41 (Rigaku OD, 2015)'
_computing_molecular_graphics    'ShelXle (H\"ubschle, 2011)'
_computing_publication_material  'CIFTAB-2014 (Sheldrick, 2015)'
_computing_structure_refinement  'SHELXL-2014 (Sheldrick, 2015)'
_computing_structure_solution    'SHELXT-2014 (Sheldrick, 2015)'
_diffrn_ambient_temperature      120(2)
_diffrn_detector                 'CCD plate'
_diffrn_detector_area_resol_mean 10.6168
_diffrn_detector_type            AtlasS2
_diffrn_measured_fraction_theta_full 0.998
_diffrn_measured_fraction_theta_max 0.979
_diffrn_measurement_device       'four-circle diffractometer'
_diffrn_measurement_device_type  'GV1000, AtlasS2'
_diffrn_measurement_method       '\w scans'
_diffrn_radiation_monochromator  graphite
_diffrn_radiation_probe          x-ray
_diffrn_radiation_source         'fine-focus sealed tube'
_diffrn_radiation_type           CuK\a
_diffrn_radiation_wavelength     1.54184
_diffrn_reflns_av_R_equivalents  0.0316
_diffrn_reflns_av_unetI/netI     0.0363
_diffrn_reflns_Laue_measured_fraction_full 0.998
_diffrn_reflns_Laue_measured_fraction_max 0.979
_diffrn_reflns_limit_h_max       15
_diffrn_reflns_limit_h_min       -21
_diffrn_reflns_limit_k_max       23
_diffrn_reflns_limit_k_min       -20
_diffrn_reflns_limit_l_max       19
_diffrn_reflns_limit_l_min       -20
_diffrn_reflns_number            10728
_diffrn_reflns_point_group_measured_fraction_full 0.998
_diffrn_reflns_point_group_measured_fraction_max 0.979
_diffrn_reflns_theta_full        70.000
_diffrn_reflns_theta_max         73.391
_diffrn_reflns_theta_min         5.275
_diffrn_source                   'sealed X-ray tube'
_diffrn_source_type              'GV1000 (Cu) X-ray Source'
_exptl_absorpt_coefficient_mu    1.805
_exptl_absorpt_correction_T_max  0.994
_exptl_absorpt_correction_T_min  0.974
_exptl_absorpt_correction_type   gaussian
_exptl_absorpt_process_details
;
CrysAlisPro, Agilent Technologies,
Version 1.171.37.35 (release 13-08-2014 CrysAlis171 .NET)
(compiled Aug 13 2014,18:06:01)
Numerical absorption correction based on gaussian integration over
a multifaceted crystal model.
;
_exptl_crystal_colour            colorless
_exptl_crystal_density_diffrn    1.450
_exptl_crystal_description       stick
_exptl_crystal_F_000             2256
_exptl_crystal_size_max          0.19
_exptl_crystal_size_mid          0.04
_exptl_crystal_size_min          0.03
_refine_diff_density_max         1.029
_refine_diff_density_min         -0.962
_refine_diff_density_rms         0.077
_refine_ls_extinction_method     none
_refine_ls_goodness_of_fit_ref   1.041
_refine_ls_hydrogen_treatment    constr
_refine_ls_matrix_type           full
_refine_ls_number_parameters     235
_refine_ls_number_reflns         4943
_refine_ls_number_restraints     0
_refine_ls_restrained_S_all      1.041
_refine_ls_R_factor_all          0.0523
_refine_ls_R_factor_gt           0.0488
_refine_ls_shift/su_max          0.001
_refine_ls_shift/su_mean         0.000
_refine_ls_structure_factor_coef Fsqd
_refine_ls_weighting_details
'w=1/[\s^2^(Fo^2^)+(0.0690P)^2^+10.9594P] where P=(Fo^2^+2Fc^2^)/3'
_refine_ls_weighting_scheme      calc
_refine_ls_wR_factor_gt          0.1326
_refine_ls_wR_factor_ref         0.1355
_reflns_Friedel_coverage         0.000
_reflns_number_gt                4444
_reflns_number_total             4943
_reflns_threshold_expression     >2\s(I)
_cod_data_source_file            ic6b02713_si_002.cif
_cod_data_source_block           2
_cod_depositor_comments
'Adding full bibliography for 4345011--4345015.cif.'
_cod_database_code               4345012
_shelx_shelxl_version_number     2014/7
_shelx_space_group_comment
;
The symmetry employed for this shelxl refinement is uniquely defined
by the following loop, which should always be used as a source of
symmetry information in preference to the above space-group names.
They are only intended as comments.
;
_shelx_estimated_absorpt_t_min   0.725
_shelx_estimated_absorpt_t_max   0.948
_shelx_res_file
;
 
    DSMSAL_sq.res created by SHELXL-2014/7
 
 
TITL DSMSAL in C2/c; 120K; GV-1000
CELL  1.54184  17.0602  18.8603  16.9468   90.000  113.193   90.000
ZERR    4.000   0.0009   0.0009   0.0011    0.000    0.007    0.000
LATT  7
SYMM -X, Y, 1/2-Z
SFAC C   H   LI N  O  ZN
UNIT 188 188 8  28 60 8
 
L.S. 6 0  134
BOND $H
FMAP 2
PLAN 5
 
TEMP -153
LIST 4 ! automatically inserted. Change 6 to 4 for CHECKCIF!!
 
OMIT  -1   1   1
OMIT   1   1   0
OMIT   0   2   0
OMIT   3   1   1
OMIT  -2   0   2
 
ACTA 140
SIZE 0.19 0.04 0.03
 
ABIN
WGHT    0.069000   10.959399
FVAR       1.62608
ZN1   6    0.250308    0.374291    0.418584    11.00000    0.02374    0.02183 =
         0.02164    0.00166   -0.00647   -0.00145
LI1   3    0.080173    0.383616    0.247808    11.00000    0.02256    0.02044 =
         0.02694    0.00172    0.00351    0.00080
O11   5    0.157296    0.401250    0.452974    11.00000    0.02454    0.05030 =
         0.02092   -0.00469   -0.00577    0.00696
O12   5    0.034343    0.385466    0.340130    11.00000    0.02238    0.02621 =
         0.01907   -0.00238   -0.00172   -0.00077
C101  1    0.078302    0.410572    0.412825    11.00000    0.02498    0.02733 =
         0.01813    0.00071   -0.00114   -0.00109
C102  1    0.037268    0.456027    0.457920    11.00000    0.02227    0.03182 =
         0.01614    0.00015   -0.00067   -0.00127
C103  1    0.084144    0.510233    0.512410    11.00000    0.02382    0.04292 =
         0.02676   -0.00932    0.00360   -0.00679
AFIX  43
H103  2    0.142042    0.517330    0.520882    11.00000   -1.20000
AFIX   0
C104  1   -0.047489    0.446450    0.445958    11.00000    0.02461    0.03634 =
         0.02639   -0.00971    0.00190   -0.00728
AFIX  43
H104  2   -0.080260    0.409965    0.409005    11.00000   -1.20000
AFIX   0
O21   5    0.251730    0.284111    0.369140    11.00000    0.04462    0.03108 =
         0.03020   -0.00597    0.00248    0.01305
O22   5    0.138959    0.298787    0.244506    11.00000    0.03130    0.02714 =
         0.03458   -0.00076    0.00557    0.00702
C201  1    0.200493    0.264085    0.294378    11.00000    0.02959    0.02887 =
         0.02862    0.00016    0.00768    0.00642
C202  1    0.219491    0.192852    0.266809    11.00000    0.03324    0.02998 =
         0.02994   -0.00215    0.00298    0.01105
C203  1    0.287131    0.152317    0.321988    11.00000    0.04780    0.03565 =
         0.02514   -0.00239    0.00046    0.01589
AFIX  43
H203  2    0.321339    0.169683    0.377586    11.00000   -1.20000
AFIX   0
C204  1    0.304511    0.086915    0.295954    11.00000    0.04667    0.03479 =
         0.03006   -0.00205   -0.00309    0.01702
AFIX  43
H204  2    0.351028    0.059651    0.333607    11.00000   -1.20000
AFIX   0
C205  1    0.254290    0.060633    0.214836    11.00000    0.03581    0.02936 =
         0.03259   -0.00440    0.00285    0.00838
C206  1    0.185838    0.100024    0.160540    11.00000    0.03534    0.03729 =
         0.03184   -0.00773   -0.00128    0.01081
AFIX  43
H206  2    0.150027    0.081477    0.106113    11.00000   -1.20000
AFIX   0
C207  1    0.169523    0.166322    0.185420    11.00000    0.03402    0.03786 =
         0.03281   -0.00565   -0.00457    0.01479
AFIX  43
H207  2    0.124028    0.194042    0.146925    11.00000   -1.20000
AFIX   0
C208  1    0.275339   -0.010715    0.187841    11.00000    0.03546    0.03045 =
         0.02943   -0.00334    0.00496    0.00762
O23   5    0.218537   -0.037712    0.120715    11.00000    0.03562    0.03491 =
         0.04379   -0.01286   -0.00100    0.00918
O24   5    0.344721   -0.038515    0.230933    11.00000    0.04091    0.03173 =
         0.03833   -0.00520    0.00216    0.01684
N11   4    0.342029    0.365859    0.539327    11.00000    0.02373    0.02732 =
         0.02210    0.00098   -0.00457    0.00067
C11   1    0.357114    0.423468    0.589910    11.00000    0.03624    0.02760 =
         0.03279   -0.00205   -0.01209    0.00813
AFIX  43
H11   2    0.323897    0.464855    0.568009    11.00000   -1.20000
AFIX   0
C12   1    0.418713    0.424884    0.672097    11.00000    0.03970    0.02726 =
         0.03405   -0.00641   -0.01250    0.00450
AFIX  43
H12   2    0.428420    0.466917    0.705500    11.00000   -1.20000
AFIX   0
C13   1    0.466677    0.364291    0.705915    11.00000    0.02350    0.02893 =
         0.02568   -0.00016   -0.00707   -0.00017
C14   1    0.450321    0.304361    0.653700    11.00000    0.02520    0.02521 =
         0.02705    0.00098   -0.00415    0.00117
AFIX  43
H14   2    0.481787    0.261955    0.674387    11.00000   -1.20000
AFIX   0
C15   1    0.387910    0.307325    0.571624    11.00000    0.02677    0.02483 =
         0.02627   -0.00112   -0.00154   -0.00096
AFIX  43
H15   2    0.377054    0.266162    0.536612    11.00000   -1.20000
AFIX   0
HKLF 4
 
REM  DSMSAL in C2/c; 120K; GV-1000
REM R1 =  0.0488 for    4444 Fo > 4sig(Fo)  and  0.0523 for all    4943 data
REM    235 parameters refined using      0 restraints
 
END
 
WGHT      0.0690     10.9594
 
REM Highest difference peak  1.029,  deepest hole -0.962,  1-sigma level  0.077
Q1    1   0.2796  0.3478  0.3905  11.00000  0.05    1.03
Q2    1   0.2746  0.4031  0.3828  11.00000  0.05    0.65
Q3    1   0.2215  0.2618  0.3787  11.00000  0.05    0.45
Q4    1   0.2276  0.3423  0.4450  11.00000  0.05    0.41
Q5    1   0.3361  0.3549  0.3643  11.00000  0.05    0.40
;
_shelx_res_checksum              25606
_shelx_hkl_file
;
   0   0  -2 20233.4 534.730   2
   0   0  -3 56.4679 78.6039   2
   0   0  -4 8301.10 486.973   2
   0   0  -5 84.5986 111.871   2
   0   0  -6 84875.0 1965.36   2
   0   0   8 72069.6 1965.45   3
   0   0   9 75.1121 98.5119   1
   0   0   9-94.1926 155.282   3
   0   0  10 1104.89 286.693   3
   0   0  10 1314.72 261.363   1
   0   0 -11 82.6460 46.5766   7
   0   0  11-123.558 165.310   3
   0   0 -12 24727.8 725.116   7
   0   0 -13-42.8325 58.7409   7
   0   0 -14 3132.08 283.599   7
   0   0 -15 56.3753 60.0565   7
   0   0 -16 1691.39 204.776   7
   0   0 -17-100.060 61.7737   7
   0   0 -18 5831.51 280.305   7
   0  -2   0 3396.62 169.624   1
   0  -2   1 12962.7 401.818   1
   0  -2  -1 12005.4 278.642   1
   0  -2  -2 27775.4 583.717   2
   0  -2  -3 481385. 2927.56   2
   0   2   3 473812. 2941.53   3
   0  -2  -4 2150.87 245.201   2
   0   2   4 1987.64 240.295   3
   0  -2  -5 133277. 2060.51   2
   0   2   5 133140. 1975.92   3
   0   2   6 567.049 146.409   3
   0  -2  -6 586.967 186.425   2
   0  -2   7 78874.0 1855.57   1
   0   2   7 79377.0 1840.56   3
   0  -2  -7 76907.8 1940.93   2
   0  -2   8 6965.08 589.805   1
   0   2   8 7162.31 611.868   3
   0  -2  -8 6981.38 636.449   2
   0  -2   9 5391.07 540.524   1
   0   2   9 4696.86 542.727   3
   0  -2  10 3606.07 469.246   1
   0   2 -11 27651.1 716.126   7
   0  -2  11 27698.2 1367.12   1
   0  -2 -11 27923.8 764.958   7
   0  -2  11 29605.3 1568.86   3
   0  -2 -12 717.758 147.911   7
   0   2 -12 890.946 147.453   7
   0   2 -13 1183.17 175.097   7
   0  -2 -13 1349.49 188.834   7
   0  -2 -14 757.350 152.891   7
   0   2 -14 796.420 143.556   7
   0  -2 -15 6494.54 403.575   7
   0   2 -15 6879.00 385.937   7
   0  -2 -16 321.646 101.772   7
   0   2 -16 423.067 100.125   7
   0  -2 -17 3580.45 267.549   7
   0   2 -17 3636.95 241.470   7
   0   2 -18 1128.02 115.165   7
   0  -2 -18 1002.38 123.105   7
   0  -2 -19 998.414 99.5202   7
   0  -4   0 365249. 2524.16   1
   0   4   1 23305.4 723.516   4
   0  -4  -1 22099.2 590.046   1
   0  -4   1 23147.8 715.967   1
   0   4   2 11688.1 526.468   4
   0  -4  -2 10794.7 389.990   1
   0  -4   2 11065.6 538.244   1
   0  -4  -2 11636.4 442.623   2
   0  -4   3 25525.8 895.039   1
   0  -4  -3 24952.8 697.253   2
   0  -4   4 62403.0 1509.59   1
   0  -4  -4 62121.9 1231.51   2
   0  -4   5 15540.1 793.978   1
   0  -4  -5 16079.6 719.317   2
   0  -4   6 50833.5 1538.32   1
   0  -4  -6 49868.0 1363.01   2
   0  -4  -7 11536.0 721.364   2
   0  -4   7 12012.4 775.781   1
   0  -4  -8 93184.4 2206.01   2
   0  -4   8 91976.5 2316.87   1
   0  -4   9 2215.35 373.402   1
   0  -4  10 468.941 190.449   1
   0  -4 -10 232.800 90.6453   7
   0  -4 -11 2537.59 238.485   7
   0   4 -11 2319.60 220.547   7
   0  -4  11 2174.92 407.121   1
   0   4 -12 42721.2 893.071   7
   0  -4  12 41091.6 1879.84   1
   0  -4 -12 43898.1 996.842   7
   0   4 -13 474.523 174.089   7
   0  -4 -13 215.892 128.955   7
   0  -4 -14 2007.75 229.933   7
   0   4 -14 1682.57 195.438   7
   0   4 -15 1556.03 182.228   7
   0  -4 -15 1250.88 189.553   7
   0  -4 -16 6651.44 394.681   7
   0   4 -16 7096.42 339.706   7
   0  -4 -17 508.284 101.235   7
   0  -4 -18 5219.97 271.401   7
   0  -4 -19 9.17585 25.7195   7
   0  -6   0 28093.6 890.355   1
   0  -6   1 475.079 125.842   1
   0  -6  -1 537.797 125.529   1
   0  -6  -2 761.930 150.658   1
   0  -6   2 779.061 174.870   1
   0   6   2 838.267 185.010   4
   0  -6  -3 76924.5 1362.24   2
   0   6   3 80505.3 1743.98   4
   0  -6   3 76679.6 1747.95   1
   0  -6   4 7620.76 592.757   1
   0   6   4 7314.39 552.530   4
   0  -6  -4 7257.37 439.765   2
   0  -6   5 242.118 131.711   1
   0   6   5 230.582 97.1642   4
   0  -6  -5 292.163 105.894   2
   0  -6  -6 377.173 126.506   2
   0  -6   6 417.335 169.516   1
   0  -6   7 6862.80 644.212   1
   0  -6   8 5635.29 615.620   1
   0  -6   9 73240.9 2358.03   1
   0  -6  10 135.185 128.559   1
   0  -6 -10 343.762 109.628   7
   0  -6 -11 42496.5 955.191   7
   0  -6  11 36782.2 1858.19   1
   0  -6  12 277.368 203.288   1
   0  -6 -12 247.748 95.2313   7
   0  -6 -13 7289.66 424.468   7
   0  -6 -14 478.646 129.958   7
   0  -6 -15 32814.3 886.557   7
   0  -6 -16 3330.51 271.144   7
   0  -6 -17 1195.27 147.687   7
   0  -6 -18 94.5585 40.7470   7
   0  -8   0 15587.1 798.764   1
   0  -8   1 558.901 185.215   1
   0  -8  -1 348.941 121.267   1
   0  -8  -2 33321.5 1038.47   1
   0  -8   2 32146.3 1231.18   1
   0   8   3 276.737 172.370   4
   0  -8   3 240.059 148.078   1
   0  -8  -3 248.674 104.977   2
   0  -8  -3 260.867 107.357   1
   0  -8  -4 7987.45 502.982   2
   0  -8   4 9602.84 730.070   1
   0   8   4 9034.50 703.415   4
   0   8   5 2885.96 411.554   4
   0  -8   5 3140.55 460.450   1
   0  -8   6 1071.59 315.880   1
   0   8   6 1004.02 249.481   4
   0   8   7 1579.26 330.221   4
   0  -8   7 1573.44 352.726   1
   0   8   8 16408.7 1101.54   4
   0  -8   8 13667.5 1056.78   1
   0  -8   9 94.4595 142.206   1
   0   8  -9 87.7228 47.0935  11
   0  -8  -9 34.2055 56.2437   7
   0  -8 -10 11089.2 480.530   7
   0   8 -10 11211.4 463.232  11
   0  -8  10 11880.0 1079.43   1
   0  -8  11 69.7023 148.261   1
   0  -8 -11 143.595 82.2519   7
   0  -8 -12 10720.5 517.699   7
   0  -8 -13 110.232 99.9979   7
   0  -8 -14 2719.83 264.075   7
   0   8  14 2812.90 201.060   6
   0  -8 -15 635.616 129.609   7
   0  -8 -16 1614.93 173.979   7
   0  -8 -17 307.301 79.4951   7
   0  -8 -18 5356.69 214.304   7
   0 -10   0 10431.0 773.504   1
   0 -10   1 155087. 3011.18   1
   0 -10  -1 140673. 2611.48   1
   0 -10  -2 128.791 111.201   1
   0 -10   2 215.729 165.303   1
   0 -10   3 34092.2 1513.90   1
   0 -10   4 827.084 243.846   1
   0 -10   5 814.458 271.091   1
   0 -10   6 45.2772 111.825   1
   0  10   7 9797.82 882.342   4
   0 -10   7 10439.6 995.198   1
   0  10  -7 9020.36 386.659  11
   0 -10   8 843.650 289.560   1
   0  10  -8 965.469 137.986  11
   0  10  -9 21349.7 629.039  11
   0 -10   9 20737.7 1501.73   1
   0  10 -10 3804.87 268.085  11
   0 -10  10 4233.63 712.772   1
   0 -10 -10 3912.11 280.229   7
   0  10  11 5984.76 319.205   6
   0 -10 -11 5256.33 355.970   7
   0 -10 -12 11219.9 508.570   7
   0  10  12 11703.4 440.126   6
   0  10  13 4072.73 248.397   6
   0 -10 -13 3260.04 288.875   7
   0  10  14 215.500 74.8314   6
   0 -10 -14 258.944 85.8111   7
   0 -10 -15 7113.77 360.097   7
   0  10  15 7761.72 289.032   6
   0 -10 -16-14.9132 42.2751   7
   0 -10 -17 3804.13 180.116   7
   0  10 -17 4612.99 188.765  12
   0 -12   0 96587.2 2552.36   1
   0 -12   1 4324.57 572.740   1
   0 -12  -1 4579.80 546.162   1
   0 -12   2 4745.40 635.767   1
   0 -12   3 2363.70 470.185   1
   0  12   3 1691.15 166.774   6
   0  12   4 2397.40 209.668   6
   0  12  -4 2563.79 208.186  11
   0  12  -5 2251.22 196.869  11
   0  12   5 2189.34 198.215   6
   0  12  -5 2203.08 177.070   6
   0 -12   5 1919.34 447.292   1
   0  12  -6 51137.3 855.587   6
   0  12   6 53384.4 928.880   6
   0 -12   6 54495.6 2394.97   1
   0 -12   7 2386.35 496.484   1
   0  12  -7 1619.78 173.382  11
   0  12   7 2145.33 192.518   6
   0  12  -8 1574.62 176.553  11
   0 -12   8 1162.32 391.189   1
   0  12   8 1626.21 185.378   6
   0  12   9 59.5533 66.8300   6
   0  12  -9 42.8457 87.6393  11
   0  12  10 7956.49 381.728   6
   0  12 -10 7566.13 380.044  11
   0  12  11 339.990 86.0013   6
   0  12  12 4662.75 286.132   6
   0  12  13 2331.15 187.314   6
   0  12  14 4316.15 232.421   6
   0 -12 -14 3814.07 231.994   7
   0  12  15 586.863 83.1065   6
   0  12 -16 650.033 78.2893  12
   0  14   0 861.261 131.905   6
   0  14   1 9941.59 404.141   6
   0 -14   1 10871.2 1003.41   1
   0  14  -1 10120.3 400.729   6
   0  14  -1 9380.15 403.811  11
   0  14  -2 66.2517 49.9740  11
   0 -14   2 77.4838 135.127   1
   0  14  -2 99.2941 59.5067   6
   0  14   2 80.7526 67.3657   6
   0 -14   3 11930.5 1133.12   1
   0  14  -3 12203.2 478.023  11
   0  14   3 11631.4 453.803   6
   0  14  -3 11944.6 429.787   6
   0  14  -4 66.7942 105.211  11
   0 -14   4 1.92360 172.887   1
   0  14   4 12.1193 54.7969   6
   0  14  -4 231.702 221.462   6
   0  14   5 2829.76 239.798   6
   0 -14   5 2564.58 590.556   1
   0  14  -5 2638.13 231.827  11
   0  14  -5 2751.12 207.048   6
   0  14  -6 166.809 81.7665  11
   0  14   6 147.053 73.1284   6
   0  14  -6 197.361 76.1119   6
   0 -14   6 167.582 153.682   1
   0  14   7 2810.57 240.384   6
   0  14  -7 3220.61 252.389  11
   0  14   8 29.4834 53.1224   6
   0  14  -8 92.4944 82.1483  11
   0  14   9 8530.28 405.910   6
   0  14  -9 8374.30 397.686  11
   0  14 -10 4007.06 270.805  11
   0  14  10 3860.12 271.939   6
   0  14  11 11037.0 433.766   6
   0  14  12 17.5652 46.4805   6
   0  14  13 4731.66 244.352   6
   0  14  14-13.2094 32.6105   6
   0  14 -14 19.9501 41.1339  12
   0  14 -15 365.482 58.1777  12
   0  16   0 14163.8 512.424  11
   0  16   0 13520.4 497.595   6
   0  16   1 5158.06 314.366  11
   0  16  -1 5418.72 310.532   6
   0  16  -1 5212.72 312.209  11
   0  16   1 5111.82 315.117   6
   0  16  -2 3897.39 265.557   6
   0  16  -2 4824.83 296.754  11
   0  16   2 4244.79 289.347   6
   0  16  -3 236.162 80.5787   6
   0  16  -3 364.648 101.161  11
   0  16   3 313.247 101.224   6
   0  16  -4 154.299 76.6887  11
   0  16  -4 97.1557 62.8669   6
   0  16   4 104.997 78.8155   6
   0  16   5 569.517 109.476   6
   0  16  -5 603.977 102.287   6
   0  16  -5 738.527 124.971  11
   0  16  -6 15235.0 529.427  11
   0  16   6 14901.6 546.322   6
   0  16  -7 2224.14 205.299  11
   0  16   7 2307.15 215.243   6
   0  16   8 6058.66 343.772   6
   0  16  -8 5967.65 321.428  11
   0  16   9 281.392 77.1704   6
   0  16  -9 252.821 86.1778  11
   0  16 -10 188.873 67.3812  12
   0  16  10 228.359 76.4358   6
   0  16 -11 70.7343 52.5642  12
   0  16  11 22.6591 47.3827   6
   0  16 -12 10387.9 346.594  12
   0  16  12 10164.1 341.543   6
   0  16  13 1027.18 96.7063   6
   0  16 -13 924.966 96.9837  12
   0  16 -14 3154.64 142.734  12
   0  18   0 3537.99 253.796   6
   0  18   0 2850.62 231.716  11
   0  18   1 930.233 134.664   6
   0  18  -1 778.403 127.946  11
   0  18  -1 1149.27 155.723   6
   0  18   1 774.290 131.601  11
   0  18   2 34.3653 52.4774  11
   0  18   2-14.5675 66.8839   6
   0  18  -2 96.5436 76.8439   6
   0  18  -3 3034.63 238.656  11
   0  18  -3 3114.00 228.368   6
   0  18   3 3055.70 248.836   6
   0  18   3 3065.09 233.923  11
   0  18   4 136.927 87.8069   6
   0  18  -4 72.1288 67.7114   6
   0  18  -4 79.2979 56.0013  11
   0  18  -5 47.2295 47.0218  11
   0  18  -5 108.939 69.0763   6
   0  18   5-76.6322 70.7520   6
   0  18  -6 4776.10 274.223  11
   0  18   6 4946.74 308.318   6
   0  18   7 195.359 84.3339   6
   0  18  -7 20.5747 49.8556  11
   0  18  -8 95.3514 53.8792  11
   0  18   8 19.5955 53.6529   6
   0  18   9 13735.3 442.831   6
   0  18  10 714.393 98.4574   6
   0  18  11 1524.66 122.977   6
   0  20   0 2318.09 190.134   6
   0  20   1 303.632 85.8710   6
   0  20  -1 233.652 73.5375   6
   0  20  -2 2725.21 198.344   6
   0  20   2 2970.95 217.832   6
   0  20  -3 48.1983 51.4962  11
   0  20   3 166.690 74.2529   6
   0  20  -3 133.121 50.0226   6
   0  20   4 4261.88 257.407   6
   0  20  -4 4317.46 226.546  11
   0  20  -5 181.485 60.5986  11
   0  20   5 107.444 55.2946   6
   0  20   6 4404.61 247.112   6
   0  20   7 1512.36 137.198   6
   0  20   8 1390.24 125.493   6
   0  20   9 2711.18 190.922   6
   0  22   0 558.453 80.6768   6
   0  22   1 3006.53 175.064   6
   0  22  -1 3109.19 167.293   6
   0  22   2 1438.04 123.779   6
   0  22   3 4903.20 223.145   6
   0  22   4 69.2655 39.4572   6
   0  22   5 400.062 64.5800   6
   0  22   6 517.009 68.3579   6
   1  -1 -19 5938.79 255.643   7
   1   1 -18-4.16427 43.5090   7
   1  -1 -18 23.8799 42.2598   7
   1  -1 -17 5458.00 332.159   7
   1   1 -17 5458.17 324.009   7
   1  -1 -16 1971.89 231.859   7
   1   1 -16 1883.25 207.527   7
   1   1 -15 742.096 132.755   7
   1  -1 -15 697.932 151.072   7
   1  -1 -14 3552.61 310.971   7
   1   1 -14 3664.42 307.801   7
   1   1 -13 6706.55 402.250   7
   1  -1 -13 6827.33 411.184   7
  -1  -1  12 2967.25 521.632   3
   1  -1 -12 2901.54 262.582   7
   1   1 -12 2800.06 249.351   7
  -1   1  12 3073.56 537.678   3
   1   1 -11 2723.09 239.196   7
   1  -1 -11 2816.23 244.670   7
  -1   1  11 2983.50 519.952   3
  -1  -1  11 2804.26 479.489   3
  -1  -1  11 2936.75 190.324   9
  -1  -1  10 1469.72 367.579   3
  -1   1  10 1425.71 347.416   3
  -1  -1  10 1444.33 278.067   1
  -1   1   9 1807.29 331.763   3
  -1   1   9 1910.32 260.453   1
  -1  -1   9 1942.20 291.974   1
  -1   1   8 35989.3 1370.38   3
  -1  -1   8 32879.0 1146.52   1
  -1   1   8 34069.0 1019.23   1
  -1   1   7 12927.2 762.168   3
  -1  -1   7 12532.1 659.457   1
  -1   1   7 12085.7 568.724   1
  -1  -1   6 2094.22 251.445   1
  -1   1   6 2027.17 216.210   1
  -1   1   6 2083.77 299.895   3
  -1  -1   5 16557.7 635.240   1
   1  -1  -5 15248.4 664.485   2
  -1   1   5 15624.0 709.845   3
  -1   1   4 26303.1 807.086   3
  -1  -1   4 26898.1 748.421   1
   1  -1  -4 26716.3 759.994   2
   1  -1  -3 22412.1 567.796   2
  -1  -1   3 22190.6 589.950   1
  -1   1   3 22002.3 643.708   3
  -1   1   3 21397.8 407.200   1
  -1   1   2 72996.1 728.644   2
  -1   1   2 73932.1 977.080   3
  -1  -1   2 71213.9 897.592   1
  -1  -1   1 41.5662 189.273   1
  -1  -1   0 5570.65 221.008   1
  -1   1   0 5276.69 198.756   4
  -1   1  -1 46697.8 837.144   2
  -1  -1  -1 45053.6 781.243   2
   1   1   2 111332. 981.735   3
  -1   1  -2 112927. 1558.57   2
  -1  -1  -2 111409. 1474.34   2
   1   1   3 18846.2 513.352   3
  -1   1  -3 19445.1 744.900   2
  -1  -1  -3 18701.6 690.115   2
  -1   1  -4 61773.7 1497.15   2
   1   1   4 61364.8 1120.89   3
  -1  -1  -4 63958.3 1479.51   2
  -1   1  -5 56936.4 1593.68   2
   1   1   5 56174.8 1220.15   3
  -1  -1  -5 55878.1 1510.89   2
  -1   1  -6 3980.67 468.092   2
   1   1   6 4120.20 372.765   3
  -1  -1  -6 3927.76 438.632   2
   1   1   7 76180.2 1742.21   3
  -1  -1  -7 74528.9 2081.98   2
  -1   1  -7 78679.1 2221.40   2
   1   1   8 18916.1 947.624   3
  -1  -1  -8 19466.1 1142.60   2
   1  -1   9 121.642 124.910   1
   1  -1   9 114.671 117.910   3
   1   1   9 180.240 147.078   3
   1  -1  10 19316.4 1104.45   1
   1  -1  10 19563.5 1151.38   3
  -1  -1 -10 19642.7 592.948   7
  -1  -1 -11 10331.4 475.629   7
  -1   1 -11 10779.3 458.512   7
  -1  -1 -12 1169.45 160.763   7
  -1   1 -12 1291.00 179.330   7
  -1  -1 -13 2538.78 251.272   7
  -1   1 -13 2674.45 256.934   7
  -1   1 -14 576.192 122.905   7
  -1  -1 -14 632.663 141.723   7
  -1  -1 -15 345.980 107.189   7
  -1   1 -15 383.691 91.0894   7
  -1  -1 -16 1592.22 188.946   7
  -1   1 -16 1736.06 190.345   7
  -1   1 -17 1240.35 143.854   7
  -1  -1 -17 1430.89 162.022   7
  -1   1 -18 217.886 53.5395   7
  -1  -1 -18 299.046 63.1975   7
   1  -3 -19 5413.66 250.314   7
   1  -3 -18 12.6202 46.7425   7
   1  -3 -17 8180.35 406.850   7
   1   3 -17 7443.63 343.919   7
   1  -3 -16 9518.03 476.783   7
   1   3 -16 10284.3 451.629   7
   1   3 -15 865.371 143.102   7
   1  -3 -15 781.307 144.867   7
   1  -3 -14 7247.47 425.185   7
   1   3 -14 7247.13 398.004   7
   1   3 -13 6508.68 368.715   7
  -1  -3  13 7031.94 863.556   3
   1  -3 -13 6506.85 409.187   7
   1  -3 -12 2177.34 231.004   7
  -1  -3  12 2127.68 475.201   3
   1   3 -12 2155.47 213.253   7
  -1  -3  11 4867.90 579.203   1
   1   3 -11 5309.73 304.917   7
  -1  -3  11 5165.47 249.124   9
   1  -3 -11 5443.79 344.960   7
  -1  -3  10 15411.0 975.891   1
  -1  -3   9 605.904 180.371   1
  -1  -3   8 14504.5 848.218   1
  -1   3   7 11899.3 739.941   3
  -1  -3   7 11003.1 685.052   1
  -1   3   7 10521.2 411.332   1
  -1  -3   6 9136.53 595.408   1
  -1   3   6 9321.25 612.358   3
   1  -3  -6 9483.75 547.955   2
  -1   3   6 8505.12 336.780   1
   1  -3  -5 8600.56 459.650   2
  -1  -3   5 9045.14 558.267   1
   1  -3  -4 48862.3 889.567   2
  -1  -3   4 49403.9 1189.74   1
  -1  -3   3 71245.2 1304.97   1
   1  -3  -3 70407.8 840.517   2
   1  -3  -2 45595.0 488.304   1
   1  -3  -2 40160.1 462.799   2
  -1   3   1 162228. 1734.94   4
   1  -3  -1 160600. 1236.50   1
  -1   3   0 60800.3 1047.08   4
  -1  -3   0 62156.9 1009.72   1
   1   3   1 52134.0 861.220   4
  -1  -3  -1 51071.8 900.819   1
  -1   3  -2 16769.6 676.938   2
   1   3   2 16425.4 503.541   4
  -1  -3  -2 17223.7 610.005   2
  -1   3  -3 2859.66 338.003   2
  -1  -3  -3 2582.09 282.713   2
  -1  -3  -4 14626.9 694.366   2
  -1   3  -4 14806.3 795.290   2
  -1  -3  -5 66073.4 1653.99   2
  -1  -3  -6 18805.3 945.068   2
  -1  -3  -7 104067. 2395.46   2
   1  -3   8 88.3288 136.208   1
  -1  -3  -8 198.410 142.223   2
   1  -3   9 4340.26 527.760   1
  -1  -3  -9 4865.99 599.656   2
   1  -3  10 28400.5 1430.33   1
  -1  -3 -10 28657.8 734.249   7
  -1  -3 -11 18368.6 617.623   7
  -1   3 -11 17981.2 576.021   7
   1  -3  11 17812.5 1187.02   1
  -1  -3 -12 2666.90 251.747   7
  -1   3 -12 2860.28 240.753   7
  -1  -3 -13 594.070 140.835   7
  -1   3 -13 608.985 132.094   7
  -1   3 -14 787.268 139.590   7
  -1  -3 -14 586.175 140.268   7
  -1  -3 -15 234.554 91.7558   7
  -1   3 -15 133.779 69.7981   7
  -1   3 -16 11870.1 441.362   7
  -1  -3 -16 11750.9 491.939   7
  -1  -3 -17 28.9685 55.2323   7
  -1  -3 -18 105.437 59.2054   7
   1  -5 -19 1053.17 108.187   7
   1  -5 -18 32.4905 52.6441   7
   1  -5 -17 1110.89 155.307   7
   1  -5 -16 3200.32 283.149   7
   1  -5 -15 102.332 78.4654   7
   1  -5 -14 14336.7 596.009   7
   1  -5 -13 10379.5 513.776   7
  -1  -5  13 11330.6 1172.40   3
  -1  -5  12 11176.8 1008.79   1
   1  -5 -12 13349.6 559.174   7
   1  -5 -11 12298.5 527.433   7
  -1  -5  11 11406.7 969.591   1
   1  -5 -10 5679.15 353.411   7
  -1  -5  10 4927.90 604.173   1
  -1  -5   9 6801.21 674.406   1
  -1  -5   8 340.135 157.810   1
  -1  -5   7 13037.5 831.430   1
   1  -5  -7 13693.0 674.380   2
   1  -5  -6 3406.52 298.963   2
  -1  -5   6 3427.60 410.633   1
  -1  -5   5 39044.1 1300.38   1
   1  -5  -5 38813.7 861.148   2
   1  -5  -4 218476. 1796.18   2
  -1  -5   4 222407. 2903.69   1
  -1   5   3 13139.1 664.335   4
  -1  -5   3 12653.2 655.392   1
   1  -5  -3 10921.2 356.770   1
   1  -5  -3 11901.6 376.161   2
  -1  -5   2 1779.93 255.576   1
   1  -5  -2 1707.98 169.408   1
  -1   5   2 1844.10 250.017   4
  -1   5   1 1551.57 230.875   4
  -1  -5   1 1800.08 235.131   1
   1  -5  -1 1469.51 166.433   1
   1  -5   0 114.429 99.0294   1
  -1  -5   0 142.811 105.627   1
  -1  -5  -1 19130.7 688.480   1
   1  -5   1 21525.0 771.073   1
   1  -5   2 17253.3 761.544   1
  -1  -5  -2 17015.4 636.467   1
   1   5   2 16581.6 676.253   4
  -1  -5  -2 17147.5 702.972   2
   1   5   3 45084.6 1157.86   4
  -1  -5  -3 46100.4 1197.97   2
  -1  -5  -4 27833.9 983.308   2
   1   5   4 26680.8 926.202   4
   1  -5   5 135.427 130.542   1
  -1  -5  -5 175.001 106.745   2
  -1  -5  -6 7639.44 622.254   2
   1  -5   6 6868.60 620.441   1
  -1  -5  -7 23649.9 1128.11   2
   1  -5   7 25171.0 1244.26   1
  -1  -5  -8 17630.1 1024.76   2
   1  -5   8 17385.4 1081.53   1
   1  -5   9 3934.25 532.574   1
  -1  -5 -10 34529.8 844.763   7
   1  -5  10 31614.5 1636.07   1
   1  -5  11 5945.84 709.720   1
  -1  -5 -11 6049.72 375.467   7
  -1  -5 -12 4475.06 324.025   7
   1  -5  12 3971.24 604.534   1
  -1  -5 -13 9613.61 491.862   7
  -1  -5 -14 21289.8 728.198   7
  -1  -5 -15 513.918 114.784   7
  -1  -5 -16 311.863 88.4554   7
  -1  -5 -17 3502.89 241.080   7
  -1  -5 -18 161.975 49.7702   7
   1  -7 -18 131.516 56.4763   7
   1  -7 -17 8767.96 385.748   7
  -1   7  16 3483.78 199.233   6
   1  -7 -16 3361.83 275.141   7
   1  -7 -15 2624.60 255.432   7
   1  -7 -14 6727.15 412.913   7
   1  -7 -13 3529.49 304.232   7
   1  -7 -12 8631.10 465.003   7
  -1  -7  12 8177.03 924.510   1
   1  -7 -11 8012.95 436.235   7
  -1  -7  11 7765.71 873.931   1
  -1  -7  10 35917.7 1792.20   1
   1   7 -10 33009.7 758.726  11
   1  -7 -10 36492.1 886.418   7
  -1   7  10 35847.1 1713.71   4
  -1   7   9 3118.16 485.593   4
   1   7  -9 3157.65 225.321  11
  -1  -7   9 2831.85 457.898   1
  -1   7   8 41565.6 1693.02   4
  -1  -7   8 42644.7 1763.83   1
  -1  -7   7 39316.8 1612.15   1
  -1   7   7 40117.2 1579.85   4
  -1  -7   6 4248.37 510.547   1
  -1   7   6 3921.53 483.292   4
  -1   7   5 30760.3 1264.90   4
  -1  -7   5 29731.6 1278.89   1
  -1   7   4 47182.5 1544.57   4
  -1  -7   4 47925.6 1534.20   1
  -1   7   3 24507.3 1060.72   4
  -1  -7   3 22648.1 1021.56   1
   1  -7  -3 22881.1 677.588   1
   1  -7  -3 21873.6 631.897   2
  -1  -7   2 6386.66 521.195   1
  -1   7   2 6010.88 515.799   4
   1  -7  -2 5909.88 382.314   1
  -1  -7   1 16802.8 835.618   1
   1  -7  -1 17758.7 716.880   1
  -1  -7   0 137.776 124.299   1
   1  -7   0 191.419 116.747   1
   1  -7   1 35641.1 1144.95   1
  -1  -7  -1 35235.4 1089.49   1
   1  -7   2 25628.7 1062.34   1
  -1  -7  -2 26123.8 922.100   1
  -1  -7  -3 4353.37 408.343   2
   1  -7   3 4148.69 455.416   1
   1   7   3 4509.83 433.473   4
  -1  -7  -4 2027.95 284.591   2
   1   7   4 1981.35 307.299   4
   1  -7   4 2089.65 346.785   1
  -1  -7  -5 1396.86 258.856   2
   1   7   5 1517.00 296.634   4
   1  -7   5 1552.64 311.803   1
   1  -7   6 12792.2 915.542   1
  -1  -7  -6 13254.9 817.249   2
   1   7   6 13739.8 854.664   4
   1  -7   7 33166.8 1558.04   1
   1   7   7 34502.9 1400.24   4
   1  -7   8 20435.4 1276.52   1
  -1  -7  -9 1872.85 199.347   7
   1  -7   9 1587.25 378.471   1
   1  -7  10 28467.5 1648.81   1
  -1  -7 -10 32102.0 813.821   7
   1  -7  11 7434.33 872.258   1
  -1  -7 -11 8462.86 448.642   7
  -1  -7 -12 6041.66 394.365   7
  -1  -7 -13 240.744 99.6821   7
  -1  -7 -14 8291.32 453.573   7
  -1  -7 -15 870.073 140.415   7
  -1  -7 -16 2469.71 210.979   7
  -1  -7 -17 3064.33 206.336   7
  -1   7 -17 2939.13 156.401  12
  -1  -7 -18 1161.47 102.857   7
   1  -9 -17 1095.94 127.956   7
   1  -9 -16 2719.47 222.785   7
  -1   9  16 2986.28 177.563   6
  -1   9  15 260.743 68.4912   6
   1  -9 -15 271.809 92.9804   7
   1  -9 -14 1486.02 206.989   7
   1  -9 -13 61.7084 60.3533   7
   1  -9 -12 6720.78 385.009   7
  -1  -9  11 17703.2 1420.74   1
   1   9 -11 19783.3 626.863  11
   1  -9 -11 18294.8 622.378   7
   1   9 -10 24916.7 689.230  11
   1  -9 -10 25805.7 708.482   7
   1   9  -9-31.1678 64.3006  11
   1  -9  -9 38.2253 65.2126   7
  -1  -9   9 12.1392 141.276   1
  -1   9   9-42.0554 173.857   4
  -1  -9   8 4121.00 619.835   1
   1   9  -8 4710.93 281.256  11
  -1   9   8 4242.69 599.319   4
  -1   9   7 2541.30 466.713   4
  -1  -9   7 2493.49 456.322   1
  -1   9   6 7484.13 739.346   4
  -1  -9   6 8306.82 806.017   1
  -1   9   5 487.371 221.423   4
  -1  -9   5 570.812 210.254   1
  -1   9   4 25530.0 1283.16   4
  -1  -9   4 27484.8 1351.61   1
  -1  -9   3 25291.7 1235.01   1
   1  -9  -3 20882.6 806.322   1
  -1  -9   2 82877.1 2169.91   1
   1  -9  -2 73786.3 1617.20   1
   1  -9  -1 17854.5 867.813   1
  -1  -9   1 17603.2 971.503   1
  -1  -9   0 9192.48 667.815   1
   1  -9   0 9997.88 686.372   1
  -1  -9  -1 51012.3 1522.88   1
   1  -9   1 51648.1 1585.97   1
  -1  -9  -2 26708.4 1073.71   1
   1  -9   2 27475.0 1206.75   1
  -1  -9  -3 687.495 202.389   2
   1  -9   3 563.267 201.497   1
   1  -9   4 8134.52 720.884   1
   1  -9   5 15671.5 1072.49   1
   1  -9   6 907.899 277.303   1
   1  -9   7 28951.4 1582.48   1
   1  -9   8 697.382 284.459   1
  -1   9  -8 768.294 123.062  11
  -1  -9  -8 657.298 109.634   7
  -1  -9  -9 28.5157 80.0528   7
   1  -9   9-138.524 215.168   1
  -1   9  -9 64.8240 61.6394  11
  -1  -9 -10 20929.7 656.983   7
   1  -9  10 17954.9 1396.24   1
   1   9  11 658.663 111.002   6
  -1  -9 -11 524.726 129.867   7
   1   9  12 1550.64 161.293   6
  -1  -9 -12 1426.46 195.049   7
   1   9  13 5931.85 293.528   6
  -1  -9 -13 5665.30 367.822   7
  -1  -9 -14 991.943 153.733   7
  -1  -9 -15-76.4295 58.7759   7
  -1  -9 -16 2642.50 196.337   7
  -1   9 -16 2748.28 183.089  12
  -1  -9 -17 442.512 70.5194   7
  -1   9 -17 420.159 56.6911  12
   1  11 -17 623.913 77.7720  12
  -1  11  16 5734.54 220.022   6
   1 -11 -16 5362.65 250.534   7
   1 -11 -15 1227.96 147.335   7
  -1  11  15 1495.48 135.527   6
   1 -11 -14 3700.22 263.432   7
  -1  11  14 4604.10 257.057   6
   1 -11 -13 3439.94 267.683   7
  -1  11  13 4284.90 266.560   6
   1 -11 -12 5506.69 335.835   7
  -1  11  12 6186.09 328.578   6
  -1  11  11 2378.23 204.006   6
   1 -11 -11 1881.39 210.332   7
   1  11 -11 2145.62 203.201  11
   1  11 -10 3226.00 278.758  11
   1  11  -9 7468.70 386.550  11
  -1 -11   9 6202.17 868.938   1
   1  11  -8 29922.0 754.300  11
  -1 -11   8 31504.1 1882.07   1
   1  11  -7 16673.6 548.969  11
  -1 -11   7 16172.5 1315.66   1
   1  11  -7 16092.7 477.710   6
  -1  11   7 16742.2 507.149   6
   1  11  -6 677.734 123.675  11
  -1 -11   6 821.679 323.953   1
  -1  11   6 593.919 104.312   6
  -1 -11   5 9212.03 926.921   1
  -1 -11   4 7767.07 814.220   1
  -1 -11   3 4687.52 610.102   1
  -1 -11   2 58689.4 2077.57   1
   1 -11  -1 62137.1 1836.29   1
  -1 -11   1 64144.6 2084.56   1
   1 -11   0 247.477 144.417   1
  -1 -11   0 176.318 150.485   1
  -1 -11  -1 2580.21 401.565   1
   1 -11   1 2505.32 418.049   1
   1 -11   2 26671.6 1383.06   1
  -1 -11  -2 25094.7 1201.53   1
   1 -11   3 413.612 156.752   1
   1 -11   4 4498.49 605.348   1
   1  11   5 16053.8 487.915   6
   1 -11   5 17086.8 1244.43   1
   1  11   6 1222.92 138.419   6
  -1  11  -6 1268.41 154.255  11
   1 -11   6 1651.39 404.556   1
  -1  11  -7 12422.5 476.500  11
   1 -11   7 12327.1 1126.85   1
   1  11   7 13003.0 452.557   6
   1 -11   8 43405.5 2203.97   1
   1  11   8 42451.8 835.308   6
   1  11   9 4058.29 265.028   6
  -1  11  -9 3338.31 251.772  11
   1 -11   9 2993.44 587.253   1
   1  11  10 5274.20 307.904   6
  -1 -11 -11 3794.41 285.755   7
   1  11  11 4129.37 268.018   6
  -1 -11 -12 491.152 116.761   7
   1  11  12 383.985 93.4272   6
   1  11  13 1666.42 153.568   6
  -1 -11 -13 1485.56 175.145   7
  -1 -11 -14 2560.81 208.455   7
  -1  11 -15 204.324 68.9758  12
  -1 -11 -15 260.424 69.7352   7
  -1  11 -16 7304.22 251.011  12
   1  13 -16 837.661 90.6745  12
  -1  13  15 295.155 57.7460   6
  -1  13  14 10261.0 357.024   6
  -1  13  13 1942.00 174.886   6
  -1  13  12-40.6151 75.4050   6
   1  13 -11 4967.14 303.403  11
  -1  13  11 4854.33 306.291   6
  -1  13  10 546.968 120.673   6
   1  13 -10 770.875 131.280  11
   1  13  -9 408.075 106.290  11
  -1  13   9 409.800 110.508   6
  -1 -13   8 2072.57 544.133   1
  -1  13   8 2308.40 215.326   6
   1  13  -8 2633.91 235.240  11
   1  13  -7 69.0027 67.5485  11
  -1 -13   7 20.1663 154.370   1
  -1  13   7 47.7378 69.8659   6
  -1  13   6 143.928 75.7594   6
   1  13  -6 300.371 95.4504  11
  -1 -13   6 163.294 200.985   1
   1  13  -6 262.677 81.3669   6
   1  13  -5 6908.31 359.685  11
   1  13  -5 7615.25 337.420   6
  -1  13   5 7507.39 354.860   6
  -1  13   4 4220.50 268.370   6
   1  13  -4 4239.82 258.876   6
  -1 -13   4 4394.43 678.204   1
   1  13  -4 4702.91 300.220  11
  -1  13   3 1140.13 141.865   6
   1  13  -3 1265.43 141.931   6
  -1 -13   3 1504.86 397.687   1
   1  13  -3 1181.00 154.034  11
  -1 -13   2 26084.3 1518.27   1
  -1  13   2 23120.0 595.223   6
   1  13  -2 24967.5 639.737  11
   1  13  -2 24067.2 596.479   6
   1  13  -1 20624.5 553.651   6
  -1  13   1 20506.9 554.724   6
   1  13   0 3128.27 222.328   6
  -1 -13   0 3168.80 517.125   1
  -1  13   0 3399.46 225.520   6
   1 -13   0 3825.78 537.421   1
   1  13   1 13899.6 472.038   6
  -1  13  -1 14276.3 450.213   6
   1  13   2 7463.18 351.647   6
  -1  13  -2 8157.61 358.431  11
  -1  13  -2 7960.74 332.323   6
   1 -13   2 8851.51 897.834   1
   1 -13   3 302.293 226.355   1
  -1  13  -3 262.761 77.9583   6
   1  13   3 269.618 86.5340   6
  -1  13  -3 157.874 72.9378  11
   1 -13   4 15075.0 1252.43   1
   1  13   4 15289.7 511.294   6
  -1  13  -4 14128.5 451.584   6
  -1  13  -4 14588.9 508.505  11
   1  13   5 27478.7 686.982   6
   1 -13   5 28679.2 1767.23   1
  -1  13  -6 533.946 118.139  11
   1 -13   6 328.654 224.552   1
   1  13   6 423.621 101.502   6
   1  13   7 952.639 143.405   6
  -1  13  -7 854.500 134.002  11
   1 -13   7 752.009 297.403   1
  -1  13  -8 2300.88 207.348  11
   1  13   8 2136.17 210.389   6
  -1  13  -9 2543.05 216.521  11
   1  13   9 2822.97 238.677   6
   1  13  10 12929.1 483.144   6
   1  13  11 3801.46 253.531   6
   1  13  12 526.477 97.5169   6
   1  13  13 9280.43 332.360   6
  -1  13 -14 292.337 71.1886  12
  -1  13 -15 282.426 63.3728  12
   1  15 -15 232.682 48.6503  12
   1  15 -14 2173.25 153.873  12
  -1  15  14 2057.24 136.304   6
  -1  15  13 3657.88 210.683   6
  -1  15  12-26.9472 52.9971   6
  -1  15  11 127.427 59.7535   6
   1  15 -10 9827.81 416.997  11
  -1  15  10 10622.1 440.622   6
  -1  15   9 1641.97 188.899   6
   1  15  -9 1409.23 173.270  11
   1  15  -8 14791.2 541.824  11
  -1  15   8 16574.1 568.662   6
  -1  15   7 2298.94 227.033   6
   1  15  -7 2328.59 216.133  11
   1  15  -6 1091.30 155.000  11
   1  15  -6 1122.10 143.796   6
  -1  15   6 1023.30 147.766   6
  -1 -15   5 2881.42 655.067   1
  -1  15   5 3077.74 259.247   6
   1  15  -5 3579.09 251.180   6
   1  15  -5 4053.04 286.972  11
  -1 -15   4 4052.68 679.465   1
  -1  15   4 3961.69 279.764   6
   1  15  -4 4053.02 267.569   6
   1  15  -4 3661.49 272.450  11
   1  15  -3 2017.29 194.524   6
   1  15  -3 1996.90 202.201  11
  -1  15   3 2229.01 218.411   6
  -1 -15   3 1589.06 465.225   1
   1  15  -2 258.439 130.103   6
   1  15  -2 145.555 75.3234  11
  -1  15   2 192.382 74.8237   6
  -1  15   1 11477.5 451.543   6
  -1  15   1 12852.2 455.627  11
   1  15  -1 11471.4 475.199  11
   1  15  -1 11353.1 443.999   6
   1  15   0 6752.46 351.940   6
  -1  15   0 6469.81 337.118   6
  -1  15   0 7200.80 350.967  11
   1  15   1 10.3023 63.0771   6
  -1  15  -1 144.339 52.8186  11
  -1  15  -1 116.447 56.5291   6
  -1  15  -2 82.6355 73.6934   6
   1  15   2 46.7599 52.5152   6
  -1  15  -2 63.1997 60.9983  11
   1  15   3 5159.05 314.242   6
   1 -15   3 4817.17 741.683   1
  -1  15  -3 5123.64 285.139   6
  -1  15  -3 4876.30 304.238  11
  -1  15  -4 8430.49 393.636  11
   1  15   4 8900.20 419.809   6
  -1  15  -4 8511.41 365.420   6
   1 -15   4 9039.21 1029.91   1
   1  15   5 9210.81 427.093   6
  -1  15  -5 9374.80 378.516   6
  -1  15  -5 10116.6 427.409  11
   1  15   6 716.377 133.530   6
  -1  15  -6 844.305 130.217  11
  -1  15  -7 7815.99 374.751  11
   1  15   7 7391.44 383.494   6
  -1  15  -8 1788.47 183.109  11
   1  15   8 1726.60 195.087   6
   1  15   9 1394.31 162.042   6
   1  15  10 7492.89 357.639   6
   1  15  11 3882.25 238.408   6
  -1  15 -11 4705.89 276.293  12
   1  15  12 91.9365 50.2850   6
  -1  15 -12 191.695 61.7365  12
  -1  15 -13 9380.71 316.638  12
   1  15  13 8234.99 264.901   6
  -1  15 -14 172.231 43.7990  12
  -1  17  13 4535.42 189.705   6
   1  17 -13 4337.13 173.964  12
   1  17 -12 65.3758 33.6357  12
  -1  17  12 80.8513 49.6199   6
  -1  17  11 8282.95 329.282   6
   1  17 -11 7298.14 281.052  12
   1  17 -10 2697.40 183.811  12
  -1  17  10 2463.51 202.630   6
   1  17  -9 3005.51 217.905  11
  -1  17   9 3341.85 243.697   6
   1  17  -9 2862.31 197.776  12
   1  17  -8 5140.45 294.413  11
  -1  17   8 4099.65 282.851   6
   1  17  -7 12889.3 483.034  11
  -1  17   7 12998.2 492.381   6
  -1  17   6 623.737 119.715   6
   1  17  -6 625.298 106.157  11
   1  17  -5 3768.35 269.630  11
  -1  17   5 4032.07 283.072   6
   1  17  -5 4162.24 263.891   6
  -1  17   4 1281.57 166.914   6
   1  17  -4 1207.99 153.684   6
   1  17  -4 1428.60 175.253  11
   1  17  -3 2.84460 58.7742  11
  -1  17   3 0.35612 58.0685   6
  -1  17   2 4943.38 309.616   6
   1  17  -2 5101.43 313.476  11
   1  17  -2 5232.64 308.428   6
  -1  17   1 15323.4 521.805   6
   1  17  -1 14940.9 523.461   6
   1  17  -1 14522.8 527.466  11
   1  17   0 735.710 129.599   6
  -1  17   0 930.443 136.459   6
   1  17   0 528.595 105.275  11
  -1  17  -1 3290.46 244.112   6
   1  17   1 3167.65 256.920   6
  -1  17  -1 3197.04 245.113  11
   1  17   1 3368.70 254.793  11
  -1  17  -2 7132.64 346.040   6
  -1  17  -2 7776.77 368.087  11
   1  17   2 6971.92 376.003   6
  -1  17  -3 215.388 71.9070  11
   1  17   3 201.521 76.2679   6
  -1  17  -3 364.100 98.4674   6
  -1  17  -4 195.842 76.7429  11
  -1  17  -4 203.989 76.2123   6
   1  17   4 281.073 95.3504   6
   1  17   5 1503.46 189.934   6
  -1  17  -5 1254.79 161.590  11
  -1  17  -6 9623.01 395.491  11
   1  17   6 10835.7 455.988   6
   1  17   7 10534.5 438.262   6
  -1  17  -7 9815.79 369.401  12
  -1  17  -7 9206.58 371.829  11
   1  17   8 5843.56 313.700   6
  -1  17  -8 5905.35 290.608  12
  -1  17  -8 6345.26 297.987  11
  -1  17  -9 720.559 100.551  12
   1  17   9 794.813 115.788   6
   1  17  10 8104.59 326.495   6
  -1  17 -10 8242.97 307.061  12
  -1  17 -11 6311.03 248.911  12
   1  17  11 6166.92 254.437   6
   1  17  12 19.3299 29.1120   6
  -1  17 -12 24.7716 28.0230  12
  -1  19  11 3711.68 172.857   6
  -1  19  10 6754.15 262.401   6
  -1  19   9 691.120 101.836   6
   1  19  -8 7134.15 289.190  11
  -1  19   8 8095.30 343.003   6
   1  19  -7 233.079 70.8503  11
  -1  19   7 176.650 68.3328   6
  -1  19   6 68.0744 50.4588   6
   1  19  -6 87.5996 59.6602  11
  -1  19   5 11699.9 446.560   6
   1  19  -5 12929.7 445.693  11
   1  19  -4 6917.57 320.463   6
   1  19  -4 6543.17 325.781  11
  -1  19   4 7352.84 356.545   6
   1  19  -3 205.287 65.2814   6
   1  19  -3 96.8381 62.3111  11
  -1  19   3 71.9463 49.4442   6
   1  19  -2 1119.26 146.142   6
  -1  19   2 890.901 134.833   6
   1  19  -2 817.056 131.363  11
   1  19  -1 331.666 88.6898   6
  -1  19   1 314.799 91.0257   6
   1  19  -1 373.053 101.600  11
   1  19   0 5841.67 326.542   6
   1  19   0 5188.53 301.647  11
  -1  19   0 5434.75 304.474   6
  -1  19  -1 1211.05 146.413   6
   1  19   1 1524.16 168.997  11
   1  19   1 1391.23 164.961   6
  -1  19  -2 507.154 97.8340   6
   1  19   2 384.430 85.5464  11
   1  19   2 491.961 106.058   6
   1  19   3 348.593 84.3254  11
  -1  19  -3 278.382 76.7496   6
   1  19   3 308.605 78.9305   6
   1  19   4 2230.56 180.553  11
  -1  19  -4 2283.85 172.642   6
   1  19   4 2285.96 206.727   6
   1  19   5 997.936 119.470  11
   1  19   5 841.420 125.819   6
   1  19   6 61.8290 55.8606   6
   1  19   7 1181.77 131.036   6
   1  19   8 2062.76 163.962   6
   1  19   9 752.027 90.2175   6
   1  19  10 1161.82 103.307   6
  -1  21   8 2380.19 143.251   6
  -1  21   7 5084.46 225.727   6
  -1  21   6 145.461 54.3816   6
  -1  21   5 1359.30 127.950   6
  -1  21   4 2728.32 186.401   6
   1  21  -3-16.2227 36.6412   6
  -1  21   3 36.2408 40.1004   6
   1  21  -2 4665.06 237.258   6
  -1  21   2 4734.57 245.377   6
   1  21  -1 6393.47 287.337   6
  -1  21   1 6659.34 286.028   6
   1  21   0-8.39956 49.5744   6
  -1  21   0 35.0197 42.2225   6
  -1  21  -1 6840.96 277.339   6
   1  21   1 7572.33 319.527   6
   1  21   2 940.741 117.894   6
  -1  21  -2 912.487 100.958   6
   1  21   3 61.2948 43.5134   6
   1  21   4 1167.21 126.764   6
   1  21   5 3639.37 205.780   6
   1  21   6 280.912 66.9998   6
   1  21   7 4040.89 187.528   6
   1  21   8 222.954 47.4390   6
   1  23   0 62.0188 29.2139   6
   1  23   1 646.289 71.1178   6
   1  23   2 5253.74 190.561   6
   1  23   3 165.090 36.7678   6
   2   0 -19 1.27381 38.1481   7
   2   0 -18 20996.2 584.067   7
   2   0 -17-41.7992 57.4243   7
   2   0 -16 67.2801 60.5877   7
   2   0 -15 78.4512 78.0956   7
   2   0 -14 9738.43 502.306   7
  -2   0  13 30.2787 129.341   3
   2   0 -13 84.9908 89.2315   7
  -2   0  12 463.776 108.756   9
  -2   0  12 393.498 178.578   3
  -2   0  11-87.2029 202.770   3
  -2   0  10 15514.4 1060.40   3
  -2   0   9-55.2099 112.208   3
  -2   0   9 43.9614 52.4770   1
  -2   0   8 9186.54 734.949   3
  -2   0   8 7511.32 484.282   1
  -2   0   7-95.7623 71.3632   1
  -2   0   6 5508.98 347.112   1
  -2   0   5 42.0276 56.4250   1
  -2   0   4 3527.89 238.396   1
  -2   0   3 3.30318 54.4855   1
  -2   0   2 59348.3 802.504   1
  -2   0   1 6.98762 35.8613   3
  -2   0   0 235707. 1894.85   2
  -2   0  -1 82.4896 75.3214   2
  -2   0  -2 101173. 1659.70   2
  -2   0  -3 87.0986 92.6866   2
  -2   0  -4 96149.7 2039.57   2
  -2   0  -5 94.1613 124.312   2
  -2   0  -6 256811. 3892.08   2
  -2   0  -7 192.182 164.077   2
   2   0   7-57.9477 76.4867   3
  -2   0  -8 7065.72 733.828   2
   2   0   8 6609.90 561.125   3
  -2   0  -9 112.503 137.814   2
  -2   0 -10 34188.6 797.483   7
  -2   0 -11 39.8684 84.6427   7
  -2   0 -12 13596.6 561.983   7
  -2   0 -13-21.1183 61.2990   7
  -2   0 -14 1531.31 193.223   7
  -2   0 -15 49.5943 58.0453   7
  -2   0 -16 853.378 136.557   7
  -2   0 -17 55.9404 40.5213   7
  -2   0 -18 1704.96 124.956   7
   2  -2 -19 747.116 106.775   7
   2  -2 -18 1.14607 58.0929   7
   2   2 -18 96.0015 51.0396   7
   2  -2 -17 8488.65 431.428   7
   2   2 -17 8778.52 397.910   7
   2  -2 -16 3593.30 297.026   7
   2   2 -16 3498.89 281.828   7
   2  -2 -15 12583.2 550.986   7
   2   2 -15 12415.7 532.072   7
  -2  -2  14 470.711 248.556   3
   2  -2 -14 767.021 160.572   7
   2   2 -14 579.631 131.907   7
  -2  -2  13 446.169 89.2743   9
   2   2 -13 452.367 120.343   7
  -2  -2  13 639.393 263.156   3
   2  -2 -13 337.297 114.391   7
  -2  -2  12 41.9280 110.556   3
   2   2 -12 193.497 90.4599   7
  -2  -2  12 38.5486 48.3202   9
  -2   2  11 7670.30 788.053   3
  -2   2  11 7844.12 318.697   9
  -2  -2  11 6723.94 644.531   1
  -2  -2  11 7834.55 823.309   3
  -2   2  10 696.944 266.406   3
  -2  -2  10 682.178 189.978   1
  -2   2   9 13653.6 934.263   3
  -2  -2   9 13418.5 795.842   1
  -2  -2   8 3767.90 400.969   1
  -2   2   8 3910.69 477.953   3
  -2   2   8 3790.34 276.498   1
  -2  -2   7 30024.9 1062.58   1
  -2   2   7 31505.9 707.185   1
  -2   2   6 1696.93 142.803   1
  -2   2   6 1748.07 275.028   3
  -2  -2   6 1608.43 243.292   1
  -2  -2   5 2922.81 290.315   1
  -2   2   5 3156.76 337.037   3
  -2   2   5 3084.13 157.556   1
  -2   2   4 17099.6 699.875   3
  -2  -2   4 15963.9 627.054   1
  -2  -2   3 108758. 1527.17   1
  -2   2   3 109613. 1571.23   3
  -2  -2   2 27138.0 753.197   1
  -2  -2   1 6290.64 346.191   1
  -2   2   1 5723.61 234.788   2
  -2   2   0 8957.13 388.630   2
  -2   2   0 7881.31 339.530   4
  -2  -2   0 8000.47 385.943   1
  -2  -2  -1 3834.20 298.109   2
  -2   2  -1 3988.81 312.592   2
  -2  -2  -2 29654.8 907.642   2
  -2   2  -2 30453.3 945.375   2
  -2  -2  -3 48392.3 1274.84   2
  -2   2  -3 48849.6 1331.48   2
  -2  -2  -4 263.061 125.883   2
  -2   2  -4 276.696 160.602   2
  -2  -2  -5 35186.4 1335.69   2
   2   2   5 31557.1 862.576   3
  -2   2  -5 32646.8 1326.12   2
   2   2   6 336.824 136.280   3
  -2  -2  -6 255.289 122.080   2
  -2   2  -6 248.412 173.928   2
  -2  -2  -7 34368.3 1497.12   2
  -2   2  -7 34450.3 1588.69   2
  -2  -2  -8 3049.72 476.721   2
  -2  -2  -9 59450.3 2259.49   2
  -2   2 -10 4227.51 277.003   7
   2  -2  10 4132.33 554.048   1
  -2  -2 -10 4108.21 288.576   7
   2  -2  11 1805.85 382.121   1
  -2  -2 -11 2001.73 211.694   7
  -2   2 -11 1980.86 201.001   7
  -2  -2 -12 19.2489 59.0901   7
  -2   2 -12 102.629 87.0798   7
  -2  -2 -13 86.3227 66.3724   7
  -2   2 -13 33.9670 69.6578   7
  -2  -2 -14 229.214 93.8242   7
  -2   2 -14 180.170 74.5383   7
  -2  -2 -15 9001.95 449.930   7
  -2   2 -15 9697.16 435.334   7
  -2  -2 -16 990.626 145.921   7
  -2   2 -16 892.317 126.313   7
  -2   2 -17 7281.10 288.407   7
  -2  -2 -17 7548.98 331.962   7
  -2  -2 -18 95.6056 44.0068   7
   2  -4 -19 935.963 115.292   7
   2  -4 -18 6103.02 332.032   7
   2  -4 -17 770.320 141.952   7
   2  -4 -16 2310.67 243.441   7
   2   4 -16 2487.03 226.057   7
   2   4 -15 902.920 143.185   7
   2  -4 -15 938.892 173.369   7
  -2  -4  14 3215.49 615.547   3
   2   4 -14 3736.48 280.779   7
   2  -4 -14 4133.02 330.938   7
   2   4 -13 62.1956 64.7243   7
   2  -4 -13-28.0902 69.9201   7
  -2  -4  13 79.4125 176.398   3
  -2  -4  13 102.006 65.3998   9
  -2  -4  12 31834.6 652.873   9
   2   4 -12 32086.7 769.933   7
  -2  -4  12 30974.8 1622.97   1
   2  -4 -12 33139.9 900.371   7
  -2  -4  11 12338.6 971.277   1
  -2  -4  10 1955.69 346.257   1
  -2  -4   9 10.3209 85.1836   1
  -2  -4   8 11796.5 793.449   1
  -2  -4   7 3089.02 370.691   1
  -2  -4   6 33891.6 1185.81   1
  -2  -4   5 7759.25 546.698   1
  -2  -4   4 35908.2 1148.59   1
  -2  -4   3 20925.1 813.313   1
  -2  -4   2 258839. 2767.87   1
   2  -4  -2 261646. 1733.70   1
  -2  -4   1 62598.6 1304.11   1
  -2   4   1 64114.6 1322.10   4
  -2  -4   0 25900.1 825.879   1
  -2   4  -1 685.623 144.558   2
  -2  -4  -1 643.607 158.117   1
  -2  -4  -2 104717. 1833.06   2
   2   4   2 103351. 1368.20   4
  -2   4  -2 102846. 1904.27   2
   2   4   3 13385.2 521.885   4
  -2  -4  -3 13095.3 708.525   2
  -2   4  -3 13860.5 775.139   2
   2   4   4 64909.5 1219.87   4
  -2  -4  -4 69390.8 1709.35   2
  -2   4  -4 67265.0 1870.54   2
  -2  -4  -5 740.232 225.616   2
  -2  -4  -6 63677.2 1965.82   2
  -2  -4  -7 14281.1 963.130   2
  -2  -4  -8 66212.4 2208.74   2
   2  -4   9 291.790 183.717   1
  -2  -4  -9 201.053 169.538   2
  -2  -4  -9 62.8449 59.1934   7
   2  -4  10 2289.73 432.371   1
  -2   4 -10 2136.27 203.032   7
  -2  -4 -10 1720.49 184.932   7
  -2   4 -11 3808.27 270.123   7
  -2  -4 -11 4255.40 306.888   7
   2  -4  11 3204.36 541.723   1
  -2  -4 -12 23800.1 764.850   7
  -2   4 -12 24284.1 695.971   7
  -2  -4 -13 11302.9 538.747   7
  -2   4 -13 10905.9 470.652   7
  -2   4 -14 1572.09 178.796   7
  -2  -4 -14 1682.94 215.780   7
  -2  -4 -15 4354.49 320.912   7
  -2   4 -15 4659.10 278.568   7
  -2  -4 -16 1022.43 143.524   7
  -2  -4 -17-117.127 60.7870   7
  -2  -4 -18 2196.06 144.946   7
   2  -6 -19 1017.59 114.777   7
   2  -6 -18 85.3317 57.0570   7
   2  -6 -17 432.318 103.694   7
   2  -6 -16 657.276 129.543   7
   2  -6 -15 8846.94 473.451   7
   2  -6 -14 8009.84 450.109   7
   2  -6 -13 737.222 169.591   7
  -2  -6  12 681.561 294.611   1
   2  -6 -12 897.970 170.097   7
   2  -6 -11 10776.0 503.261   7
  -2  -6  11 9384.25 919.982   1
  -2  -6  10 408.688 186.174   1
   2   6 -10 372.606 105.518  11
  -2  -6   9 37055.1 1637.75   1
  -2  -6   8 4948.85 579.032   1
  -2  -6   7 7489.52 669.029   1
  -2  -6   6 520.151 175.516   1
  -2  -6   5 244043. 3496.53   1
  -2   6   4 6695.37 551.159   4
  -2  -6   4 6992.66 557.302   1
  -2  -6   3 69562.1 1709.79   1
  -2   6   3 70246.0 1717.91   4
   2  -6  -3 66350.3 926.384   1
  -2   6   2 14397.1 779.570   4
   2  -6  -2 13323.3 503.388   1
  -2  -6   2 14128.3 765.060   1
   2  -6  -1 33729.3 922.726   1
  -2  -6   1 32187.6 1101.91   1
  -2   6   1 35044.3 1167.68   4
   2  -6   0 5987.16 456.394   1
  -2  -6   0 5988.58 464.221   1
   2  -6   1 18083.0 804.871   1
  -2  -6  -1 17854.8 781.579   1
  -2  -6  -2 26621.7 962.643   1
  -2  -6  -2 26477.1 1043.29   2
  -2  -6  -3 29499.3 1145.48   2
   2   6   4 255.701 114.264   4
  -2  -6  -4 211.066 124.443   2
   2   6   5 89916.4 1844.92   4
  -2  -6  -5 90967.3 2185.32   2
   2  -6   6 1053.48 280.203   1
   2   6   6 1232.95 235.938   4
  -2  -6  -6 1323.95 278.566   2
  -2  -6  -7 1214.58 305.172   2
   2  -6   7 1524.28 333.465   1
   2  -6   8 2415.48 441.968   1
   2  -6   9 93248.6 2879.36   1
  -2  -6  -9 100167. 1376.94   7
   2  -6  10 1401.27 354.314   1
  -2  -6 -10 1688.41 196.864   7
  -2  -6 -11 272.084 82.8320   7
   2  -6  11 147.000 160.491   1
  -2  -6 -12 14349.8 596.402   7
  -2  -6 -13 5055.23 352.908   7
  -2  -6 -14 1481.20 202.500   7
  -2  -6 -15 12767.6 517.424   7
  -2  -6 -16 93.5648 68.1777   7
  -2   6 -16 262.256 65.4370  12
  -2  -6 -17 2982.20 196.765   7
   2  -8 -18 9085.11 335.318   7
   2  -8 -17 1097.44 136.339   7
  -2   8  17 1099.59 106.228   6
   2  -8 -16 1228.84 177.488   7
   2  -8 -15 3846.06 315.985   7
   2  -8 -14 291.264 110.222   7
   2  -8 -13 142.272 79.2369   7
  -2  -8  12 15471.3 1327.43   1
   2  -8 -12 18939.7 656.923   7
  -2   8  11 858.454 325.587   4
  -2  -8  11 447.674 259.684   1
   2  -8 -11 460.070 121.802   7
   2   8 -11 637.873 126.782  11
  -2  -8  10 5526.66 750.493   1
   2  -8 -10 4945.75 339.441   7
   2   8 -10 5537.38 322.247  11
  -2   8  10 5864.65 750.289   4
  -2   8   9 6290.85 738.297   4
  -2  -8   9 6254.62 766.959   1
   2   8  -9 5269.28 303.088  11
  -2   8   8 27139.0 1478.53   4
  -2  -8   8 26900.2 1508.48   1
  -2   8   7 10853.1 894.666   4
  -2  -8   7 11047.9 921.782   1
  -2   8   6 16546.4 1062.78   4
  -2  -8   6 17141.4 1086.51   1
  -2  -8   5 659.004 235.748   1
  -2   8   5 413.232 198.804   4
  -2  -8   4 35774.3 1477.45   1
  -2   8   4 32912.0 1402.91   4
  -2   8   3 227.403 147.707   4
   2  -8  -3 168.740 76.4198   1
  -2  -8   3 158.978 148.626   1
  -2  -8   2 87276.3 2148.06   1
  -2   8   2 90687.6 2200.42   4
   2  -8  -2 84149.7 1575.58   1
   2  -8  -1 16829.1 758.210   1
  -2  -8   1 16896.2 909.321   1
  -2  -8   0 37691.6 1338.39   1
   2  -8   0 38717.6 1240.12   1
  -2  -8  -1 5617.76 528.891   1
   2  -8   1 6057.83 523.059   1
   2  -8   2 82400.2 2033.93   1
  -2  -8  -2 78524.6 2015.09   2
  -2  -8  -2 81179.0 1895.84   1
   2  -8   3 8897.38 725.180   1
  -2  -8  -3 8854.64 688.885   2
  -2  -8  -4 17180.0 984.162   2
   2  -8   4 17981.0 1077.95   1
  -2  -8  -5 1631.37 316.056   2
   2  -8   5 1784.65 352.096   1
   2  -8   6 48890.0 1961.51   1
   2  -8   7 12209.9 1013.88   1
   2  -8   8 43699.1 2003.95   1
  -2   8  -8 41229.9 829.896  11
  -2  -8  -8 44087.9 906.833   7
   2  -8   9 1624.92 409.139   1
  -2  -8  -9 1281.32 173.297   7
   2  -8  10 605.377 246.764   1
  -2  -8 -10 354.825 95.7982   7
  -2  -8 -11 563.382 119.445   7
  -2  -8 -12 11677.1 527.897   7
  -2  -8 -13 2617.03 259.699   7
  -2  -8 -14 8667.31 445.616   7
  -2  -8 -15 391.413 101.056   7
  -2  -8 -16 76.2248 53.6078   7
  -2   8 -16 1.30809 29.1351  12
  -2  -8 -17 517.688 73.9989   7
   2  10 -18 33.7595 27.2651  12
   2 -10 -17 4022.91 227.369   7
  -2  10  17 4541.93 188.311   6
  -2  10  16 458.557 81.6208   6
   2 -10 -16 347.927 89.6742   7
  -2  10  15 11053.9 396.966   6
   2 -10 -15 9813.02 448.584   7
   2 -10 -14 1134.18 160.131   7
   2 -10 -13 2491.19 254.115   7
   2 -10 -12 3424.04 274.869   7
   2 -10 -11 164.483 79.3828   7
   2  10 -11 45.6267 70.1267  11
   2  10 -10 16590.0 572.898  11
   2 -10 -10 16321.3 575.572   7
  -2 -10  10 17745.9 1437.49   1
  -2  10  10 18454.7 1370.60   4
  -2 -10   9 37745.8 2041.16   1
  -2  10   9 39318.7 1989.15   4
   2  10  -9 39958.8 882.930  11
  -2 -10   8 144.964 172.884   1
  -2  10   8-97.1769 148.121   4
   2  10  -8 56.1743 83.1496  11
  -2 -10   7 14217.5 1161.34   1
   2  10  -7 12960.2 461.284  11
  -2  10   7 13136.6 1092.16   4
  -2 -10   6 4054.31 626.633   1
  -2  10   6 3407.31 549.614   4
  -2  10   5 16979.2 1166.57   4
  -2 -10   5 16954.0 1189.60   1
  -2 -10   4 17374.4 1149.60   1
  -2  10   4 16106.7 1110.30   4
  -2 -10   3 54097.0 1984.35   1
   2 -10  -2 15063.9 781.033   1
  -2 -10   2 16419.5 1055.95   1
   2 -10  -1 70472.3 1815.77   1
  -2 -10   1 76453.5 2189.29   1
   2 -10   0 343.370 153.242   1
  -2 -10   0 217.435 136.457   1
   2 -10   1 50014.1 1674.29   1
  -2 -10  -1 48874.1 1682.45   1
  -2 -10  -2 4357.19 537.793   2
   2 -10   2 5001.93 551.233   1
  -2 -10  -2 4665.52 520.042   1
   2 -10   3 16986.9 1091.37   1
  -2 -10  -3 15292.7 993.714   2
   2 -10   4 261.911 172.418   1
   2 -10   5 5493.36 686.901   1
  -2  10  -6 70.4925 69.8463  11
   2 -10   6 311.296 161.495   1
   2  10   6 280.044 82.2593   6
   2 -10   7 19615.1 1391.49   1
   2  10   7 18586.7 527.890   6
  -2  10  -7 17428.3 542.439  11
   2  10   8 1710.64 172.198   6
  -2  10  -8 1596.08 172.334  11
   2 -10   8 1905.85 455.353   1
  -2 -10  -9 47173.2 967.126   7
   2  10   9 46815.1 867.346   6
   2  10  10 637.211 106.829   6
  -2 -10 -10 705.586 132.596   7
   2  10  11-19.2717 66.0093   6
  -2 -10 -11 71.1933 68.0144   7
  -2 -10 -12 1666.24 207.810   7
   2  10  12 2329.40 191.899   6
  -2 -10 -13 1293.73 171.544   7
  -2 -10 -14 107.988 74.3492   7
  -2 -10 -15 4180.44 233.533   7
  -2  10 -15 4540.42 238.606  12
  -2  10 -16 880.424 86.3087  12
  -2 -10 -16 838.570 90.6199   7
   2  12 -17 18.8061 27.1900  12
  -2  12  16 225.479 50.5147   6
  -2  12  15 199.089 63.1415   6
   2 -12 -15 176.910 69.3720   7
   2 -12 -14 3460.61 245.618   7
  -2  12  14 4350.32 259.504   6
  -2  12  13-34.4564 60.4190   6
  -2  12  12 12415.2 469.678   6
   2  12 -11 1129.35 162.351  11
  -2  12  11 1233.08 167.488   6
  -2  12  10 7311.92 366.808   6
   2  12 -10 7080.08 377.624  11
  -2  12   9 1394.14 173.382   6
   2  12  -9 1061.56 152.303  11
  -2 -12   9 1135.93 422.949   1
  -2 -12   8 5035.35 789.264   1
   2  12  -8 4026.59 289.920  11
  -2  12   8 4587.61 286.225   6
  -2  12   7 3000.79 228.784   6
   2  12  -7 3316.13 230.099   6
   2  12  -7 2700.86 239.757  11
   2  12  -6 22992.3 655.167  11
  -2  12   6 22725.3 597.038   6
   2  12  -6 23227.0 596.416   6
   2  12  -5 1121.85 144.557  11
   2  12  -5 1083.12 125.231   6
  -2 -12   5 1002.27 338.048   1
  -2  12   5 852.004 121.565   6
   2  12  -4 24521.6 631.365  11
  -2  12   4 21359.2 557.370   6
  -2 -12   4 26770.1 1612.61   1
   2  12  -4 23590.6 579.322   6
  -2 -12   3 2130.51 473.356   1
  -2 -12   2 17516.1 1223.38   1
  -2 -12   1 8649.86 823.904   1
   2 -12   0 27057.3 1337.63   1
  -2 -12   0 26074.4 1423.56   1
  -2 -12  -1 273.816 170.507   1
   2 -12   1 129.690 137.672   1
   2  12   2 16585.5 501.380   6
   2 -12   2 17260.2 1167.30   1
   2  12   3 553.802 102.396   6
   2 -12   3 392.674 202.498   1
   2  12   4 3679.98 247.600   6
   2 -12   4 3804.56 599.977   1
  -2  12  -4 3756.18 243.212  11
   2  12   5 840.308 123.686   6
  -2  12  -5 1070.36 133.912  11
   2 -12   5 808.928 313.482   1
  -2  12  -6 63822.0 1070.60  11
   2 -12   6 66598.0 2666.24   1
   2  12   6 69707.6 1077.49   6
   2  12   7 1539.34 176.157   6
  -2  12  -7 1224.13 159.160  11
   2  12   8 600.140 120.321   6
  -2  12  -8 539.987 108.135  11
   2  12   9 1855.46 186.339   6
   2  12  10 434.607 94.6583   6
   2  12  11 97.6545 54.8685   6
   2  12  12 12135.6 405.597   6
  -2  12 -14 3647.97 220.741  12
  -2  12 -15 3412.79 179.009  12
   2  14 -16-11.2012 22.1683  12
  -2  14  15 11069.9 319.623   6
  -2  14  14 130.205 48.7512   6
  -2  14  13 2725.56 205.846   6
  -2  14  12 1859.41 183.263   6
   2  14 -11 7154.48 361.674  11
  -2  14  11 7207.42 366.255   6
  -2  14  10 2082.84 206.792   6
   2  14 -10 2031.28 209.792  11
  -2  14   9 31557.4 778.610   6
   2  14  -9 29246.4 782.962  11
  -2  14   8 262.366 87.4513   6
   2  14  -8 246.950 96.4477  11
   2  14  -7 22153.9 611.745   6
  -2  14   7 21024.2 635.452   6
  -2 -14   7 23031.0 1724.64   1
   2  14  -7 22527.4 683.488  11
  -2 -14   6 532.781 285.764   1
   2  14  -6 377.892 104.889  11
   2  14  -6 457.104 106.598   6
  -2  14   6 442.749 97.0139   6
  -2  14   5 2186.46 210.580   6
  -2 -14   5 1646.95 475.451   1
   2  14  -5 2023.73 202.795  11
   2  14  -5 2143.29 191.176   6
   2  14  -4 1796.42 184.695   6
  -2  14   4 1765.48 184.205   6
  -2 -14   4 2175.70 515.570   1
   2  14  -4 1555.22 181.929  11
  -2  14   3 15183.7 508.100   6
   2  14  -3 15449.9 507.316   6
  -2 -14   3 16399.0 1329.26   1
   2  14  -3 15197.0 541.443  11
  -2 -14   2 1006.76 363.740   1
   2  14  -2 899.757 129.040   6
   2  14  -2 740.298 132.409  11
  -2  14   2 968.565 128.485   6
   2  14  -1 16192.6 514.920   6
  -2  14   1 15271.7 492.001   6
  -2 -14   1 16249.8 1283.09   1
   2  14   0 901.219 135.983   6
  -2  14   0 955.950 120.164   6
  -2  14  -1 327.791 81.3344   6
   2  14   1 446.015 99.5747   6
   2  14   2 110.749 79.6444   6
   2 -14   2-111.283 157.029   1
  -2  14  -2 116.542 71.5866   6
   2  14   3 43627.7 890.052   6
   2 -14   3 42019.6 2099.46   1
  -2  14  -3 40837.1 774.078   6
  -2  14  -3 42132.9 854.763  11
   2  14   4 305.695 94.8476   6
   2 -14   4 593.909 273.175   1
  -2  14  -4 350.138 88.5570  11
  -2  14  -4 262.781 75.9625  12
  -2  14  -5 431.843 97.9787  11
   2  14   5 352.721 107.003   6
   2 -14   5 451.766 235.682   1
  -2  14  -6 2438.94 208.194  11
   2  14   6 1803.88 202.056   6
   2  14   7 138.942 95.5407   6
  -2  14  -7 115.445 76.0920  11
  -2  14  -8 574.885 118.900  11
   2  14   8 662.539 120.037   6
   2  14   9 12385.2 467.471   6
   2  14  10 229.692 90.4806   6
   2  14  11 2212.82 179.550   6
  -2  14 -11 2596.21 217.049  12
  -2  14 -12 408.151 86.0869  12
   2  14  12 340.891 72.9171   6
  -2  14 -13 3037.31 191.680  12
  -2  14 -14 0.89391 24.0573  12
  -2  16  14 1600.31 118.696   6
   2  16 -14 1562.33 112.623  12
  -2  16  13 660.803 90.3867   6
   2  16 -13 462.158 73.8133  12
  -2  16  12 9725.33 370.716   6
  -2  16  11 2558.81 204.723   6
   2  16 -10 1453.37 155.787  11
  -2  16  10 1618.06 176.262   6
  -2  16   9 496.720 123.123   6
   2  16  -9 151.598 72.4879  11
  -2  16   8 2903.39 246.475   6
   2  16  -8 3179.74 249.903  11
  -2  16   7 557.573 104.615   6
   2  16  -7 737.450 127.760  11
  -2  16   6 32290.5 789.900   6
   2  16  -6 33355.2 819.556  11
   2  16  -6 32646.3 749.166   6
  -2  16   5 464.976 112.944   6
   2  16  -5 476.223 113.270   6
   2  16  -5 406.585 116.479  11
  -2  16   4 1751.78 189.826   6
   2  16  -4 1960.96 192.279   6
   2  16  -4 1908.93 201.059  11
   2  16  -3 172.369 78.0814  11
   2  16  -3 211.681 93.7599   6
  -2  16   3 178.180 82.1805   6
  -2  16   2 8954.42 406.312   6
   2  16  -2 9259.68 432.916  11
   2  16  -2 8263.17 396.917   6
  -2  16   1 13505.6 486.950   6
   2  16  -1 13921.2 510.175   6
   2  16  -1 13180.4 503.145  11
  -2  16   0 5195.82 303.604   6
   2  16   0 5302.05 324.243   6
   2  16   0 6020.71 335.140  11
   2  16   1 610.420 124.208   6
  -2  16  -1 599.904 109.916   6
   2  16   2 3239.40 294.543   6
  -2  16  -2 1162.46 148.193   6
  -2  16  -3 2045.72 187.889   6
   2  16   3 2326.70 226.135   6
   2  16   4 1844.27 198.580   6
  -2  16  -4 1576.05 163.119  11
  -2  16  -5 3439.17 251.608  11
  -2  16  -5 3482.21 242.566  12
   2  16   5 3186.23 257.085   6
   2  16   6 24082.6 673.813   6
  -2  16  -6 23964.0 617.170  12
  -2  16  -6 22947.0 609.663  11
  -2  16  -7 2141.14 188.605  11
  -2  16  -7 2386.98 197.509  12
   2  16   7 1982.34 194.171   6
   2  16   8 6284.29 327.077   6
  -2  16  -8 6384.29 319.443  12
   2  16   9 278.531 84.4055   6
  -2  16  -9 200.950 61.7322  12
   2  16  10 6047.18 284.690   6
  -2  16 -10 6427.13 297.892  12
   2  16  11 694.489 92.5746   6
  -2  16 -11 787.588 101.800  12
   2  16  12 5072.06 190.473   6
  -2  16 -12 6159.11 242.711  12
  -2  16 -13 78.3392 29.8235  12
  -2  18  12 292.597 62.6316   6
  -2  18  11 1908.41 150.597   6
  -2  18  10 1209.33 137.678   6
  -2  18   9 22997.2 592.745   6
   2  18  -9 22744.9 558.976  11
   2  18  -8 53.7302 55.1190  11
  -2  18   8 120.421 73.1058   6
  -2  18   7 387.117 103.667   6
   2  18  -7 358.364 102.000  11
   2  18  -6 59.3677 67.0913  11
  -2  18   6 171.680 70.8840   6
   2  18  -5 3784.37 269.108  11
  -2  18   5 3336.36 254.142   6
   2  18  -5 3389.58 239.901   6
   2  18  -4 1474.02 169.879   6
  -2  18   4 1352.64 162.460   6
   2  18  -4 1669.42 181.111  11
  -2  18   3 15330.3 519.591   6
   2  18  -3 15105.3 532.166  11
   2  18  -3 15633.8 525.084   6
   2  18  -2 4945.10 305.711   6
   2  18  -2 4321.03 287.964  11
  -2  18   1 11215.0 431.804   6
   2  18  -1 12170.4 486.765  11
   2  18  -1 11847.7 472.921   6
  -2  18   0 395.370 103.467   6
   2  18   0 594.255 113.873  11
   2  18   0 306.036 92.9369   6
   2  18   1 167.275 87.6523  11
   2  18   1 98.8688 74.9211   6
  -2  18  -1 73.2059 71.4950   6
  -2  18  -2 338.390 84.6843   6
   2  18   2 295.177 98.0269   6
   2  18   2 461.003 112.061  11
   2  18   3 8157.30 397.417   6
   2  18   4 36.7306 59.4166   6
   2  18   5 1272.05 159.022   6
   2  18   6 3032.31 230.968   6
  -2  18  -7 674.267 93.1113  12
   2  18   7 760.533 111.194   6
   2  18   8 143.872 57.0530   6
  -2  18  -8 127.227 43.5571  12
   2  18   9 12527.5 376.294   6
  -2  18  -9 12786.9 344.522  12
   2  18  10-36.4690 44.2748   6
  -2  18 -10-16.8488 23.5798  12
  -2  20  10 870.320 89.2205   6
  -2  20   9 1792.10 134.428   6
  -2  20   8 1471.33 135.672   6
   2  20  -8 1614.21 126.797  11
  -2  20   7 74.2192 46.7475   6
   2  20  -7 190.037 59.9602  11
  -2  20   6 8780.59 342.071   6
   2  20  -6 8673.29 332.161  11
  -2  20   5 333.482 80.7321   6
   2  20  -5 163.540 54.1157  11
  -2  20   4 4606.62 257.054   6
   2  20  -4 4539.18 252.785  11
   2  20  -4 4960.97 260.208   6
  -2  20   3 243.194 78.6888   6
   2  20  -3 331.864 83.6489   6
   2  20  -2 8508.21 360.715   6
  -2  20   2 8893.30 356.105   6
   2  20  -2 8439.69 354.937  11
  -2  20   1 1950.08 168.020   6
   2  20  -1 1707.94 161.993  11
   2  20  -1 2241.47 191.975   6
   2  20   0 8620.56 370.923   6
  -2  20   0 8443.77 333.867   6
   2  20   0 8357.92 351.200  11
   2  20   1 627.091 118.287   6
  -2  20  -1 601.574 91.2973   6
   2  20   1 412.764 89.7171  11
   2  20   2 3771.45 231.879  11
   2  20   2 3998.52 257.485   6
  -2  20  -2 3587.13 202.275   6
   2  20   3 74.1334 61.1842   6
   2  20   3 35.2124 44.5924  11
   2  20   4 971.502 125.333   6
   2  20   4 1211.21 128.834  11
   2  20   5 100.008 53.2598   6
   2  20   6 7078.69 295.631   6
   2  20   7 107.595 48.0636   6
   2  20   8 1932.24 127.213   6
  -2  22   7 1291.95 94.8375   6
  -2  22   6 703.268 74.0085   6
  -2  22   5 845.926 89.9259   6
  -2  22   4 133.846 45.7422   6
  -2  22   3 4377.11 196.867   6
  -2  22   2-15.2766 33.1737   6
   2  22  -2 4.27538 34.3610   6
   2  22  -1 1877.15 140.858   6
  -2  22   1 1500.94 111.637   6
   2  22   0 337.294 71.7656   6
   2  22   1 1828.53 141.246   6
   2  22   2 29.7525 33.8452   6
   2  22   3 6549.54 250.327   6
   2  22   4 784.879 87.7190   6
   2  22   5 1509.30 110.792   6
   3  -1 -20 116.529 40.8582   7
   3   1 -19 7520.58 301.931   7
   3  -1 -19 7991.50 333.252   7
   3   1 -18 2336.17 206.637   7
   3  -1 -18 2401.77 219.291   7
   3  -1 -17 62.6992 63.0846   7
   3   1 -17 14.5953 60.0172   7
   3   1 -16 3124.38 282.340   7
   3  -1 -16 3339.31 293.448   7
   3  -1 -15 38.7930 69.2142   7
   3   1 -15 176.084 96.8842   7
   3  -1 -14 201.647 97.9820   7
   3   1 -14 222.858 110.055   7
  -3  -1  14 377.482 106.237   9
  -3  -1  14 337.018 274.773   3
  -3  -1  13 5923.57 296.648   9
  -3   1  13 5680.37 289.699   9
  -3  -1  13 5109.73 760.990   3
  -3   1  13 4910.71 749.635   3
  -3  -1  12 2322.36 500.555   3
  -3  -1  12 2171.58 177.537   9
  -3   1  12 2408.91 490.747   3
  -3   1  12 2022.39 184.896   9
  -3   1  11 1260.21 328.987   3
  -3  -1  11 1318.37 360.091   3
  -3  -1  10 22084.0 1022.76   1
  -3  -1  10 24516.2 1363.94   3
  -3   1  10 23815.6 1320.91   3
  -3  -1   9 16039.5 827.687   1
  -3   1   9 17190.6 1044.55   3
  -3   1   8 26002.4 824.062   1
  -3   1   8 29196.9 1289.29   3
  -3  -1   8 26789.6 1010.96   1
  -3   1   7 32459.9 835.758   1
  -3  -1   7 32083.3 1027.09   1
  -3   1   7 34997.3 1294.19   3
  -3  -1   6 8387.71 493.095   1
  -3   1   6 8667.66 395.242   1
  -3   1   6 9081.46 611.723   3
  -3  -1   5 21814.4 741.034   1
  -3   1   5 23215.8 579.014   1
  -3   1   5 23776.5 914.137   3
  -3  -1   4 3893.71 319.851   1
  -3   1   4 3696.85 330.403   3
  -3   1   4 3703.13 230.486   1
  -3  -1   3 3261.41 278.006   1
  -3   1   3 3306.04 293.463   3
  -3  -1   2 186747. 1950.57   1
  -3   1   2 180708. 1789.35   3
  -3   1   1 71898.7 1117.95   2
  -3  -1   1 69284.6 1217.20   1
  -3  -1   0 7122.92 169.065   3
  -3   1   0 8145.04 432.266   2
  -3  -1   0 8568.72 460.503   2
  -3   1   0 7345.28 295.352   4
  -3   1  -1 10747.4 577.954   2
  -3  -1  -1 10412.7 576.511   2
  -3  -1  -2 22975.2 906.998   2
  -3   1  -2 22568.2 879.186   2
  -3   1  -3 1685.62 296.013   2
   3   1   3 1529.38 123.504   3
  -3  -1  -3 1656.28 271.688   2
  -3  -1  -4 105587. 2275.16   2
  -3   1  -4 105086. 2332.49   2
   3   1   4 104512. 1225.51   3
  -3  -1  -5 143798. 2976.06   2
  -3   1  -5 144881. 2940.23   2
   3   1   5 137863. 1687.57   3
  -3  -1  -6 411.476 213.102   2
  -3   1  -6 394.920 225.214   2
  -3   1  -7 6881.12 728.448   2
  -3  -1  -7 6908.59 721.782   2
  -3  -1  -8 12831.8 1042.51   2
  -3   1  -8 11896.9 1036.30   2
  -3  -1  -9 1079.03 149.233   7
  -3   1  -9 1384.69 367.668   2
  -3   1  -9 1289.76 155.922   7
  -3  -1  -9 1203.84 349.244   2
  -3   1 -10 3262.36 276.512   7
  -3  -1 -10 3268.74 264.950   7
  -3   1 -11 4483.87 313.959   7
  -3  -1 -11 4454.50 317.418   7
  -3  -1 -12 580.362 129.221   7
  -3   1 -12 612.931 123.266   7
  -3  -1 -13 1710.10 204.587   7
  -3   1 -13 1730.15 206.702   7
  -3   1 -14 4045.78 302.054   7
  -3  -1 -14 4139.91 317.301   7
  -3  -1 -15 3835.77 285.978   7
  -3   1 -15 4029.68 279.564   7
  -3  -1 -16 10903.7 426.757   7
  -3   1 -16 10659.7 401.385   7
  -3  -1 -17 542.155 86.0211   7
  -3   1 -17 512.405 79.2510   7
   3  -3 -20 3544.22 180.453   7
   3  -3 -19 2391.84 190.577   7
   3  -3 -18 148.608 80.9732   7
   3   3 -18 233.795 67.7513   7
   3   3 -17 1380.36 168.160   7
   3  -3 -17 1560.43 205.409   7
   3   3 -16 4680.83 317.253   7
   3  -3 -16 4548.51 344.645   7
   3  -3 -15 1343.84 200.640   7
   3   3 -15 1483.54 191.259   7
   3   3 -14 2528.36 247.407   7
  -3  -3  14 2840.96 210.488   9
  -3  -3  14 2890.55 592.801   3
   3  -3 -14 3345.62 308.259   7
  -3  -3  13 7492.58 332.371   9
  -3  -3  13 7382.47 875.920   3
   3   3 -13 6385.46 393.797   7
  -3   3  12 1762.24 153.125   9
  -3  -3  12 1322.32 371.763   3
  -3   3  11 7970.14 323.101   9
  -3  -3  11 7904.16 737.280   1
  -3  -3  10 21694.7 1152.49   1
  -3   3   9 120.833 138.444   3
  -3  -3   9 102.139 135.012   1
  -3  -3   8 22049.4 1041.19   1
  -3   3   8 22920.8 1165.09   3
  -3   3   7 19376.8 991.222   3
  -3  -3   7 17596.5 883.447   1
  -3   3   6 1203.82 236.142   3
  -3  -3   6 866.789 211.677   1
  -3  -3   5 35189.7 1178.26   1
  -3  -3   4 119322. 1969.46   1
  -3  -3   3 90926.0 1694.60   1
  -3   3   2 2981.38 192.459   2
  -3  -3   2 3543.79 412.731   1
  -3   3   1 2045.12 205.934   2
  -3  -3   1 2382.17 298.766   1
  -3   3   1 2169.64 243.131   4
  -3  -3   0 6273.24 443.893   1
  -3   3   0 6546.63 396.736   2
  -3   3   0 5800.96 370.231   4
  -3   3  -1 37232.8 1076.46   2
  -3  -3  -1 38784.7 1149.75   2
  -3  -3  -2 19477.7 878.733   2
  -3   3  -2 19541.9 870.502   2
   3   3   3 3109.25 187.350   4
  -3   3  -3 2943.44 369.944   2
  -3  -3  -3 3282.74 396.318   2
   3   3   4 46104.9 832.353   4
  -3   3  -4 47988.5 1623.06   2
  -3  -3  -4 49590.7 1600.00   2
  -3   3  -5 61729.3 2008.12   2
  -3  -3  -5 62147.8 1891.84   2
  -3  -3  -6 4976.29 603.874   2
  -3   3  -6 5425.24 630.020   2
  -3  -3  -7 16210.9 1103.19   2
  -3   3  -7 15994.8 1152.35   2
  -3  -3  -8 9130.67 876.783   2
  -3  -3  -9 3632.56 261.279   7
  -3  -3  -9 3613.90 590.636   2
  -3  -3 -10 13203.1 529.349   7
  -3   3 -10 13247.5 498.184   7
  -3  -3 -10 13252.5 1192.84   2
   3  -3  10 12643.7 1056.29   1
  -3   3 -11 18386.9 608.091   7
  -3  -3 -11 17869.2 650.258   7
  -3  -3 -12 8519.39 455.690   7
  -3   3 -12 8220.87 419.938   7
  -3   3 -13 2055.06 211.927   7
  -3  -3 -13 2432.15 257.329   7
  -3  -3 -14 2792.09 260.171   7
  -3   3 -14 2974.28 241.393   7
  -3   3 -15 2697.35 209.098   7
  -3  -3 -15 2887.43 247.624   7
  -3   3 -16 8594.38 327.455   7
  -3  -3 -16 8478.53 381.035   7
  -3  -3 -17 70.9414 54.6787   7
   3  -5 -19 5185.66 264.157   7
   3  -5 -18-13.2361 55.1068   7
   3  -5 -17 2342.35 232.874   7
   3  -5 -16 385.410 116.980   7
   3  -5 -15 10485.3 524.099   7
  -3  -5  14 3295.70 615.850   3
  -3  -5  14 3085.16 205.409   9
   3  -5 -14 2912.69 295.601   7
  -3  -5  13 10412.6 386.194   9
  -3  -5  13 11707.1 1186.56   3
   3  -5 -13 11455.7 549.678   7
  -3  -5  12 6395.87 771.293   1
  -3  -5  12 6452.61 325.721   8
  -3  -5  12 6238.11 292.600   9
  -3  -5  11 20382.4 551.910   8
   3   5 -11 20660.3 594.929  11
  -3  -5  11 20853.1 1328.47   1
  -3  -5  11 20479.8 520.126   9
  -3  -5  10 24839.1 1361.31   1
  -3  -5   9 3.78015 105.007   1
  -3  -5   8 12531.1 876.568   1
  -3  -5   7 20542.8 1073.22   1
  -3  -5   6 12261.2 788.843   1
  -3  -5   5 4852.51 489.456   1
  -3  -5   4 11958.2 761.483   1
  -3  -5   3 18560.5 884.759   1
  -3   5   3 19810.0 883.249   4
   3  -5  -3 19497.8 475.122   1
  -3  -5   2 19043.4 858.433   1
  -3   5   2 21024.5 886.459   4
  -3  -5   1 218.584 139.882   1
  -3   5   1 44.2913 84.0894   4
  -3  -5   0 48380.2 1327.12   1
  -3  -5  -1 39476.5 1211.02   1
  -3   5  -1 38522.7 1187.54   2
  -3   5  -2 7400.38 578.625   2
  -3  -5  -2 7400.57 592.772   2
  -3  -5  -3 6609.36 594.198   2
  -3   5  -3 6277.23 594.343   2
  -3  -5  -4 44176.7 1587.87   2
  -3  -5  -5 15435.3 995.376   2
  -3  -5  -6 126.685 138.061   2
  -3  -5  -7 70513.8 2355.39   2
  -3  -5  -8 44683.8 1933.94   2
  -3  -5  -8 42736.8 871.696   7
   3  -5   9 8984.49 891.712   1
  -3  -5  -9 9355.76 931.345   2
  -3  -5  -9 9657.13 442.410   7
   3  -5  10 5623.15 724.153   1
  -3  -5 -10 5855.58 366.079   7
   3  -5  11 10793.8 1036.08   1
  -3  -5 -11 12912.3 553.446   7
  -3  -5 -12 14122.7 595.433   7
  -3  -5 -13 16048.8 630.121   7
  -3  -5 -14 6334.92 389.384   7
  -3  -5 -15 224.011 89.0477   7
  -3   5 -15 89.5226 31.8921  12
  -3  -5 -16 2792.72 220.849   7
  -3  -5 -17 1434.13 128.945   7
   3  -7 -19 3132.64 185.212   7
  -3   7  18 27.5335 28.5490   6
   3  -7 -18-27.0350 50.1262   7
   3  -7 -17 9942.70 453.560   7
   3  -7 -16 5167.53 345.624   7
   3  -7 -15 87.4246 66.5365   7
   3  -7 -14 3662.63 323.707   7
   3  -7 -13 1590.30 221.139   7
  -3  -7  12 1289.38 142.976   8
  -3  -7  12 1460.21 401.133   1
   3  -7 -12 1340.15 197.408   7
  -3  -7  11 11929.2 429.978   8
   3   7 -11 12931.2 484.653  11
  -3  -7  11 11542.1 1073.50   1
  -3  -7  10 26326.0 1587.82   1
   3   7 -10 29039.2 705.199  11
  -3  -7   9 1101.54 320.122   1
  -3  -7   8 14180.7 1033.53   1
  -3  -7   7 9575.79 832.976   1
  -3   7   6 7978.82 734.889   4
  -3  -7   6 7696.48 722.700   1
  -3   7   5 19150.4 1077.99   4
  -3  -7   5 20411.5 1114.18   1
  -3   7   4 128295. 2653.95   4
  -3  -7   4 127673. 2704.93   1
   3  -7  -3 70270.1 1148.58   1
  -3  -7   3 71632.7 1948.10   1
  -3   7   3 74786.0 2001.08   4
  -3  -7   2 596.859 189.172   1
   3  -7  -2 750.390 152.742   1
  -3   7   2 618.779 207.951   4
  -3  -7   1 805.627 212.862   1
   3  -7  -1 1042.55 184.172   1
   3  -7   0 11135.3 648.854   1
  -3  -7   0 10705.7 713.222   1
  -3  -7  -1 37005.0 1344.48   1
  -3  -7  -2 689.340 209.006   2
  -3  -7  -3 20899.3 1116.61   2
  -3  -7  -4 18813.1 1091.27   2
  -3  -7  -5 12192.2 913.353   2
  -3  -7  -6 5581.38 624.236   2
   3  -7   6 5619.08 672.163   1
  -3  -7  -7 73017.9 2433.11   2
   3  -7   7 63574.4 2360.01   1
  -3  -7  -8 31363.7 773.918   7
   3  -7   8 32764.1 1745.34   1
  -3  -7  -9 2680.98 253.299   7
   3  -7   9 2205.28 472.620   1
  -3  -7 -10 2372.76 239.199   7
   3  -7  10 2524.55 515.840   1
  -3  -7 -11 894.583 169.301   7
  -3  -7 -12 1804.11 214.526   7
  -3  -7 -13 13402.2 568.540   7
  -3  -7 -14 6064.35 365.673   7
  -3   7 -15 3124.10 197.786  12
  -3  -7 -15 3566.89 247.803   7
  -3  -7 -16 6793.64 298.725   7
  -3   7 -16 5977.06 215.127  12
  -3  -7 -17 542.268 72.2182   7
   3  -9 -18 2542.87 173.215   7
   3  -9 -17 1822.33 173.913   7
  -3   9  17 1851.19 139.939   6
   3  -9 -16 1104.38 164.120   7
   3  -9 -15 1276.07 179.466   7
   3  -9 -14 2419.33 247.674   7
   3  -9 -13 4425.72 329.179   7
   3   9 -12 7641.30 408.589  11
   3  -9 -12 7053.00 405.644   7
   3   9 -11 50899.8 991.997  11
   3  -9 -11 47008.9 1050.21   7
  -3   9  11 49553.6 2345.24   4
  -3  -9  11 47429.7 2365.06   1
   3   9 -10 9257.55 423.933  11
  -3  -9  10 7052.47 907.280   1
  -3   9  10 8134.85 922.053   4
  -3   9   9 3066.16 541.835   4
  -3  -9   9 2992.66 558.698   1
   3   9  -9 3411.58 247.042  11
  -3  -9   8 1671.60 425.802   1
  -3   9   8 1816.49 424.869   4
   3   9  -8 2067.15 204.604  11
  -3   9   7 4735.59 652.796   4
  -3  -9   7 4782.08 663.075   1
  -3  -9   6 4261.50 606.087   1
  -3   9   6 4318.30 606.749   4
  -3  -9   5 45307.7 1863.30   1
  -3   9   5 40893.3 1762.55   4
  -3  -9   4 2456.47 437.883   1
  -3   9   4 2304.85 434.208   4
  -3   9   3 9553.62 817.652   4
  -3  -9   3 10668.0 846.686   1
   3  -9  -2 7619.55 519.980   1
  -3  -9   2 8374.74 724.904   1
   3  -9  -1 37453.0 1235.34   1
  -3  -9   1 39793.8 1562.97   1
  -3  -9   0 2210.12 365.266   1
   3  -9   0 2657.67 341.991   1
  -3  -9  -1 93296.3 2369.45   1
   3  -9   1 93064.1 2268.97   1
  -3  -9  -2 37341.7 1599.40   2
   3  -9   2 38192.7 1534.71   1
   3  -9   3 1577.19 337.963   1
  -3  -9  -3 1533.16 355.456   2
   3  -9   4 28589.5 1511.56   1
  -3  -9  -4 31826.2 1508.95   2
   3  -9   5 26991.4 1486.53   1
   3  -9   6 2260.66 462.665   1
   3   9   7 23735.7 577.829   6
  -3  -9  -7 23840.1 641.355   7
   3   9   8 13279.4 438.255   6
  -3  -9  -8 13445.1 515.565   7
   3  -9   8 13109.3 1165.77   1
   3  -9   9 4061.27 676.203   1
   3   9   9 4606.17 265.421   6
  -3  -9  -9 4557.45 317.584   7
  -3  -9 -10 1499.88 189.057   7
  -3  -9 -11 13773.1 560.053   7
  -3  -9 -12 1861.80 219.874   7
  -3  -9 -13 12959.2 523.816   7
  -3  -9 -14 602.778 121.629   7
  -3   9 -14 742.479 110.637  12
  -3  -9 -15-84.9912 53.5638   7
  -3   9 -15 64.4135 39.6787  12
  -3  -9 -16 8758.82 284.154   7
  -3  11  17 145.597 48.5978   6
   3 -11 -17 177.512 49.2872   7
  -3  11  16 5653.79 261.495   6
   3 -11 -16 4639.94 258.435   7
   3 -11 -15 91.2840 60.7141   7
  -3  11  15 44.8063 50.7259   6
  -3  11  14 272.381 82.5226   6
   3 -11 -14 290.423 90.5992   7
   3 -11 -13 3212.16 252.462   7
   3  11 -12 9174.26 436.164  11
   3 -11 -12 7560.21 393.754   7
   3  11 -11 2715.29 303.800  11
  -3 -11  10 7902.84 1013.44   1
   3  11 -10 9703.72 454.791  11
  -3  11  10 8943.68 1011.75   4
   3  11  -9 9265.53 431.183  11
  -3  11   9 8956.57 1012.54   4
  -3 -11   9 8425.63 1020.06   1
  -3  11   8 33736.3 1888.46   4
   3  11  -8 32039.8 789.083  11
  -3 -11   8 33615.0 1959.38   1
  -3 -11   7 11821.3 1163.88   1
   3  11  -7 12187.5 430.192   6
   3  11  -7 13056.3 480.987  11
  -3  11   7 12414.5 1131.33   4
  -3  11   6 52.8011 156.488   4
  -3 -11   6 111.605 121.611   1
   3  11  -6 71.5843 57.7135  11
   3  11  -6 31.2548 45.2499   6
  -3 -11   5 233.737 174.581   1
  -3 -11   4 21517.2 1369.56   1
  -3 -11   3 3775.80 573.298   1
  -3 -11   2 92112.4 2692.07   1
  -3 -11   1 26997.2 1448.87   1
   3 -11  -1 26706.5 1200.33   1
  -3 -11   0 253.510 174.397   1
   3 -11   0 299.789 150.823   1
   3 -11   1 13155.8 943.669   1
  -3 -11  -1 14362.1 1026.08   1
   3 -11   2 686.384 205.433   1
  -3 -11  -2 535.395 229.176   2
   3 -11   3 763.710 271.955   1
   3 -11   4 17162.4 1204.48   1
   3  11   4 16718.9 495.460   6
   3  11   5 36118.4 749.747   6
   3 -11   5 37384.8 1881.88   1
  -3  11  -5 36417.4 764.071  11
  -3  11  -6 52.1599 59.8028  11
   3  11   6 30.2773 55.4764   6
   3 -11   6 170.326 241.713   1
   3  11   7 6730.00 335.337   6
  -3  11  -7 6311.05 326.874  11
   3  11   8 20466.6 581.187   6
   3 -11   8 20864.2 1554.14   1
   3  11   9 706.708 118.050   6
  -3 -11 -10 313.164 77.3770   7
   3  11  10 404.438 90.0660   6
  -3 -11 -11 7319.42 371.805   7
  -3 -11 -12 641.822 125.783   7
  -3 -11 -13 3343.60 227.824   7
  -3  11 -13 4269.96 263.183  12
  -3  11 -14 2874.72 188.049  12
  -3 -11 -14 2566.48 179.588   7
  -3  11 -15 1703.98 121.870  12
   3  13 -17 107.733 34.1824  12
  -3  13  16 4038.92 191.033   6
  -3  13  15 85.7097 43.3144   6
  -3  13  14 1464.93 155.537   6
  -3  13  13 10111.7 408.673   6
  -3  13  12 3260.70 236.093   6
   3  13 -12 3287.07 247.867  11
   3  13 -11 2534.36 221.384  11
  -3  13  11 2812.88 234.173   6
   3  13 -10 9742.63 446.950  11
  -3  13  10 9013.55 409.600   6
   3  13  -9 295.304 92.6382  11
  -3  13   9 238.871 76.9244   6
  -3 -13   8 21202.2 1711.06   1
   3  13  -8 23405.5 697.136  11
  -3  13   8 21026.0 614.443   6
  -3 -13   7 18789.6 1519.58   1
   3  13  -7 18182.8 550.045   6
   3  13  -7 17152.2 589.885  11
  -3  13   7 17987.3 555.950   6
  -3  13   6 1411.87 160.729   6
   3  13  -6 1300.55 171.104  11
   3  13  -6 1486.87 159.326   6
  -3 -13   6 1183.19 340.278   1
   3  13  -5 21647.8 643.110  11
   3  13  -5 22001.5 598.164   6
  -3  13   5 21928.5 597.066   6
   3  13  -4 10783.1 471.848  11
  -3 -13   4 10528.2 1100.11   1
   3  13  -4 10716.9 413.757   6
  -3  13   4 9650.11 396.753   6
  -3  13   3 270.561 86.5985   6
  -3 -13   3 296.211 205.050   1
   3  13  -3 367.450 131.818   6
   3  13  -3 62.1518 52.7515  11
  -3  13   2 12359.0 427.003   6
   3  13  -2 12148.9 444.146   6
  -3 -13   1 6212.23 779.414   1
   3  13  -1 5276.53 295.881   6
  -3  13   1 6032.85 294.810   6
  -3 -13   0 1632.04 433.227   1
  -3  13   0 1097.85 127.021   6
   3  13   0 1575.66 167.696   6
   3  13   1 23286.1 618.682   6
   3 -13   1 25165.9 1433.94   1
   3  13   2 5036.08 299.319   6
  -3  13  -2 5692.80 286.036  12
   3 -13   2 5914.72 728.327   1
   3 -13   3 358.241 187.118   1
   3  13   3 407.734 96.9674   6
  -3  13  -3 497.908 97.0566  12
   3  13   4 30865.6 740.043   6
   3 -13   4 29506.8 1741.05   1
   3 -13   5 38443.1 2084.94   1
  -3  13  -5 35188.6 764.008  11
   3  13   5 38866.2 828.648   6
   3  13   6 9559.24 427.397   6
   3 -13   6 8943.80 1037.40   1
  -3  13  -6 8976.74 391.597  11
   3  13   7 117.908 58.1477   6
  -3  13  -7 152.473 63.2458  11
   3  13   8 2724.70 229.841   6
   3  13   9 3236.82 237.255   6
   3  13  10 8869.58 369.782   6
   3  13  11 2649.34 186.764   6
  -3  13 -11 3008.62 229.865  12
  -3  13 -12 11.3382 39.6859  12
  -3  13 -13 2658.24 187.406  12
  -3  13 -14 366.511 67.1311  12
  -3  15  15 46.6626 34.3151   6
  -3  15  14 4841.79 236.474   6
  -3  15  13 2934.08 207.734   6
  -3  15  12 2501.15 204.843   6
  -3  15  11 5018.00 300.415   6
   3  15 -11 5652.53 318.712  11
   3  15 -10 9566.44 430.417  11
  -3  15  10 9822.04 432.105   6
  -3  15   9 703.913 128.213   6
   3  15  -9 712.852 136.300  11
   3  15  -8 5765.51 349.128  11
  -3  15   8 6132.34 342.195   6
  -3  15   7 16098.5 552.719   6
   3  15  -7 16394.3 535.546   6
   3  15  -7 17673.6 606.655  11
   3  15  -6 195.582 78.9004  11
  -3  15   6 210.859 80.6903   6
   3  15  -6 159.471 77.4499   6
   3  15  -5 11996.4 498.290  11
   3  15  -5 11603.7 458.813   6
  -3  15   5 10988.9 450.655   6
   3  15  -4 16671.8 549.951   6
  -3 -15   4 17569.8 1511.99   1
  -3  15   4 17324.3 555.507   6
   3  15  -4 16107.0 577.010  11
  -3 -15   3 67.9052 138.130   1
   3  15  -3 80.1197 73.6410   6
  -3  15   3 103.477 66.7330   6
   3  15  -3 5.64577 61.6467  11
   3  15  -2 31018.1 792.183  11
  -3 -15   2 30939.7 1929.47   1
   3  15  -2 32201.0 768.452   6
  -3  15   2 32705.2 733.469   6
  -3  15   1 2326.48 201.809   6
   3  15  -1 2201.66 210.772   6
   3  15   0 156.857 102.822   6
  -3  15   0 42.2784 53.6338   6
   3  15   1 2444.43 225.409   6
  -3  15  -1 2446.07 199.219   6
   3  15   2 5848.08 337.064   6
  -3  15  -3 8035.79 353.434  12
   3  15   3 8505.79 408.035   6
  -3  15  -4 2369.72 201.108  12
   3  15   4 3091.84 266.158   6
  -3  15  -5 17981.3 552.901  12
   3  15   5 17840.7 584.163   6
   3  15   6 7968.61 394.647   6
  -3  15  -6 8266.50 391.693  12
  -3  15  -6 7625.14 345.587  11
   3  15   7 7622.77 379.536   6
  -3  15  -7 7832.98 372.588  12
  -3  15  -8 2480.94 205.970  12
   3  15   8 2838.04 224.868   6
   3  15   9 309.256 78.1987   6
  -3  15  -9 359.967 93.4376  12
   3  15  10 7042.35 304.428   6
  -3  15 -10 7621.46 339.323  12
  -3  15 -11 1537.45 148.030  12
   3  15  11 1281.34 115.297   6
  -3  15 -12 396.790 70.4224  12
  -3  15 -13 3548.53 170.927  12
  -3  17  14 678.048 74.7719   6
  -3  17  13 3696.38 193.672   6
  -3  17  12 101.894 44.6586   6
   3  17 -12 127.473 49.1748  12
  -3  17  11 2709.96 196.626   6
   3  17 -11 2345.58 184.141  11
  -3  17  10 8639.38 369.595   6
   3  17 -10 8950.74 371.092  11
   3  17  -9 265.488 80.0395  11
  -3  17   9 204.815 81.0913   6
   3  17  -8 9389.64 415.136  11
  -3  17   8 8243.50 390.662   6
  -3  17   7 7982.68 385.218   6
   3  17  -7 7860.23 392.602  11
  -3  17   6 5771.87 332.724   6
   3  17  -6 5268.91 303.450   6
   3  17  -6 5686.02 340.381  11
   3  17  -5 33.2754 64.8158   6
  -3  17   5 28.4304 52.0167   6
   3  17  -5-25.4670 74.0477  11
   3  17  -4 8032.12 382.386   6
   3  17  -4 8638.95 442.949  11
  -3  17   4 8016.67 385.557   6
  -3  17   3 7942.55 378.914   6
   3  17  -3 7717.97 399.138  11
   3  17  -3 7650.33 383.884   6
  -3  17   2 1344.81 170.267   6
   3  17  -2 1932.12 203.791  11
   3  17  -2 1546.38 181.713   6
   3  17  -1 1702.26 192.556   6
   3  17  -1 1728.68 192.732  11
  -3  17   1 1918.26 185.429   6
   3  17   0 1410.66 184.628   6
  -3  17   0 1264.67 150.817   6
   3  17   0 1520.41 178.792  11
  -3  17  -1 3465.20 234.795   6
   3  17   1 3641.17 272.947   6
   3  17   2 11174.1 469.708   6
   3  17   3 106.239 76.1545   6
   3  17   4 1905.39 199.960   6
   3  17   5 4379.28 293.174   6
  -3  17  -5 4355.14 250.917  12
   3  17   6 2788.60 219.113   6
  -3  17  -6 3062.09 211.271  12
  -3  17  -7 3399.01 219.671  12
   3  17   7 4011.71 259.386   6
   3  17   8 5178.51 275.636   6
  -3  17  -8 5529.91 271.547  12
  -3  17  -9 105.239 50.1600  12
   3  17   9 112.028 54.5122   6
   3  17  10 533.457 78.4988   6
  -3  17 -10 677.611 89.3982  12
  -3  17 -11 2638.32 144.646  12
  -3  19  12 991.668 82.9648   6
  -3  19  11 7097.98 260.698   6
  -3  19  10 9272.46 324.541   6
   3  19  -9 3039.60 191.570  11
  -3  19   9 3256.62 210.167   6
   3  19  -8 989.157 124.174  11
  -3  19   8 1198.08 135.448   6
  -3  19   7 1081.66 138.074   6
   3  19  -7 1192.15 141.002  11
  -3  19   6 297.845 81.4701   6
   3  19  -6 128.349 66.6811  11
   3  19  -5 10031.3 390.133   6
   3  19  -5 10593.5 422.746  11
  -3  19   5 9546.00 391.105   6
   3  19  -4 3430.99 236.145   6
  -3  19   4 3364.04 231.335   6
   3  19  -4 3111.69 233.244  11
   3  19  -3 2156.26 195.204   6
  -3  19   3 2383.56 195.304   6
   3  19  -3 2438.65 213.519  11
   3  19  -2 12663.9 469.553  11
  -3  19   2 12800.3 436.842   6
   3  19  -2 13243.6 474.564   6
   3  19  -1 5113.30 305.561  11
  -3  19   1 5175.26 279.756   6
   3  19  -1 5060.48 302.856   6
  -3  19   0 43.4618 52.6817   6
   3  19   0 60.7851 55.3688   6
   3  19   0-105.681 81.2061  11
   3  19   1 10170.0 414.689  11
   3  19   1 10762.5 438.032   6
   3  19   2 1582.62 167.222  11
   3  19   2 1804.26 181.477   6
   3  19   3 23.2908 49.9364   6
   3  19   3 67.5240 63.1402  11
   3  19   4 2620.94 213.833   6
   3  19   4 2417.02 194.749  11
   3  19   5 566.750 102.860   6
   3  19   6 1424.84 138.397   6
   3  19   7 4443.80 230.553   6
   3  19   8 3039.28 172.463   6
   3  19   9 183.537 45.8963   6
  -3  21   9 95.2411 32.1069   6
  -3  21   8 2867.32 157.851   6
   3  21  -8 2837.21 144.265  11
  -3  21   7 537.368 79.5291   6
   3  21  -7 378.367 64.7325  11
   3  21  -6 26.4742 32.3136  11
  -3  21   6 55.2100 35.4435   6
   3  21  -5 4710.11 225.544  11
  -3  21   5 5441.67 238.515   6
   3  21  -4 2180.57 157.741  11
  -3  21   4 2187.03 154.587   6
  -3  21   3 78.4528 55.0934   6
   3  21  -3 34.1778 43.2022   6
   3  21  -3-52.2416 54.0508  11
   3  21  -2 422.482 87.8208  11
   3  21  -2 273.650 79.2802   6
  -3  21   2 290.664 61.2315   6
  -3  21   1 1345.40 116.420   6
   3  21  -1 1375.97 136.962   6
   3  21  -1 1285.78 129.659  11
   3  21   0 658.169 100.881   6
   3  21   0 537.672 90.9280  11
   3  21   1 2104.08 158.166  11
   3  21   1 2708.62 192.297   6
   3  21   2 6154.30 277.874   6
   3  21   2 5119.48 237.714  11
   3  21   3 778.013 103.937   6
   3  21   3 615.164 83.8842  11
   3  21   4 2399.21 163.446   6
   3  21   5 3589.12 183.769   6
   3  21   6 181.863 49.2076   6
   3  23   0 169.535 43.9337   6
   3  23   1 716.785 73.8140   6
   4   0 -20 3010.62 167.424   7
   4   0 -19-3.61889 37.3030   7
   4   0 -18 1358.89 166.654   7
   4   0 -17-41.4506 51.7468   7
   4   0 -16 2217.29 250.743   7
   4   0 -15 52.7474 78.3055   7
  -4   0  14 6565.21 894.162   3
  -4   0  14 7473.51 345.447   9
  -4   0  13-12.1985 61.7992   9
  -4   0  13 33.0444 153.606   3
  -4   0  12 715.286 335.991   3
  -4   0  12 829.889 126.790   9
  -4   0  11-185.417 200.739   3
  -4   0  10 92118.7 2653.77   3
  -4   0   9 205.537 212.001   3
  -4   0   9 61.0200 71.8241   1
  -4   0   8 38574.9 1128.13   1
  -4   0   8 44192.8 1608.87   3
  -4   0   7-12.8065 55.4259   1
  -4   0   7 186.429 144.218   3
  -4   0   6 15130.9 819.998   3
  -4   0   6 14312.3 612.248   1
  -4   0   5 92.7063 124.163   3
  -4   0   5 42.3493 70.7095   1
  -4   0   4 1604.52 279.606   1
  -4   0   4 1941.77 352.999   3
  -4   0   3 159.391 95.6305   3
  -4   0   3-5.78038 63.1890   1
  -4   0   2 40294.9 849.025   3
  -4   0   1 38.7383 63.4000   2
  -4   0   0 202039. 1350.33   4
  -4   0   0 221788. 2623.87   2
  -4   0  -1 43.3984 85.5820   2
  -4   0  -2 73969.1 1815.94   2
  -4   0  -3 216.452 152.425   2
  -4   0  -4 350627. 4656.83   2
  -4   0  -5 125.165 107.277   2
  -4   0  -6 44161.2 1843.02   2
  -4   0  -7 4.87587 100.471   2
  -4   0  -8 2229.77 485.464   2
  -4   0  -9-67.3424 167.002   2
  -4   0  -9 151.734 75.3833   7
  -4   0 -10 72.6063 50.8056   7
  -4   0 -11-19.7491 66.7380   7
  -4   0 -12 8097.85 448.765   7
  -4   0 -13 62.9333 61.8417   7
  -4   0 -14 19409.5 641.936   7
  -4   0 -15 46.4995 51.9878   7
  -4   0 -16 429.954 87.9833   7
  -4   0 -17 95.7046 40.9589   7
   4  -2 -20 58.8858 40.7709   7
   4   2 -19 1546.00 137.681   7
   4  -2 -19 1238.72 144.322   7
   4  -2 -18 1021.55 150.831   7
   4   2 -18 858.541 133.517   7
   4   2 -17 1018.30 149.668   7
   4  -2 -17 1029.82 163.173   7
   4   2 -16 507.870 121.602   7
   4  -2 -16 812.391 156.871   7
   4   2 -15 6626.44 415.211   7
   4  -2 -15 6045.54 431.984   7
  -4  -2  14 192.700 75.8113   9
  -4   2  14 146.548 78.6328   9
  -4  -2  14 191.520 238.657   3
   4   2 -14 97.2453 95.2867   7
  -4  -2  13 8624.20 369.218   9
  -4   2  13 8694.37 365.846   9
  -4   2  12 1224.96 143.901   9
  -4  -2  12 1539.67 164.352   9
  -4  -2  12 1549.30 385.865   3
  -4   2  12 1437.99 414.155   3
  -4   2  11 15983.4 1202.90   3
  -4  -2  11 15320.3 1203.82   3
  -4   2  10 2936.07 486.162   3
  -4  -2  10 3054.28 409.103   1
  -4  -2   9 21474.5 1048.46   1
  -4   2   9 24367.5 1287.62   3
  -4   2   8 783.559 243.880   3
  -4  -2   8 829.201 195.673   1
  -4   2   7 242.120 72.4384   1
  -4   2   7 316.110 147.007   3
  -4  -2   7 279.933 138.820   1
  -4  -2   6 1117.59 224.989   1
  -4   2   6 1326.65 268.701   3
  -4   2   5 60657.2 1511.34   3
  -4  -2   5 59934.9 1400.51   1
  -4  -2   4 7355.32 489.560   1
  -4   2   4 7559.73 508.559   3
  -4  -2   3 988111. 5484.82   1
  -4   2   3 999999. 3894.17   2
  -4  -2   2 356.765 170.539   1
  -4   2   2 408.077 108.114   2
  -4   2   1 9703.18 520.988   2
  -4   2   1 8001.41 470.594   4
  -4   2   0 563.721 182.567   2
  -4  -2   0 421.842 61.3007   3
  -4  -2   0 630.932 226.705   2
  -4   2   0 534.213 157.286   4
  -4  -2  -1 37288.7 1229.09   2
  -4   2  -1 35081.8 1138.72   2
  -4  -2  -2 1118.31 237.246   2
  -4   2  -2 1261.96 259.604   2
  -4  -2  -3 136595. 2689.30   2
  -4   2  -3 136829. 2724.77   2
  -4  -2  -4 16.8929 104.209   2
  -4   2  -4 31.9552 93.2906   2
  -4  -2  -5 39660.9 1659.56   2
  -4   2  -5 37783.5 1633.34   2
  -4  -2  -6 5982.97 682.749   2
  -4   2  -6 5469.79 660.731   2
  -4  -2  -7 9417.33 901.240   2
  -4   2  -7 9819.43 937.923   2
  -4  -2  -8 5825.97 323.305   7
  -4  -2  -8 6396.45 783.824   2
  -4   2  -8 6233.30 791.088   2
  -4   2  -9 54512.0 1012.91   7
  -4  -2  -9 52609.7 1045.24   7
  -4  -2 -10 264.412 151.596   2
  -4  -2 -10 165.901 70.5890   7
  -4   2 -10 214.749 73.6020   7
  -4   2 -11 9096.30 454.696   7
  -4  -2 -11 9884.12 492.800   7
  -4  -2 -12 64.1185 62.1726   7
  -4   2 -12 39.2739 71.4343   7
  -4  -2 -13 957.909 168.542   7
  -4   2 -13 877.193 154.269   7
  -4   2 -14 1110.56 145.299   7
  -4  -2 -14 1003.48 160.084   7
  -4  -2 -15 18116.1 577.109   7
  -4   2 -15 18150.8 531.996   7
  -4  -2 -16 285.122 66.2228   7
  -4   2 -16 487.239 96.0826   7
  -4  -2 -17 6204.02 239.914   7
   4  -4 -20 4424.82 214.339   7
   4  -4 -19 304.973 79.3384   7
   4  -4 -18 3763.74 278.538   7
   4   4 -17 2441.51 214.082   7
   4  -4 -17 2721.74 260.143   7
   4   4 -16 6475.73 361.829   7
   4  -4 -16 7389.77 451.841   7
   4   4 -15 805.211 150.164   7
   4  -4 -15 990.902 185.696   7
  -4  -4  15 962.607 126.695   9
  -4  -4  14 3691.21 240.762   9
   4   4 -14 3147.13 274.733   7
  -4  -4  14 3406.52 646.883   3
  -4  -4  13 1642.24 436.864   3
  -4  -4  13 1984.65 205.962   9
  -4  -4  12 46054.1 829.540   9
  -4  -4  12 47320.3 886.267   8
  -4   4  12 46537.6 825.736   9
  -4  -4  11 372.929 223.286   1
  -4   4  11 183.491 78.0452   9
  -4  -4  11 255.104 92.4315   8
   4   4 -11 176.799 73.2171  11
  -4  -4  10 27454.7 1398.37   1
  -4  -4   9 4158.07 526.451   1
  -4  -4   8 1657.48 319.398   1
  -4  -4   7 1302.37 272.120   1
  -4  -4   6 72293.5 1860.86   1
  -4  -4   5 18607.5 925.062   1
  -4  -4   4 74954.5 1768.38   1
  -4  -4   3 16578.9 812.017   1
  -4  -4   2 16442.8 811.632   1
  -4   4   2 16020.8 521.529   2
  -4   4   2 15064.9 714.142   4
  -4   4   1 819.206 165.787   2
  -4  -4   1 929.524 218.471   1
  -4   4   1 911.298 201.774   4
  -4  -4   0 37254.7 1250.54   1
  -4   4   0 37755.0 1107.86   2
  -4  -4  -1 443.034 201.708   2
  -4   4  -1 352.839 168.991   2
  -4   4  -2 27003.1 1131.20   2
  -4  -4  -2 28249.8 1224.57   2
  -4  -4  -3 743.773 236.056   2
  -4   4  -3 644.045 222.103   2
  -4   4  -4 88263.3 2400.75   2
  -4  -4  -4 92289.3 2439.54   2
  -4  -4  -5 5637.39 634.451   2
  -4   4  -5 5536.43 643.426   2
  -4  -4  -6 21950.4 1349.44   2
  -4   4  -6 19908.4 1295.36   2
  -4  -4  -7 5134.63 675.501   2
  -4  -4  -8 17040.6 1285.34   2
  -4  -4  -8 17120.2 575.706   7
  -4  -4  -9 1200.69 350.141   2
  -4  -4  -9 905.469 140.669   7
  -4   4  -9 1103.20 145.953   7
   4  -4  10 100.692 133.381   1
  -4   4 -10 395.331 85.1504   7
  -4  -4 -10 298.317 117.366   7
  -4  -4 -11 7463.27 425.282   7
  -4   4 -11 6582.21 362.257   7
  -4   4 -12 49737.6 996.663   7
  -4  -4 -12 52077.4 1139.36   7
  -4   4 -13 4659.99 263.595  12
  -4   4 -13 4261.30 284.361   7
  -4  -4 -13 4796.58 345.840   7
  -4   4 -14 19738.7 555.079   7
  -4  -4 -14 20666.8 670.960   7
  -4  -4 -15 1499.99 174.521   7
  -4  -4 -16 42.1773 40.1237   7
  -4  -4 -17 584.629 73.8815   7
   4  -6 -19 6.16849 38.5133   7
   4  -6 -18 54.4946 50.8925   7
   4  -6 -17 144.364 73.9419   7
   4  -6 -16 92.6701 88.5101   7
   4  -6 -15 16400.7 656.328   7
  -4  -6  14 646.091 107.976   9
   4  -6 -14 462.770 130.318   7
  -4  -6  13 24796.0 655.109   8
  -4  -6  13 24367.7 601.581   9
  -4  -6  12 2404.71 188.325   9
  -4  -6  12 1975.30 496.922   1
  -4  -6  12 2261.92 202.877   8
   4   6 -12 2561.67 216.256  11
  -4  -6  11 18062.4 536.457   8
  -4  -6  11 17727.9 494.776   9
  -4  -6  10 804.069 280.010   1
   4   6 -10 520.094 92.5290  11
  -4  -6   9 33911.4 1649.67   1
  -4  -6   8 686.013 223.562   1
  -4  -6   7 17814.9 1102.51   1
  -4  -6   6 10146.1 801.998   1
  -4  -6   5 51145.2 1703.82   1
  -4  -6   4 14327.0 875.778   1
   4  -6  -4 12370.3 343.355   1
  -4   6   4 13715.5 838.111   4
   4  -6  -3 354.467 106.656   1
  -4   6   3 377.011 151.714   4
  -4  -6   3 184.736 108.032   1
  -4   6   2 845.381 225.507   4
  -4  -6   2 841.557 234.590   1
  -4   6   1 14229.6 805.143   4
  -4  -6   1 14512.5 842.103   1
  -4  -6   0 573.029 202.173   1
  -4  -6  -1 10973.1 817.331   2
  -4  -6  -2 290.483 160.751   2
  -4  -6  -3 552.354 256.351   2
  -4  -6  -4 516.498 220.371   2
  -4  -6  -5 32290.9 1571.05   2
  -4  -6  -6 176.469 143.139   2
  -4  -6  -7 17458.7 1288.61   2
  -4  -6  -7 15847.2 532.831   7
   4  -6   8 3468.61 572.620   1
  -4  -6  -8 3437.95 572.961   2
  -4  -6  -8 3131.62 251.224   7
  -4  -6  -9 6575.06 375.330   7
   4  -6   9 5934.77 788.323   1
   4  -6  10 215.940 123.067   1
  -4  -6 -10 344.733 115.109   7
  -4  -6 -11 20282.4 714.991   7
  -4  -6 -12 379.107 121.096   7
  -4   6 -13 2348.30 198.144  12
  -4  -6 -13 2335.06 234.496   7
  -4  -6 -14 6833.71 376.928   7
  -4   6 -14 6187.58 285.042  12
  -4  -6 -15 16976.7 524.627   7
  -4  -6 -16 342.412 70.0334   7
   4  -8 -19-103.952 42.4628   7
   4  -8 -18 5589.14 291.492   7
  -4   8  18 5947.30 234.239   6
   4  -8 -17 644.342 127.802   7
   4  -8 -16 102.211 74.8088   7
   4  -8 -15 1382.33 202.407   7
   4  -8 -14 1367.21 201.699   7
  -4  -8  13 1620.88 173.089   8
   4  -8 -13 1572.54 220.127   7
  -4  -8  12 63838.5 2730.79   1
  -4  -8  12 68632.9 1078.76   8
  -4   8  12 68107.8 2827.69   4
  -4  -8  11 4271.13 268.623   8
  -4   8  11 3920.65 653.503   4
  -4  -8  11 3805.63 703.866   1
   4   8 -11 4454.83 290.775  11
  -4  -8  10 11057.6 1084.68   1
   4   8 -10 10903.9 442.324  11
  -4  -8  10 10299.4 398.407   8
  -4   8  10 10829.0 1048.85   4
  -4  -8   9 3380.13 589.448   1
   4   8  -9 3155.73 242.988  11
  -4   8   9 3764.21 609.801   4
  -4   8   8 9939.29 941.980   4
  -4  -8   8 9833.33 945.895   1
  -4  -8   7 1451.57 376.703   1
  -4   8   7 1315.61 326.528   4
  -4   8   6 30020.0 1499.63   4
  -4  -8   6 30824.0 1547.44   1
  -4   8   5 5218.60 604.490   4
  -4  -8   5 5179.80 623.479   1
  -4   8   4 32951.8 1502.59   4
  -4  -8   4 34195.8 1498.98   1
  -4   8   3 4041.42 508.079   4
   4  -8  -3 3841.85 319.871   1
  -4  -8   3 4283.70 539.404   1
  -4  -8   2 7358.18 690.757   1
   4  -8  -2 7796.30 518.418   1
  -4   8   2 7676.19 689.050   4
  -4  -8   1 1250.38 293.373   1
   4  -8  -1 1083.92 240.065   1
   4  -8   0 83049.2 1963.14   1
  -4  -8   0 84867.8 2281.29   1
  -4  -8  -1 4773.03 556.208   1
  -4  -8  -1 4116.70 577.109   2
  -4  -8  -2 2323.41 419.032   2
  -4  -8  -3 555.861 227.513   2
  -4  -8  -4 25589.4 1422.20   2
   4  -8   5 9256.14 877.851   1
  -4  -8  -5 8852.49 853.969   2
  -4  -8  -6 54419.5 2164.13   2
   4  -8   6 50987.7 2190.11   1
  -4  -8  -7 121.916 73.8780   7
   4  -8   7 270.777 133.982   1
  -4  -8  -8 32652.0 812.614   7
   4  -8   8 27200.3 1723.36   1
  -4  -8  -9 1992.44 226.600   7
   4  -8   9 1489.02 420.238   1
  -4  -8 -10 6143.25 376.159   7
  -4  -8 -11 3528.71 295.023   7
  -4  -8 -12 23817.3 743.389   7
  -4   8 -13 2441.92 202.516  12
  -4  -8 -13 2216.10 220.726   7
  -4  -8 -14 6006.26 327.016   7
  -4   8 -14 6233.91 284.944  12
  -4   8 -15 962.785 96.1842  12
  -4  -8 -15 1423.88 138.194   7
  -4  -8 -16 280.608 54.1903   7
  -4  10  18 913.317 88.0103   6
   4 -10 -18 702.165 85.7574   7
  -4  10  17 3171.41 186.289   6
   4 -10 -17 2772.42 199.238   7
  -4  10  16 962.846 114.602   6
   4 -10 -16 675.328 125.913   7
   4 -10 -15 2949.89 241.817   7
   4 -10 -14 998.939 159.222   7
   4 -10 -13 528.440 144.606   7
   4  10 -12 3904.72 275.698  11
   4 -10 -12 3459.47 288.650   7
  -4 -10  11 1449.81 427.335   1
   4  10 -11 2478.42 233.124  11
   4 -10 -11 1845.78 221.372   7
  -4  10  11 2130.33 528.141   4
   4  10 -10 1275.14 198.134  11
  -4  10  10 729.659 311.117   4
  -4 -10  10 405.844 254.540   1
  -4  10   9 41303.5 2158.60   4
  -4 -10   9 39043.2 762.816   8
   4  10  -9 40400.3 884.309  11
  -4 -10   9 37827.4 2111.10   1
   4  10  -8 644.852 115.176  11
  -4 -10   8 613.946 95.5540   8
  -4 -10   8 1046.23 391.938   1
  -4  10   8 995.068 351.134   4
  -4  10   7 315.537 227.708   4
   4  10  -7 204.557 82.3172  11
   4  10  -7 224.006 73.5878   6
  -4 -10   7 239.135 159.334   1
  -4  10   6 15189.4 1180.90   4
  -4 -10   6 15735.5 1224.21   1
  -4  10   5 2677.51 498.596   4
  -4 -10   5 2649.29 477.476   1
  -4 -10   4 239.030 159.061   1
  -4  10   4 325.763 244.969   4
  -4 -10   3 46331.0 1921.70   1
   4 -10  -2 10527.8 662.411   1
  -4 -10   2 11512.3 949.358   1
  -4 -10   1 44081.4 1802.22   1
   4 -10  -1 42881.9 1448.25   1
   4 -10   0 18859.1 1022.88   1
  -4 -10   0 19143.1 1193.09   1
   4 -10   1 8782.64 735.545   1
  -4 -10  -1 7638.19 768.379   1
  -4 -10  -1 7195.50 802.129   2
   4 -10   2-15.2623 142.537   1
  -4 -10  -2-115.748 176.537   2
  -4 -10  -3 68852.1 2411.26   2
   4 -10   3 72724.8 2383.40   1
   4 -10   4 4961.47 641.884   1
  -4 -10  -4 4774.79 657.549   2
   4  10   5 3020.59 215.956   6
   4 -10   5 2369.84 489.183   1
   4 -10   6 3427.64 596.446   1
   4  10   6 3040.96 214.061   6
   4  10   7 9450.86 385.247   6
   4 -10   7 9141.57 1022.13   1
  -4 -10  -8 359.868 86.9752   7
   4 -10   8 313.909 193.354   1
  -4 -10  -9 493.833 108.568   7
  -4 -10 -10 873.376 155.020   7
  -4 -10 -11 1730.55 206.038   7
  -4 -10 -12 2112.56 205.086   7
  -4  10 -12 2571.50 217.236  12
  -4  10 -13 1499.28 146.546  12
  -4 -10 -13 1319.29 156.335   7
  -4 -10 -14 1052.39 114.329   7
  -4  10 -14 1157.54 119.429  12
  -4  10 -15 7890.32 239.859  12
  -4 -10 -15 7215.03 244.072   7
  -4  12  17 303.936 59.9083   6
  -4  12  16 3564.54 205.719   6
  -4  12  15 156.515 55.3194   6
   4 -12 -15 73.5828 54.0188   7
  -4  12  14 6953.28 339.459   6
  -4  12  13 273.675 69.4569   6
   4  12 -12 9456.68 432.258  11
   4  12 -11 304.249 95.5615  11
  -4  12  10 1745.53 472.638   4
   4  12 -10 2659.00 285.702  11
  -4 -12   9 948.619 390.788   1
   4  12  -9 1483.19 187.070  11
  -4  12   9 1139.68 389.511   4
  -4  12   8 13366.9 1257.73   4
  -4 -12   8 12148.9 1249.88   1
   4  12  -8 13720.6 534.079  11
   4  12  -7 98.4114 72.2583   6
  -4  12   7 69.9931 53.9963   6
  -4  12   7 90.8293 222.764   4
  -4 -12   7 99.2892 169.439   1
   4  12  -7 18.8456 56.5423  11
  -4  12   6 4585.45 267.678   6
   4  12  -6 5069.10 288.930   6
   4  12  -6 5315.11 316.504  11
  -4 -12   6 4683.79 742.995   1
   4  12  -5 4011.03 268.686  11
  -4  12   5 3862.71 239.322   6
   4  12  -5 4295.63 256.837   6
  -4 -12   5 4729.54 711.520   1
  -4  12   4 44950.9 790.621   6
   4  12  -4 45975.3 884.133  11
   4  12  -4 46630.7 844.788   6
  -4 -12   3 11720.2 1086.54   1
   4  12  -3 9867.10 387.653   6
  -4 -12   2 23054.2 1492.92   1
   4  12  -2 21658.9 571.332   6
  -4 -12   1 1428.60 382.339   1
   4  12  -1 1740.49 167.429   6
   4  12   0 62664.9 971.002   6
   4 -12   0 65273.1 2114.64   1
  -4 -12   0 64136.1 2448.67   1
   4 -12   1 144.121 100.618   1
  -4 -12  -1-17.9737 136.768   2
   4  12   1 234.502 89.0484   6
   4  12   2 26058.9 638.560   6
  -4  12  -2 25022.0 591.098  12
   4 -12   2 26130.8 1449.18   1
   4 -12   3 192.281 230.185   1
  -4  12  -3 473.925 99.9432  12
   4  12   3 243.915 91.0934   6
   4 -12   4 27106.6 1629.54   1
   4  12   4 27248.9 668.300   6
   4  12   5 3842.12 259.168   6
   4 -12   5 3603.34 634.725   1
   4 -12   6 23705.4 1637.43   1
   4  12   6 24377.3 646.988   6
   4  12   7 3367.64 243.194   6
   4  12   8 2435.91 208.244   6
   4  12   9 5052.33 281.509   6
  -4  12 -10 8148.21 392.940  12
  -4  12 -11-8.98571 47.5768  12
  -4  12 -12 6201.32 302.258  12
  -4  12 -13 59.2545 31.2310  12
  -4  12 -14 3375.31 169.755  12
  -4  14  16 212.035 46.2845   6
  -4  14  15 5595.86 249.424   6
  -4  14  14 975.479 124.353   6
  -4  14  13 289.946 87.7312   6
  -4  14  12 40.9284 53.1618   6
   4  14 -12 118.336 76.6966  11
  -4  14  11 6057.85 335.421   6
   4  14 -11 6467.20 350.656  11
   4  14 -10 211.184 86.4449  11
  -4  14  10 444.087 119.089   6
  -4  14   9 16323.8 551.151   6
   4  14  -9 17032.1 595.104  11
  -4  14   8 1117.64 146.517   6
   4  14  -8 1264.07 170.662  11
   4  14  -7 200.210 88.5728  11
  -4  14   7 88.5102 75.0652   6
   4  14  -7 270.677 103.270   6
  -4  14   6 3979.28 271.932   6
   4  14  -6 3433.53 271.250  11
  -4 -14   6 4598.56 776.455   1
   4  14  -6 4109.51 270.222   6
  -4 -14   5 27493.1 1881.28   1
   4  14  -5 26995.6 749.283  11
  -4  14   5 25924.8 664.958   6
   4  14  -5 26784.8 683.954   6
   4  14  -4 1772.22 211.374  11
  -4  14   4 1917.81 178.068   6
   4  14  -4 1823.96 186.383   6
  -4 -14   4 2165.41 531.200   1
  -4 -14   3 45097.2 2354.67   1
  -4  14   3 46447.8 852.020   6
   4  14  -3 46780.7 955.498  11
   4  14  -3 46388.8 895.795   6
  -4  14   2 122.001 70.1962   6
  -4 -14   2-8.02944 112.941   1
   4  14  -2 69.1368 66.3364   6
   4  14  -1 4084.28 268.834   6
  -4  14   1 3624.10 237.231   6
  -4 -14   1 3644.40 673.564   1
   4  14   0 624.962 125.650   6
   4  14   1 162.611 93.2549   6
   4  14   2 5026.84 360.744   6
  -4  14  -2 5296.15 284.955  12
   4  14   3 84555.8 1241.96   6
   4 -14   3 85598.0 3005.27   1
  -4  14  -3 82635.0 1165.47  12
   4  14   4 359.596 107.237   6
  -4  14  -4 186.556 73.9534  12
   4 -14   4 529.013 245.994   1
   4  14   5 135.784 83.7447   6
  -4  14  -5 234.452 91.3374  12
  -4  14  -6 182.970 72.6789  12
   4  14   6 215.792 80.3443   6
  -4  14  -7 14.5577 56.8397  12
   4  14   7 90.2899 57.6323   6
   4  14   8 2684.66 217.018   6
  -4  14  -8 2706.39 224.590  12
  -4  14  -9 11118.8 439.300  12
   4  14   9 10270.3 386.226   6
  -4  14 -10 290.672 75.5571  12
  -4  14 -11 5165.24 274.016  12
  -4  14 -12 943.063 106.790  12
  -4  14 -13 2851.15 153.804  12
  -4  16  15 41.3308 25.4623   6
  -4  16  14 2500.14 163.871   6
  -4  16  13 110.462 64.5056   6
  -4  16  12 14579.2 463.964   6
   4  16 -12 15005.2 465.487  11
  -4  16  11 390.589 90.5437   6
   4  16 -11 269.857 90.4538  11
   4  16 -10 2503.93 214.483  11
  -4  16  10 2206.62 202.323   6
   4  16  -9 421.449 116.489  11
  -4  16   9 552.780 102.675   6
  -4  16   8 10102.6 431.241   6
   4  16  -8 9965.18 452.017  11
  -4  16   7 3083.39 242.776   6
   4  16  -7 2958.81 250.699  11
  -4  16   6 9469.59 420.547   6
   4  16  -6 10092.4 464.605  11
   4  16  -6 10061.8 428.933   6
  -4  16   5 156.315 68.3139   6
   4  16  -5 156.600 67.3388   6
   4  16  -5 190.933 99.5089  11
   4  16  -4 1065.59 154.569   6
  -4  16   4 864.690 136.876   6
   4  16  -4 773.783 145.303  11
   4  16  -3 6031.07 352.824  11
   4  16  -3 6957.97 367.142   6
  -4  16   3 6784.56 344.506   6
  -4  16   2 3342.75 241.300   6
   4  16  -2 3050.24 241.684   6
   4  16  -2 3249.29 261.278  11
   4  16  -1 865.585 150.890   6
  -4  16   1 814.479 121.850   6
   4  16   0 19479.2 609.462   6
   4  16   1 206.424 88.2515   6
   4  16   2-64.5301 84.9198   6
  -4  16  -3 358.713 82.3245  12
   4  16   3 521.863 116.495   6
   4  16   4 40.1980 62.3802   6
  -4  16  -4 3.53895 42.5295  12
   4  16   5 956.590 137.058   6
  -4  16  -5 477.944 89.7841  12
  -4  16  -6 19019.0 551.182  12
   4  16   6 18982.1 573.241   6
   4  16   7 1184.92 146.030   6
  -4  16  -7 1449.37 155.620  12
  -4  16  -8 4594.49 260.822  12
   4  16   8 4207.28 244.734   6
   4  16   9 1783.98 144.828   6
  -4  16  -9 1715.05 153.003  12
  -4  16 -10 1423.44 132.149  12
  -4  16 -11 241.557 54.6389  12
  -4  16 -12 1586.33 102.297  12
  -4  18  13 5582.28 209.340   6
  -4  18  12 1.85757 38.5327   6
  -4  18  11 8675.64 323.819   6
   4  18 -11 8462.33 314.605  11
  -4  18  10 1257.94 137.236   6
   4  18 -10 945.646 113.705  11
  -4  18   9 16347.8 492.200   6
   4  18  -9 16729.1 508.242  11
  -4  18   8 609.824 107.907   6
   4  18  -8 690.367 120.148  11
  -4  18   7 1282.11 149.343   6
   4  18  -7 1472.68 167.700  11
  -4  18   6 162.307 67.2769   6
   4  18  -6 5.06333 72.0533  11
   4  18  -6 153.560 76.3589   6
   4  18  -5 6738.17 346.041   6
   4  18  -5 6974.66 372.698  11
  -4  18   5 6872.37 339.504   6
   4  18  -4 92.7273 60.4625   6
   4  18  -4 21.2244 78.6846  11
  -4  18   4 77.6097 50.7098   6
  -4  18   3 8232.50 361.796   6
   4  18  -3 8386.15 389.928   6
   4  18  -3 8527.52 411.240  11
   4  18  -2 489.337 116.500  11
  -4  18   2 538.135 97.1419   6
   4  18  -2 576.910 114.961   6
   4  18  -1 6222.21 352.918  11
   4  18  -1 6583.26 353.241   6
  -4  18   1 6331.32 305.739   6
   4  18   0 2057.29 207.707   6
   4  18   0 2218.52 219.050  11
   4  18   1 7816.60 383.359   6
   4  18   1 7589.69 376.506  11
   4  18   2 480.170 114.339   6
   4  18   3 9273.36 405.432   6
   4  18   4 194.698 81.3645   6
   4  18   5 5592.19 300.026   6
  -4  18  -5 6029.79 261.674  12
   4  18   6 258.327 74.6553   6
  -4  18  -6 249.451 58.5987  12
  -4  18  -7 696.081 91.9719  12
   4  18   7 574.571 95.2855   6
   4  18   8 39.3606 37.3801   6
  -4  18  -8 80.3520 31.6957  12
   4  18   9 2774.78 133.891   6
  -4  18  -9 5321.93 199.363  12
  -4  20  10 585.562 76.0190   6
   4  20  -9 6.41643 43.6343  11
  -4  20   9 76.2322 44.2238   6
   4  20  -8 420.631 76.1019  11
  -4  20   8 411.557 78.8336   6
  -4  20   7 95.0098 56.0428   6
   4  20  -7-5.19855 44.3140  11
  -4  20   6 12408.9 388.422   6
   4  20  -6 12523.6 410.084  11
   4  20  -5 143.007 61.8201  11
  -4  20   5 141.845 57.6530   6
  -4  20   4 1370.66 132.678   6
   4  20  -4 1655.56 160.001  11
   4  20  -4 1654.14 156.873   6
   4  20  -3 4359.66 257.548   6
   4  20  -3 3892.81 244.152  11
  -4  20   3 4403.29 229.513   6
  -4  20   2 3726.27 206.610   6
   4  20  -2 3453.16 232.873   6
   4  20  -2 3422.76 232.245  11
   4  20  -1-39.3134 59.8929   6
   4  20  -1 25.7071 61.9699  11
   4  20   0 7448.95 347.465   6
   4  20   0 6857.41 324.051  11
   4  20   1 1885.26 169.735   6
   4  20   1 1968.61 177.187  11
   4  20   2 1210.44 143.600   6
   4  20   2 1022.92 127.001  11
   4  20   3 17.2620 69.9043   6
   4  20   3 41.1196 45.0481  11
   4  20   4 845.270 107.658   6
   4  20   4 578.994 88.1967  11
   4  20   5 2684.22 172.641   6
   4  20   5 2200.47 150.730  11
   4  20   6 4878.57 212.007   6
   4  20   6 5074.42 203.852  11
   4  20   7 235.045 52.6538   6
   4  22  -5 330.311 55.4131  11
   4  22  -4 145.025 48.6197  11
   4  22  -3 5724.98 243.096  11
   4  22  -2 49.6520 30.1242  11
   4  22  -2 41.1096 34.3447   6
   4  22  -1 9242.32 300.557   6
   4  22  -1 8279.19 266.961  11
   4  22   0 183.274 47.1335   6
   4  22   0 95.1845 45.1923  11
   4  22   1 919.069 96.7515   6
   4  22   2 223.907 47.0809   6
   4  22   3 5326.48 201.671   6
   5  -1 -20 1795.42 144.501   7
   5   1 -20 1667.24 124.405   7
   5  -1 -19 4123.32 254.753   7
   5   1 -19 3531.01 230.066   7
   5  -1 -18 508.624 115.160   7
   5   1 -18 369.324 93.4760   7
   5   1 -17 4956.36 341.544   7
   5  -1 -17 5281.84 360.399   7
   5   1 -16 7510.60 447.864   7
   5  -1 -16 7781.09 469.096   7
  -5   1  15 1234.67 150.657   9
  -5  -1  15 1179.29 150.247   9
  -5   1  14 7073.91 344.503   9
  -5  -1  14 6320.33 869.304   3
  -5  -1  14 7200.47 344.362   9
  -5  -1  13 8197.36 364.920   9
  -5  -1  13 7847.29 935.860   3
  -5   1  13 7662.56 361.758   9
  -5   1  13 7282.59 923.501   3
  -5   1  12 3054.13 226.637   9
  -5  -1  12 3282.71 225.502   9
  -5  -1  12 3495.09 600.396   3
  -5   1  12 3714.72 641.503   3
  -5  -1  12 3035.45 231.423   8
  -5   1  11 20433.5 1365.49   3
  -5  -1  11 20099.2 1351.70   3
  -5   1  10 14324.9 1072.43   3
  -5  -1  10 14566.0 1072.80   3
  -5  -1  10 12955.6 792.938   1
  -5  -1   9 211.155 136.553   3
  -5   1   9 62.1077 164.501   3
  -5  -1   9 130.851 95.1967   1
  -5   1   8 469.287 229.264   3
  -5  -1   8 576.676 274.993   3
  -5  -1   8 250.541 141.980   1
  -5   1   8 304.878 113.655   1
  -5  -1   7 1191.18 240.662   1
  -5   1   7 1168.18 197.572   1
  -5   1   7 1386.35 476.324   3
  -5   1   6 14152.0 807.627   3
  -5  -1   6 14419.4 729.424   1
  -5   1   6 13028.5 608.549   1
  -5  -1   5 33183.3 1082.37   1
  -5   1   5 34651.6 1154.50   3
  -5  -1   4 27461.3 970.244   1
  -5   1   4 26336.8 955.173   3
  -5  -1   3 250400. 3027.75   1
  -5  -1   3 247227. 2539.97   3
  -5   1   2 257572. 2796.98   2
  -5  -1   2 249510. 2178.91   3
  -5  -1   1 72518.5 1694.24   2
  -5   1   1 74672.1 1602.28   2
  -5  -1   0 1727.31 316.118   2
  -5   1   0 1563.62 163.385   4
  -5   1   0 1664.23 276.586   2
  -5   1  -1 41791.2 1405.69   2
  -5  -1  -1 42263.9 1452.57   2
  -5  -1  -2 25397.3 1190.27   2
  -5   1  -2 24573.1 1157.82   2
  -5   1  -3 35193.6 1495.59   2
  -5  -1  -3 35854.6 1510.79   2
  -5  -1  -4 48482.4 1848.92   2
  -5   1  -4 48663.5 1893.96   2
  -5  -1  -5 11183.1 969.562   2
  -5   1  -5 11093.4 940.162   2
  -5   1  -6 805.764 256.064   2
  -5  -1  -6 479.183 213.808   2
  -5   1  -7 8071.69 882.389   2
  -5  -1  -7 7601.06 862.598   2
  -5   1  -8 57871.2 1043.29   7
  -5  -1  -8 62806.3 2618.90   2
  -5   1  -8 64103.3 2672.44   2
  -5  -1  -8 59059.7 1067.01   7
  -5  -1  -9 373.731 202.179   2
  -5   1  -9 352.575 204.933   2
  -5  -1  -9 352.164 92.1031   7
  -5   1  -9 345.277 100.478   7
  -5   1 -10 13037.4 537.276   7
  -5  -1 -10 13989.8 1348.98   2
  -5  -1 -10 13801.4 564.783   7
  -5   1 -11 6865.55 397.280   7
  -5  -1 -11 6415.26 400.951   7
  -5   1 -12 16.2650 68.6579   7
  -5  -1 -12-41.3572 71.8413   7
  -5  -1 -13 20375.1 678.093   7
  -5   1 -13 20224.7 662.246   7
  -5   1 -14 3985.41 266.347   7
  -5  -1 -14 4059.81 280.448   7
  -5  -1 -15-77.4121 55.0372   7
  -5   1 -15-66.3484 51.1529   7
  -5   1 -16 6471.22 247.877   7
  -5  -1 -16 6412.65 267.902   7
   5  -3 -20 94.0355 45.4386   7
   5  -3 -19 1545.20 171.980   7
   5   3 -18 168.593 61.7296   7
   5  -3 -18 42.4808 54.5593   7
   5  -3 -17 7195.18 425.846   7
   5   3 -17 6319.41 352.975   7
   5   3 -16 2555.66 240.443   7
   5  -3 -16 2453.82 274.048   7
  -5  -3  16 3138.48 222.013   9
  -5  -3  15 105.595 64.7433   9
   5   3 -15 57.7579 57.2734   7
  -5  -3  14 3958.68 262.821   9
  -5   3  14 4057.76 257.253   9
  -5  -3  14 3580.84 650.301   3
  -5   3  13 7145.83 337.545   9
  -5  -3  13 7631.60 354.564   9
  -5  -3  13 7265.47 370.330   8
  -5  -3  13 6710.57 889.786   3
  -5  -3  12 5809.40 300.709   9
  -5  -3  12 5760.72 318.259   8
  -5   3  12 5589.65 293.462   9
  -5  -3  12 5740.54 787.331   3
  -5  -3  11 22793.1 1240.19   1
  -5  -3  10 7113.11 683.341   1
  -5  -3   9 541.417 212.462   1
  -5  -3   8 17256.2 985.858   1
  -5  -3   7 305.620 170.241   1
  -5  -3   6 2642.85 360.964   1
  -5  -3   5 21659.4 993.527   1
  -5   3   5 18299.7 482.239   2
  -5  -3   4 136742. 2417.10   1
  -5   3   4 128835. 1424.25   2
  -5   3   3 745.184 147.107   2
  -5  -3   3 741.898 214.831   1
  -5   3   2 137.855 56.3199   2
  -5  -3   2 262.339 173.019   1
  -5   3   1 6245.07 455.327   2
  -5   3   1 6175.59 429.396   4
  -5   3   0 589.628 207.725   2
  -5  -3   0 307.752 56.2669   3
  -5  -3   0 643.699 230.080   2
  -5  -3  -1 45044.2 1569.99   2
  -5   3  -1 47347.0 1548.67   2
  -5   3  -2 70300.8 1985.11   2
  -5  -3  -2 68873.1 2036.99   2
  -5   3  -3 8099.41 718.189   2
  -5  -3  -3 8658.60 769.946   2
  -5   3  -4 29275.4 1450.96   2
  -5  -3  -4 30681.8 1509.17   2
  -5  -3  -5 25980.4 1431.97   2
  -5   3  -5 23953.3 1409.34   2
  -5  -3  -6 101.669 117.269   2
  -5   3  -6 19.4536 108.638   2
  -5   3  -7 12878.8 1156.26   2
  -5  -3  -7 12738.7 477.972   7
  -5  -3  -7 13220.5 1156.11   2
  -5   3  -8 10731.0 1114.01   2
  -5  -3  -8 10702.1 1083.52   2
  -5   3  -8 10065.0 423.867   7
  -5  -3  -8 10089.7 441.894   7
  -5   3  -9 12172.0 484.718   7
  -5  -3  -9 12146.7 1194.44   2
  -5  -3  -9 12716.6 522.459   7
  -5  -3 -10 2872.21 609.972   2
  -5   3 -10 3186.95 254.676   7
  -5  -3 -10 2847.55 265.840   7
  -5   3 -11 45146.7 976.872   7
  -5  -3 -11 46256.4 1070.23   7
  -5  -3 -12 2416.52 251.300   7
  -5   3 -12 2029.72 206.319   7
  -5   3 -13 7664.30 382.646   7
  -5  -3 -13 8430.19 445.763   7
  -5   3 -14 12546.4 441.989   7
  -5  -3 -14 12510.1 492.934   7
  -5  -3 -15 261.373 88.4531   7
  -5  -3 -16 3750.29 206.903   7
   5  -5 -20 250.746 58.2692   7
   5  -5 -19 272.654 72.8936   7
   5  -5 -18 639.857 126.797   7
   5  -5 -17 1066.94 165.188   7
   5  -5 -16 5643.99 398.211   7
  -5  -5  15 1206.12 140.155   9
   5  -5 -15 817.687 176.806   7
  -5  -5  14 32230.9 2036.06   3
  -5  -5  14 31849.3 714.729   9
  -5  -5  13 20617.7 580.862   9
  -5   5  13 20360.7 577.261   9
  -5  -5  13 21692.4 621.936   8
  -5  -5  13 22178.1 1678.16   3
  -5  -5  12 43.0106 118.376   1
  -5  -5  12 53.5088 55.7295   8
   5   5 -12 49.8947 56.3946  11
  -5   5  12 28.0797 43.8852   9
  -5  -5  12 101.571 68.0339   9
  -5   5  11 16843.3 478.453   9
  -5  -5  11 16964.9 1225.86   1
  -5  -5  11 18324.8 538.316   8
   5   5 -11 17974.0 527.042  11
  -5  -5  10 21626.1 1344.09   1
  -5  -5   9 1388.47 317.812   1
  -5  -5   8 37049.0 1586.14   1
  -5  -5   7 77438.7 2166.24   1
  -5  -5   6 1701.45 326.204   1
  -5  -5   5 3368.58 467.754   1
  -5  -5   4 397.811 163.248   1
  -5  -5   3 125.957 148.398   1
  -5   5   3 34.9536 103.917   4
  -5  -5   2 66638.1 1880.72   1
  -5   5   2 66633.6 1289.95   2
  -5   5   2 68714.5 1749.56   4
  -5   5   1 26843.7 945.458   2
  -5  -5   1 25957.0 1182.93   1
  -5   5   1 25382.4 1012.65   4
  -5  -5   0 2064.58 389.454   2
  -5   5   0 2173.53 309.519   2
  -5  -5  -1 5796.94 624.650   2
  -5   5  -1 6602.22 577.905   2
  -5  -5  -2 7525.00 740.442   2
  -5   5  -2 6818.68 610.265   2
  -5  -5  -3 18199.8 1168.99   2
  -5   5  -3 17853.0 1077.25   2
  -5   5  -4 24086.6 1363.15   2
  -5  -5  -4 25474.1 1417.79   2
  -5   5  -5 480.267 227.682   2
  -5  -5  -5 235.475 144.177   2
  -5   5  -6 2050.53 433.199   2
  -5  -5  -6 2799.33 515.411   2
  -5  -5  -7 39956.0 874.110   7
  -5  -5  -7 41492.9 2096.63   2
  -5  -5  -8 4298.38 684.044   2
  -5  -5  -8 4448.65 302.749   7
   5  -5   9-4.68352 181.358   1
  -5  -5  -9 79.1128 58.3746   7
  -5  -5  -9 182.397 122.099   2
  -5   5 -10 15575.3 535.773   7
  -5  -5 -10 17314.4 645.958   7
  -5   5 -11 7581.81 366.369   7
  -5  -5 -11 7713.30 432.485   7
  -5   5 -12 1060.73 140.290  12
  -5  -5 -12 1264.82 185.205   7
  -5   5 -13 15523.5 461.374  12
  -5  -5 -13 15878.9 592.613   7
  -5  -5 -14 15297.4 538.098   7
  -5  -5 -15 65.1580 47.2895   7
  -5  -5 -16 4946.29 225.769   7
  -5   7  19 42.8361 25.7180   6
   5  -7 -19 70.5482 52.5378   7
   5  -7 -18 53.4609 47.4894   7
   5  -7 -17 2213.36 226.373   7
   5  -7 -16 65.6451 62.8886   7
   5  -7 -15 1552.32 216.854   7
  -5  -7  15 1477.64 139.524   9
  -5  -7  14 7918.34 331.817   9
  -5  -7  13 20635.8 554.285   9
  -5  -7  13 20286.8 605.560   8
  -5  -7  12 5365.92 293.023   9
  -5  -7  12 5559.03 325.538   8
   5   7 -12 6354.32 352.605  11
  -5  -7  11 11236.3 444.171   8
   5   7 -11 12170.1 467.469  11
  -5  -7  11 10387.1 1059.29   1
  -5  -7  10 8495.95 364.162   8
   5   7 -10 8886.43 389.588  11
  -5  -7   9 1306.29 381.976   1
  -5  -7   8 485.099 228.144   1
  -5  -7   7 15886.6 1118.00   1
  -5   7   6 5195.18 617.387   4
  -5  -7   6 4431.00 570.384   1
  -5  -7   5 49542.3 1831.25   1
  -5   7   5 49366.2 1822.68   4
  -5  -7   4 52114.4 1855.67   1
  -5   7   4 52402.6 1820.64   4
  -5  -7   3 245.588 187.119   1
  -5   7   3 97.7783 132.957   4
  -5   7   2 15977.1 950.474   4
  -5  -7   2 17094.2 1054.11   1
  -5  -7   1 16777.6 1031.27   1
  -5  -7   0 2107.47 388.073   1
  -5  -7  -1 2508.42 476.171   2
  -5  -7  -2 4088.48 592.196   2
  -5  -7  -3 12488.7 1026.18   2
  -5  -7  -4 14384.2 1125.29   2
  -5  -7  -5 1329.37 382.829   2
  -5  -7  -6 390.681 95.3752   7
  -5  -7  -6 317.119 202.009   2
  -5  -7  -7 22607.7 1585.88   2
  -5  -7  -7 23037.1 670.609   7
   5  -7   8 513.653 266.838   1
  -5  -7  -8 928.135 161.381   7
  -5  -7  -9 123.036 66.1137   7
   5  -7   9 19.7080 148.165   1
  -5  -7 -10 19398.1 684.318   7
  -5  -7 -11 10319.0 504.382   7
  -5   7 -11 10712.7 445.101  12
  -5  -7 -12 116.956 86.1854   7
  -5   7 -12 0.85102 58.1540  12
  -5   7 -13 24667.1 588.611  12
  -5  -7 -13 26323.9 715.343   7
  -5  -7 -14 1246.87 149.168   7
  -5   7 -14 775.411 95.5535  12
  -5  -7 -15 84.6252 48.9581   7
   5  -9 -18 1552.22 147.941   7
  -5   9  18 1728.42 131.351   6
   5  -9 -17 1470.65 165.353   7
   5  -9 -16 921.276 153.033   7
   5  -9 -15 5062.58 358.510   7
   5  -9 -14 1257.74 195.863   7
   5   9 -13 566.177 112.074  11
   5  -9 -13 665.131 149.219   7
  -5  -9  13 559.885 114.458   8
  -5  -9  12 832.855 127.214   8
   5   9 -12 813.684 140.144  11
  -5   9  12 658.448 290.376   4
  -5  -9  11 14779.0 501.641   8
  -5   9  11 16204.1 1391.42   4
   5   9 -11 16021.6 563.666  11
  -5  -9  11 13747.2 1304.82   1
  -5  -9  10 27811.5 672.756   8
  -5   9  10 27868.8 1792.15   4
  -5  -9  10 25451.2 1718.45   1
   5   9 -10 29908.3 754.806  11
  -5  -9   9 11200.3 418.852   8
  -5  -9   9 10145.5 1065.22   1
  -5   9   9 12415.5 1153.71   4
   5   9  -9 12587.9 478.061  11
  -5  -9   8 2106.73 495.686   1
   5   9  -8 1946.97 182.347  11
  -5   9   8 1701.48 428.377   4
  -5   9   7 11438.6 1034.63   4
  -5  -9   7 10400.8 1010.53   1
  -5  -9   6 2288.40 437.948   1
  -5   9   6 1791.07 427.649   4
  -5  -9   5 10798.6 967.512   1
  -5   9   5 10154.0 912.692   4
  -5  -9   4 8026.09 810.707   1
  -5   9   4 7694.10 789.320   4
  -5  -9   3 282.290 223.967   1
  -5   9   3 160.971 130.454   4
   5  -9  -2 49795.2 1451.50   1
  -5  -9   2 53558.9 2032.38   1
   5  -9  -1 39627.9 1433.25   1
  -5  -9   1 38418.9 1720.14   1
   5  -9   0 1398.38 330.950   1
  -5  -9   0 1945.96 383.033   1
   5  -9   1 4923.65 551.099   1
  -5  -9  -1 4548.04 647.376   2
  -5  -9  -2 27765.8 1585.03   2
   5  -9   2 25103.8 1430.20   1
   5  -9   3-13.4087 163.866   1
  -5  -9  -3 27.6218 135.786   2
  -5  -9  -4 18.2202 98.1840   2
   5  -9   4 241.240 217.845   1
   5  -9   5 30039.3 1703.60   1
  -5  -9  -5 28515.6 1696.77   2
  -5  -9  -6 27.4613 68.7627   7
   5  -9   6-133.853 141.616   1
  -5  -9  -7 28047.4 734.362   7
   5  -9   7 27356.9 1734.85   1
  -5  -9  -8 8313.70 424.528   7
  -5  -9  -9 3221.94 272.965   7
  -5   9 -10 8831.69 414.286  12
  -5  -9 -10 8329.71 429.208   7
  -5  -9 -11 10267.3 464.176   7
  -5   9 -11 10904.1 444.614  12
  -5   9 -12 2968.47 219.371  12
  -5  -9 -12 2827.85 234.038   7
  -5  -9 -13 1310.05 145.795   7
  -5   9 -13 1237.89 134.870  12
  -5   9 -14 3163.27 177.876  12
  -5  -9 -14 2976.31 194.661   7
  -5  11  18 231.317 49.3156   6
  -5  11  17 6602.78 265.136   6
   5 -11 -17 4530.01 231.330   7
   5 -11 -16 1957.28 182.285   7
  -5  11  16 2672.04 190.602   6
   5 -11 -15 250.238 74.1682   7
   5 -11 -14 838.329 140.319   7
   5  11 -13 13246.1 517.420  11
   5 -11 -13 10344.9 462.737   7
   5  11 -12 2557.03 227.063  11
  -5 -11  12 2229.86 199.552   8
   5 -11 -12 2001.83 207.018   7
   5  11 -11 144.988 71.9912  11
  -5 -11  11 89.0939 53.8916   8
  -5  11  10 259.901 238.650   4
  -5 -11  10 91.6894 215.035   1
  -5 -11  10 340.413 103.403   8
   5  11 -10 332.731 109.741  11
  -5 -11   9 114.026 57.0927   8
   5  11  -9 267.353 111.297  11
  -5  11   9 222.251 284.829   4
  -5 -11   9 168.994 112.207   1
  -5 -11   8 162.671 82.2020   8
   5  11  -8 150.616 76.8795  11
  -5  11   8-86.3740 109.620   4
  -5 -11   8-0.24956 162.096   1
   5  11  -7 416.463 90.6595   6
  -5  11   7 456.028 248.596   4
   5  11  -7 576.870 115.483  11
  -5 -11   7 480.634 253.796   1
  -5  11   6 487.291 222.223   4
  -5 -11   6 756.701 308.351   1
   5  11  -6 623.456 113.803   6
   5  11  -6 382.365 96.5090  11
  -5 -11   5 34117.4 1922.88   1
   5  11  -5 35328.6 753.235  11
  -5  11   5 33844.3 1847.10   4
   5  11  -5 31758.6 694.028   6
  -5 -11   4 12713.1 1127.21   1
   5  11  -4 11394.7 407.601   6
  -5 -11   3 8943.79 942.184   1
  -5 -11   2 29522.1 1687.66   1
  -5 -11   1 36079.8 1834.42   1
   5 -11   0 403.776 192.737   1
  -5 -11   0 434.991 274.329   2
  -5 -11   0 527.583 226.635   1
   5  11   1 17692.2 506.753   6
   5 -11   1 16669.3 1134.14   1
  -5 -11  -1 17042.0 1297.26   2
  -5 -11  -2 22416.6 1517.11   2
   5 -11   2 22901.4 1413.78   1
  -5  11  -2 21685.7 559.847  12
   5  11   2 21814.2 564.798   6
   5 -11   3 4408.89 625.841   1
  -5  11  -3 4462.79 260.136  12
   5  11   3 3485.18 235.129   6
  -5 -11  -3 3965.41 650.620   2
   5  11   4 29564.0 682.145   6
   5 -11   4 32267.3 1766.12   1
  -5  11  -4 33107.0 753.986  12
   5 -11   5 4226.09 658.941   1
   5  11   5 4354.63 269.022   6
  -5  11  -5 5691.20 316.364  12
   5  11   6-46.0188 56.6378   6
   5 -11   6 137.929 170.699   1
  -5  11  -7 13262.1 516.329  12
  -5  11  -8 1167.74 154.798  12
  -5 -11  -9 347.241 90.0703   7
  -5  11  -9 444.236 97.1382  12
  -5  11 -10 1715.65 185.429  12
  -5 -11 -10 1430.84 162.489   7
  -5 -11 -11 2711.37 214.304   7
  -5  11 -11 3058.65 223.991  12
  -5  11 -12 347.396 76.8398  12
  -5 -11 -12 419.217 80.3344   7
  -5 -11 -13 5194.60 234.649   7
  -5  11 -13 5578.32 248.262  12
  -5  11 -14 602.790 70.3995  12
  -5  13  17 1070.35 92.3781   6
  -5  13  16 2810.26 180.664   6
  -5  13  15 2289.63 177.526   6
  -5  13  14 92.4574 66.2168   6
  -5  13  13 3048.63 234.942   6
   5  13 -13 3179.44 235.890  11
  -5  13  12 69.8299 64.0175   6
   5  13 -12 66.8500 57.5378  11
  -5  13  11 3173.91 251.750   6
   5  13 -11 3550.09 268.922  11
  -5  13  10 7338.23 372.189   6
   5  13 -10 8805.70 423.072  11
   5  13  -9 59.0175 68.5717  11
  -5  13   9 158.526 72.1157   6
  -5  13   8 133.799 61.9808   6
   5  13  -8 84.4163 82.3120  11
  -5 -13   8 109.208 56.8481   8
  -5 -13   8 143.743 224.297   1
  -5 -13   7 5143.11 295.532   8
   5  13  -7 5112.62 329.195  11
  -5 -13   7 4741.85 833.534   1
   5  13  -7 5088.38 300.609   6
  -5  13   7 4487.06 280.239   6
  -5 -13   6 117.728 148.160   1
   5  13  -6 172.065 68.3474   6
  -5  13   5 6453.69 317.690   6
  -5 -13   5 7182.27 981.427   1
   5  13  -5 6842.15 338.527   6
   5  13  -5 5693.74 338.538  11
  -5  13   4 8150.78 351.477   6
   5  13  -4 9275.05 402.005   6
  -5 -13   4 8719.72 1071.13   1
   5  13  -4 9658.99 433.054  11
   5  13  -3 157.118 72.1950   6
  -5  13   3 104.789 58.9050   6
  -5 -13   3 78.3235 114.310   1
  -5 -13   2 302.988 169.796   1
   5  13  -2 231.294 75.1429   6
   5  13  -1 5900.45 314.845   6
  -5 -13   1 6217.68 829.679   1
  -5  13   0 5616.34 276.282  12
  -5 -13   0 5572.97 813.086   2
   5  13   0 6004.71 316.395   6
   5  13   1 14977.9 496.655   6
  -5  13  -1 13514.9 449.718  12
   5  13   2 38342.2 812.310   6
   5 -13   2 37945.3 1875.41   1
  -5  13  -2 40701.1 797.574  12
   5 -13   3 386.286 224.920   1
   5  13   3 140.318 78.2362   6
  -5  13  -3 208.164 72.1718  12
   5  13   4 5474.25 314.149   6
  -5  13  -4 5788.98 318.752  12
  -5  13  -5 16776.6 555.244  12
   5  13   5 16271.9 532.707   6
  -5  13  -6 146.813 60.8812  12
   5  13   6 85.2557 67.2483   6
   5  13   7 2055.06 188.236   6
  -5  13  -7 1876.89 187.363  12
   5  13   8 571.159 107.104   6
  -5  13  -8 679.570 121.712  12
  -5  13  -9 298.373 78.7367  12
  -5  13 -10 9223.38 390.535  12
  -5  13 -11 95.4591 48.6008  12
  -5  13 -12 593.965 87.6084  12
  -5  13 -13 4222.04 184.874  12
  -5  15  16 352.565 56.0663   6
  -5  15  15 39.5485 36.9306   6
  -5  15  14 2719.20 185.980   6
  -5  15  13 8164.35 343.455   6
  -5  15  12 2320.09 203.192   6
   5  15 -12 2236.14 199.072  11
  -5  15  11 2714.89 224.225   6
   5  15 -11 3400.13 253.838  11
   5  15 -10 3646.26 275.988  11
  -5  15  10 3852.83 272.249   6
  -5  15   9 1454.18 178.218   6
   5  15  -9 1641.53 215.224  11
  -5  15   8 4440.96 289.598   6
   5  15  -8 4947.74 325.606  11
   5  15  -7 743.027 135.667  11
  -5  15   7 546.520 102.936   6
   5  15  -7 549.147 114.541   6
  -5  15   6 2764.49 229.489   6
   5  15  -6 2821.09 228.674   6
   5  15  -6 2934.41 253.388  11
   5  15  -5 5225.60 315.414   6
  -5  15   5 4393.86 288.961   6
   5  15  -5 5173.66 339.645  11
  -5  15   4 29771.8 702.941   6
   5  15  -4 29120.0 778.557  11
   5  15  -4 29594.1 743.269   6
  -5  15   3 597.297 111.913   6
  -5 -15   3 617.202 300.225   1
   5  15  -3 741.864 141.723   6
   5  15  -3 467.232 130.964  11
  -5  15   2 5679.55 296.571   6
   5  15  -2 6281.99 349.332   6
  -5 -15   2 5143.54 866.008   1
   5  15  -1 13389.0 506.171   6
   5  15   0 274.732 113.055   6
  -5  15  -1 1066.57 130.385  12
   5  15   1 927.960 142.984   6
  -5  15  -2 11058.7 422.743  12
   5  15   2 11107.7 457.359   6
   5  15   3 836.815 135.335   6
  -5  15  -3 846.836 125.269  12
   5  15   4 1367.10 174.915   6
  -5  15  -4 1085.55 139.267  12
   5  15   5 4368.96 281.551   6
  -5  15  -5 5088.02 295.655  12
  -5  15  -6 3785.34 266.007  12
   5  15   6 4042.30 261.722   6
   5  15   7 3482.77 233.935   6
  -5  15  -7 4207.42 273.798  12
  -5  15  -8 8471.63 361.910  12
   5  15   8 7448.08 310.701   6
  -5  15  -9 126.365 51.1864  12
  -5  15 -10 3752.20 209.769  12
  -5  15 -11 1978.42 139.332  12
  -5  15 -12 363.122 53.8152  12
  -5  17  14 1459.11 110.308   6
  -5  17  13 3698.49 198.083   6
  -5  17  12 641.757 97.3203   6
   5  17 -12 612.254 95.4801  11
  -5  17  11 4539.64 258.510   6
   5  17 -11 4274.14 245.183  11
  -5  17  10 4186.37 258.061   6
   5  17 -10 4580.87 278.384  11
  -5  17   9-49.2182 53.0573   6
   5  17  -9-23.4764 60.5644  11
  -5  17   8 1995.02 192.859   6
   5  17  -8 2512.00 225.822  11
  -5  17   7 15439.5 511.770   6
   5  17  -7 14713.1 544.979  11
  -5  17   6 1911.19 187.352   6
   5  17  -6 1773.39 176.790   6
   5  17  -6 2114.53 218.596  11
   5  17  -5 1321.30 176.366  11
  -5  17   5 1385.77 166.344   6
   5  17  -5 1752.40 197.245   6
   5  17  -4 1275.65 170.043   6
  -5  17   4 985.718 129.380   6
   5  17  -4 1430.33 185.023  11
  -5  17   3 2066.79 183.973   6
   5  17  -3 1881.50 205.057  11
   5  17  -3 2265.34 211.702   6
  -5  17   2 3789.31 245.799   6
   5  17  -2 4249.17 306.923  11
   5  17  -2 4398.92 295.223   6
   5  17  -1 1370.22 183.117  11
   5  17  -1 1624.04 179.711   6
   5  17   0 543.775 111.049   6
   5  17   1 1942.05 199.085   6
   5  17   2 4135.24 278.847   6
   5  17   3 179.072 81.4740   6
  -5  17  -3 11.3577 38.2539  12
  -5  17  -4 11.2729 45.0184  12
   5  17   4 118.551 52.1963   6
   5  17   5 720.552 115.830   6
  -5  17  -5 818.936 107.266  12
  -5  17  -6 71.4404 51.8963  12
   5  17   6-50.4369 50.6834   6
   5  17   7 4525.03 234.710   6
  -5  17  -7 4846.72 247.509  12
  -5  17  -8 849.996 98.6897  12
   5  17   8 633.830 83.6195   6
  -5  17  -9 181.873 68.6576  12
  -5  17 -10 2052.96 123.073  12
  -5  19  12 228.739 48.4551   6
  -5  19  11 1597.07 124.028   6
   5  19 -10 4884.66 228.312  11
  -5  19  10 5312.74 240.357   6
   5  19  -9 3602.29 214.860  11
  -5  19   9 3986.56 220.191   6
  -5  19   8 1710.08 151.823   6
   5  19  -8 1496.08 154.347  11
   5  19  -7 2397.18 192.799  11
  -5  19   7 2046.19 170.664   6
  -5  19   6 191.347 69.7280   6
   5  19  -6 165.449 80.1121  11
   5  19  -5 3911.70 250.690   6
  -5  19   5 3458.33 219.095   6
   5  19  -5 4107.22 267.811  11
   5  19  -4 15174.0 494.006   6
   5  19  -4 14615.0 503.393  11
  -5  19   4 15021.9 444.622   6
   5  19  -3 170.650 59.4565   6
  -5  19   3 318.168 75.8033   6
   5  19  -3 216.241 84.1610  11
   5  19  -2 5328.83 314.322  11
   5  19  -2 5887.74 314.930   6
   5  19  -1 5253.39 304.401  11
   5  19  -1 5095.31 299.005   6
   5  19   0 174.193 76.6296   6
   5  19   0 109.923 72.2554  11
   5  19   1 775.030 129.961   6
   5  19   1 698.808 116.055  11
   5  19   2 2214.51 197.877  11
   5  19   2 2624.92 206.445   6
   5  19   3 763.866 109.574   6
   5  19   3 721.657 115.336  11
   5  19   4 12565.8 408.100   6
   5  19   5 214.841 56.1479   6
   5  19   6 364.431 67.6757   6
   5  19   7 1587.95 109.574   6
   5  21  -8 1592.90 112.387  11
  -5  21   8 1411.27 100.484   6
   5  21  -7 2493.53 154.233  11
  -5  21   7 2439.90 137.331   6
  -5  21   6 318.687 53.5796   6
   5  21  -6 468.056 77.3518  11
   5  21  -5 1271.51 118.908  11
   5  21  -4 2553.69 175.062  11
   5  21  -3 58.3978 56.2641  11
   5  21  -3 21.7720 44.6038   6
   5  21  -2 4807.90 240.009  11
   5  21  -2 4572.38 236.950   6
   5  21  -1 2066.99 160.254  11
   5  21  -1 2299.47 167.849   6
   5  21   0 59.1909 39.6824   6
   5  21   0-30.8612 39.9247  11
   5  21   1 3833.12 209.969   6
   5  21   1 3243.96 188.195  11
   5  21   2 4521.86 211.537  11
   5  21   2 4599.23 220.522   6
   5  21   3 775.293 88.6228   6
   5  21   3 659.315 82.5134  11
   5  21   4 185.584 51.9643   6
   5  21   4 176.908 44.7669  11
   6   0 -20 4910.88 233.189   7
   6   0 -19 60.1523 47.9314   7
   6   0 -18 14420.0 530.279   7
   6   0 -17-30.1341 65.9702   7
  -6   0  16 192.268 87.7604   9
   6   0 -16 67.7454 75.6479   7
  -6   0  15 101.556 85.4860   9
  -6   0  14 40764.7 848.101   9
  -6   0  14 38964.0 2203.62   3
  -6   0  13 21.9370 160.338   3
  -6   0  13 55.7643 54.0858   9
  -6   0  12 29696.5 709.144   8
  -6   0  12 30077.4 700.828   9
  -6   0  12 31419.9 1812.81   3
  -6   0  12 30592.1 658.988  10
  -6   0  11 64.6833 119.022   3
  -6   0  10 53064.2 2062.86   3
  -6   0   9 33.6303 121.441   3
  -6   0   9 24.7734 69.0697   1
  -6   0   8 2428.12 347.100   1
  -6   0   8 3752.75 496.634   3
  -6   0   7 143.914 127.790   3
  -6   0   7 52.0728 70.7812   1
  -6   0   6 14037.4 761.193   1
  -6   0   6 14901.2 883.865   3
  -6   0   5 38.9605 97.1394   3
  -6   0   4 314826. 3317.68   3
  -6   0   3 45.9106 77.2140   2
  -6   0   3 13.2924 75.9384   3
  -6   0   2 437.935 174.268   2
  -6   0   1 28.3677 84.1639   2
  -6   0   0 41428.0 1495.26   2
  -6   0  -1 77.9732 132.516   2
  -6   0  -2 27116.0 1344.25   2
  -6   0  -3-78.1049 129.157   2
  -6   0  -4 879.982 318.148   2
  -6   0  -5 52.8286 165.680   2
  -6   0  -6 66900.3 2598.21   2
  -6   0  -7-42.2177 132.907   2
  -6   0  -7 23.3760 46.4594   7
  -6   0  -8 5937.68 863.311   2
  -6   0  -8 5776.80 350.110   7
  -6   0  -9 163.868 181.215   2
  -6   0  -9 141.865 101.951   7
  -6   0 -10 8657.61 449.458   7
  -6   0 -11 80.5208 88.8293   7
  -6   0 -12 32277.4 849.582   7
  -6   0 -13 56.5469 79.4081   7
  -6   0 -14 5343.66 294.295   7
  -6   0 -15 134.344 50.2189   7
   6  -2 -20 47.9643 40.1276   7
   6  -2 -19 1991.49 184.982   7
   6   2 -19 1660.84 158.141   7
   6  -2 -18 49.7020 70.9546   7
   6   2 -18 60.3428 47.6990   7
   6   2 -17 9453.58 469.443   7
   6  -2 -17 10560.9 530.898   7
  -6  -2  16 265.655 77.3720   9
   6   2 -16 150.308 83.7195   7
  -6   2  15 22891.9 629.118   9
  -6  -2  15 23690.2 639.645   9
  -6  -2  14 1269.39 425.986   3
  -6   2  14 883.611 131.881   9
  -6  -2  14 1073.06 150.763   9
  -6   2  13 3490.42 247.184   9
  -6  -2  13 3514.33 248.288   9
  -6  -2  13 3728.41 260.475   8
  -6  -2  13 3215.17 643.097   3
  -6   2  12 6165.85 316.892   9
  -6  -2  12 6392.90 337.034   8
  -6  -2  12 6577.87 303.813  10
  -6  -2  12 7078.23 858.408   3
  -6  -2  11 12153.4 1090.36   3
  -6   2  11 12030.2 1079.51   3
  -6  -2  10 325.159 207.734   3
  -6  -2  10 15.1193 80.4532   1
  -6   2  10 50.9786 139.056   3
  -6  -2   9 20859.0 1083.20   1
  -6   2   9 23538.3 1341.50   3
  -6  -2   9 21934.2 1354.57   3
  -6  -2   8 1516.61 315.044   1
  -6   2   8 1723.84 359.839   3
  -6  -2   7 41178.0 1451.36   1
  -6   2   7 44354.3 1589.34   3
  -6   2   6 7958.57 640.234   3
  -6  -2   6 7354.58 608.869   1
  -6  -2   5 321.798 187.194   1
  -6   2   5 351.810 113.922   2
  -6   2   4 21502.4 793.240   2
  -6  -2   4 20563.8 999.213   1
  -6   2   3 153697. 2201.63   2
  -6  -2   3 142092. 2034.05   3
  -6   2   2 4964.17 439.795   2
  -6  -2   2 4708.56 315.252   3
  -6  -2   1 14579.8 889.030   2
  -6   2   1 14711.3 808.985   2
  -6   2   1 14358.7 624.739   4
  -6   2   0 96.3568 112.749   2
  -6  -2   0 121.114 115.573   2
  -6   2  -1 37146.1 1452.26   2
  -6  -2  -1 37333.3 1547.92   2
  -6   2  -2 5012.70 574.861   2
  -6  -2  -2 4893.65 612.281   2
  -6  -2  -3 84799.2 2557.24   2
  -6   2  -3 83883.9 2546.56   2
  -6  -2  -4 108.850 127.346   2
  -6   2  -4 67.9629 88.6260   2
  -6  -2  -5 18144.9 1321.52   2
  -6   2  -5 17033.8 1251.56   2
  -6   2  -6 2185.13 463.609   2
  -6  -2  -6 1919.33 430.768   2
  -6   2  -7 8587.45 977.988   2
  -6   2  -7 7737.75 373.668   7
  -6  -2  -7 7902.21 934.215   2
  -6  -2  -7 7973.54 385.765   7
  -6   2  -8 5456.11 321.445   7
  -6  -2  -8 5602.82 348.807   7
  -6   2  -8 5244.83 798.421   2
  -6  -2  -8 5707.68 827.606   2
  -6  -2  -9 67976.8 3007.98   2
  -6   2  -9 67609.4 1200.49   7
  -6  -2  -9 66005.8 1245.04   7
  -6   2 -10 13624.7 543.018   7
  -6  -2 -10 14501.0 590.597   7
  -6  -2 -11 14.5321 63.5486   7
  -6   2 -11 125.134 92.0226   7
  -6  -2 -12 325.028 95.4817   7
  -6   2 -12 487.123 113.677   7
  -6   2 -13 6679.40 346.370   7
  -6  -2 -13 6606.21 370.129   7
  -6   2 -14 141.534 54.9576   7
  -6  -2 -14 51.1814 67.1649   7
  -6   2 -15 6319.32 255.393   7
  -6  -2 -15 6169.12 284.386   7
  -6  -2 -16 64.2357 34.9013   7
   6  -4 -20 422.590 76.1048   7
   6  -4 -19 587.444 109.953   7
   6  -4 -18 5715.46 351.379   7
   6   4 -17 3764.67 267.046   7
   6  -4 -17 4888.22 358.018   7
   6   4 -16 991.786 159.628   7
  -6  -4  16 1216.54 144.612   9
   6  -4 -16 1213.57 207.667   7
  -6  -4  15 3791.47 251.355   9
   6   4 -15 2669.37 272.738   7
  -6   4  14 14391.8 482.581   9
  -6  -4  14 14254.6 531.357   8
  -6  -4  14 13707.6 485.707   9
  -6  -4  14 12824.6 1264.55   3
  -6  -4  13 680.888 275.901   3
  -6   4  13 720.134 116.656   9
  -6  -4  13 788.593 170.397   8
  -6  -4  13 748.373 131.768   9
  -6   4  12 31296.2 698.134   9
  -6  -4  12 32417.9 760.482   8
  -6  -4  12 30829.1 656.391  10
  -6  -4  12 33151.9 1933.22   3
  -6  -4  11 2523.42 489.763   1
  -6   4  11 2708.53 206.178   9
  -6  -4  11 3071.93 226.767   8
  -6  -4  11 3117.43 203.995  10
  -6  -4  10 11144.3 915.470   1
  -6  -4   9 783.972 260.767   1
  -6  -4   8 5950.64 616.883   1
  -6  -4   7 14825.9 952.011   1
  -6  -4   6 215310. 3567.14   1
  -6  -4   5 556.356 243.823   1
  -6   4   4 10159.7 431.028   2
  -6  -4   4 11407.8 804.009   1
  -6   4   3 5668.09 393.542   2
  -6  -4   3 5171.14 592.132   1
  -6   4   3 5624.03 506.759   4
  -6   4   2 2015.73 275.252   2
  -6  -4   2 1798.52 356.669   1
  -6   4   2 1997.93 304.469   4
  -6  -4   1 869.763 272.828   2
  -6   4   1 925.498 199.028   4
  -6   4   1 983.303 212.836   2
  -6  -4   0 5389.58 632.592   2
  -6   4   0 5316.77 516.756   2
  -6  -4  -1 4536.10 598.801   2
  -6   4  -1 4996.97 538.961   2
  -6  -4  -2 2452.68 452.538   2
  -6   4  -2 2394.84 397.042   2
  -6  -4  -3 111.692 139.837   2
  -6   4  -3 18.7622 126.391   2
  -6  -4  -4 3937.23 598.894   2
  -6   4  -4 3975.83 571.638   2
  -6   4  -5 1713.96 389.920   2
  -6  -4  -5 1690.55 403.912   2
  -6  -4  -6 54478.5 1001.40   7
  -6   4  -6 53448.2 2377.72   2
  -6   4  -7 1922.69 470.178   2
  -6  -4  -7 2213.12 214.219   7
  -6   4  -7 1908.29 182.548   7
  -6  -4  -7 2044.13 479.639   2
  -6  -4  -8 4543.81 747.997   2
  -6   4  -8 4561.34 286.447   7
  -6  -4  -8 4899.08 322.917   7
  -6   4  -9 575.321 113.969   7
  -6  -4  -9 792.483 148.659   7
  -6   4  -9 748.474 109.947  12
  -6  -4 -10 5035.72 348.352   7
  -6   4 -10 5003.75 279.575  12
  -6   4 -10 5232.35 319.983   7
  -6   4 -11 411.904 95.6913   7
  -6  -4 -11 430.886 133.346   7
  -6   4 -11 404.246 92.1867  12
  -6   4 -12 43624.0 879.823   7
  -6  -4 -12 45072.4 1019.99   7
  -6   4 -13 2648.42 197.768   7
  -6  -4 -13 2905.01 246.703   7
  -6  -4 -14 3071.15 231.622   7
  -6  -4 -15-18.6932 38.2793   7
   6  -6 -20 37.9791 30.6405   7
   6  -6 -19 1546.30 157.225   7
   6  -6 -18 35.7385 56.8241   7
   6  -6 -17 101.321 76.1596   7
  -6  -6  16 122.237 75.1106   9
   6  -6 -16 56.8885 70.9371   7
  -6  -6  15 26458.6 634.746   9
  -6  -6  14 149.305 66.4990   9
  -6  -6  14 281.746 97.8171   8
  -6  -6  13 820.356 396.217   3
  -6  -6  13 499.539 109.140   9
  -6  -6  13 752.175 144.994   8
  -6   6  13 568.073 104.859   9
  -6  -6  12 490.598 212.456   1
  -6   6  12 241.694 80.2101   9
  -6  -6  12 140.859 84.4251   8
   6   6 -12 303.410 91.7373  11
  -6   6  11 9517.36 352.516   9
  -6  -6  11 9259.13 347.152  10
   6   6 -11 10121.1 424.947  11
  -6  -6  10 274.911 98.0268   8
  -6  -6  10 217.077 172.793   1
   6   6 -10 332.948 97.6208  11
  -6  -6   9 20299.7 1292.22   1
  -6  -6   8 1270.33 334.962   1
  -6  -6   7 64047.8 2178.48   1
  -6  -6   6 4261.55 577.047   1
  -6  -6   5 122256. 2919.39   1
  -6   6   5 121342. 2789.34   4
  -6  -6   4 205.759 175.153   1
  -6   6   4 582.961 237.041   4
  -6   6   3 47125.5 1663.18   4
  -6  -6   3 49857.9 1852.10   1
  -6  -6   2 17793.4 1105.43   1
  -6   6   2 16187.2 928.561   4
  -6   6   2 17916.9 754.240   2
  -6   6   1 40546.0 1313.12   2
  -6   6   0 5080.15 501.421   2
  -6  -6   0 4072.77 586.631   2
  -6  -6  -1 106973. 2905.18   2
  -6   6  -1 106952. 2528.81   2
  -6  -6  -2 5801.49 694.859   2
  -6   6  -2 4905.92 575.731   2
  -6   6  -3 1331.24 317.318   2
  -6  -6  -3 1465.23 392.901   2
  -6   6  -4 894.783 283.007   2
  -6  -6  -4 965.620 343.377   2
  -6  -6  -5 54554.9 2381.38   2
  -6  -6  -6 183.355 58.2861   7
  -6  -6  -6 276.500 169.937   2
  -6  -6  -7 136.026 73.1383   7
  -6  -6  -7 156.456 178.172   2
  -6  -6  -8-291.067 192.247   2
  -6  -6  -8 136.877 88.3801   7
  -6   6  -9 37447.2 822.134  12
  -6  -6  -9 35116.6 909.687   7
  -6  -6 -10 316.776 89.5109   7
  -6   6 -10 368.585 90.1944  12
  -6  -6 -11 15815.2 607.277   7
  -6   6 -11 15013.4 500.402  12
  -6  -6 -12 238.633 93.0617   7
  -6   6 -12 46.9969 49.2361  12
  -6  -6 -13 9893.33 433.855   7
  -6   6 -13 9236.37 332.364  12
  -6  -6 -14 322.562 85.8015   7
  -6  -6 -15 4433.05 216.688   7
  -6   8  19 335.646 59.3537   6
   6  -8 -19 182.301 53.4229   7
   6  -8 -18 6630.56 321.115   7
   6  -8 -17 181.564 74.5451   7
   6  -8 -16 2671.57 265.779   7
   6  -8 -15 373.964 121.758   7
  -6  -8  14-10.5635 61.2997   9
  -6  -8  14 164.184 96.7793   8
  -6  -8  13 1437.14 145.832   9
  -6  -8  13 1495.61 185.707   8
   6   8 -13 1441.85 172.925  11
  -6   8  13 1163.81 377.655   4
  -6  -8  12 35006.8 2049.24   1
  -6   8  12 37627.2 2212.54   4
  -6  -8  12 40735.2 872.163   8
   6   8 -12 43173.5 901.834  11
  -6  -8  11 243.160 88.8955   8
  -6  -8  11 300.098 209.312   1
  -6   8  11 208.644 215.077   4
   6   8 -11 173.886 71.2314  11
   6   8 -10 1341.35 160.855  11
  -6  -8  10 1702.31 176.605   8
  -6   8  10 1680.49 470.235   4
  -6  -8  10 1586.46 451.383   1
  -6  -8   9 3199.65 224.811   8
  -6   8   9 3188.59 585.072   4
   6   8  -9 3403.47 242.911  11
  -6  -8   9 2783.78 566.343   1
  -6   8   8 6286.80 817.013   4
  -6  -8   8 5031.76 713.788   1
  -6  -8   7 6885.13 803.622   1
  -6   8   7 6844.73 796.502   4
  -6   8   6 37796.5 1783.57   4
  -6  -8   6 37016.2 1801.87   1
  -6  -8   5 2404.88 465.114   1
  -6   8   5 2270.27 433.429   4
  -6  -8   4 7570.65 810.965   1
  -6   8   4 7776.54 766.129   4
   6  -8  -3 1770.73 278.221   1
  -6   8   3 1976.75 384.854   4
  -6  -8   3 2246.38 425.852   1
  -6  -8   2 42705.3 1854.49   1
  -6  -8   1 2046.35 429.368   1
  -6  -8   0 37758.5 1830.72   2
  -6  -8  -1 2131.35 459.504   2
  -6  -8  -2 101.136 187.491   2
  -6  -8  -3 11165.4 1085.35   2
  -6   8  -4 1732.04 184.563  12
  -6  -8  -4 1121.98 337.173   2
  -6  -8  -5 2550.01 208.346   7
  -6  -8  -5 2873.54 560.511   2
  -6  -8  -6 58105.0 1042.04   7
  -6  -8  -6 56879.9 2552.93   2
  -6  -8  -7 12621.3 509.966   7
   6  -8   7 10889.0 1104.20   1
  -6  -8  -8 22.6579 55.6822   7
  -6   8  -8 107.378 76.1004  12
  -6  -8  -9 2912.29 258.200   7
  -6   8  -9 3380.93 248.688  12
  -6  -8 -10 15904.1 589.552   7
  -6   8 -10 16862.4 541.975  12
  -6  -8 -11 68.5992 65.5347   7
  -6   8 -11 41.5520 43.7690  12
  -6  -8 -12 18024.3 581.136   7
  -6   8 -12 17553.8 507.656  12
  -6  -8 -13 486.928 91.2552   7
  -6   8 -13 436.133 75.0734  12
  -6   8 -14 4829.05 188.902  12
  -6  -8 -14 4962.62 239.965   7
  -6  10  18 17.2877 31.2737   6
   6 -10 -18 37.2572 40.9560   7
  -6  10  17 3787.89 219.721   6
   6 -10 -17 3089.27 216.970   7
   6 -10 -16 528.660 103.989   7
   6 -10 -15 6215.85 361.483   7
   6 -10 -14 1118.98 180.164   7
  -6 -10  14 1319.85 148.605   8
   6 -10 -13 99.3277 58.5471   7
   6  10 -13 20.9292 82.5807  11
  -6 -10  13 197.321 88.9495   8
  -6 -10  12 66.2518 71.1212   8
   6  10 -12 130.252 79.5274  11
  -6 -10  11 1150.02 419.447   1
  -6 -10  11 1593.29 176.461   8
  -6  10  11 1159.19 423.006   4
   6  10 -11 1989.63 207.290  11
  -6 -10  10 542.696 100.793   8
   6  10 -10 450.483 109.263  11
  -6 -10  10 290.372 125.676   1
  -6  10  10 307.001 191.699   4
  -6 -10   9 587.487 345.967   1
  -6 -10   9 973.521 154.097   8
  -6  10   9 1335.23 461.134   4
   6  10  -9 916.646 150.578  11
  -6  10   8 7539.39 936.865   4
  -6 -10   8 6971.97 910.600   1
   6  10  -8 6880.98 356.457  11
  -6 -10   8 6939.36 334.306   8
   6  10  -7 9444.30 393.987   6
  -6 -10   7 8303.17 1018.78   1
   6  10  -7 8631.38 394.700  11
  -6 -10   6 1782.83 460.601   1
   6  10  -6 1719.06 176.107   6
   6  10  -6 2033.84 185.079  11
  -6  10   6 1535.66 369.571   4
  -6 -10   5 1504.65 492.706   1
  -6  10   5 1936.23 501.760   4
  -6 -10   4 1120.16 369.185   1
  -6  10   4 816.425 256.739   4
  -6 -10   3 54400.3 2280.61   1
  -6 -10   2 2008.31 465.051   1
   6 -10  -1 11532.8 887.101   1
  -6 -10   1 12954.9 1107.89   1
  -6 -10   0 667.888 283.129   2
   6 -10   0 747.153 228.964   1
   6 -10   1 19789.6 1298.34   1
  -6 -10  -1 16746.5 1354.63   2
   6 -10   2 3826.29 593.392   1
  -6 -10  -2 3369.58 641.250   2
  -6  10  -2 3655.35 234.174  12
   6 -10   3 37216.2 1978.80   1
  -6 -10  -3 38981.8 2086.93   2
  -6  10  -3 41055.0 794.377  12
   6 -10   4 4386.32 713.599   1
  -6  10  -4 4491.63 276.982  12
  -6 -10  -4 4371.71 714.343   2
   6 -10   5 18570.1 1421.10   1
  -6  10  -5 18821.2 583.785  12
   6 -10   6 3060.83 612.920   1
  -6  10  -6 2106.71 197.892  12
  -6 -10  -7 16.9801 67.0834   7
  -6  10  -7 102.932 66.4738  12
  -6 -10  -8 114.742 73.3217   7
  -6  10  -8 138.267 70.9600  12
  -6 -10  -9 18613.4 605.251   7
  -6  10  -9 18792.3 589.952  12
  -6  10 -10 640.479 119.453  12
  -6 -10 -10 432.681 91.6731   7
  -6 -10 -11 6354.01 334.787   7
  -6  10 -11 6635.63 328.285  12
  -6  10 -12 556.796 91.1586  12
  -6 -10 -12 572.792 106.705   7
  -6 -10 -13 443.191 75.4357   7
  -6  10 -13 588.481 78.0437  12
  -6  12  17 49.9730 45.6550   6
  -6  12  16 53.4472 40.7741   6
  -6  12  15 48.0875 42.8920   6
  -6  12  14 10968.2 432.992   6
  -6 -12  13 80.0118 58.5281   8
   6  12 -13 97.7857 74.2397  11
  -6 -12  12 4138.10 264.939   8
   6  12 -12 4430.20 307.537  11
  -6 -12  11-51.8857 73.0969   8
   6  12 -11 4.52114 62.3009  11
  -6 -12  10 1317.63 157.938   8
   6  12 -10 1213.89 168.761  11
  -6  12  10 1072.05 430.282   4
  -6 -12   9 124.222 87.2324   8
   6  12  -9 47.2900 72.4419  11
  -6 -12   8 2135.63 193.169   8
  -6  12   8 1883.48 518.869   4
   6  12  -8 2403.39 230.510  11
  -6  12   7 538.097 259.489   4
   6  12  -7 233.547 69.4234   6
  -6 -12   7 194.383 243.053   1
  -6  12   7 227.597 76.3239   6
   6  12  -7 331.349 149.290  11
  -6  12   6 10238.1 389.838   6
  -6 -12   6 11095.8 1241.34   1
   6  12  -6 11200.4 443.605   6
   6  12  -6 11303.7 467.399  11
  -6  12   5 2918.50 206.507   6
  -6 -12   5 3350.18 658.030   1
   6  12  -5 3020.60 242.742  11
   6  12  -5 3316.55 239.187   6
  -6 -12   4 34681.9 2031.18   1
   6  12  -4 32826.5 725.051   6
  -6 -12   3 3282.27 619.284   1
   6  12  -3 3252.95 229.421   6
  -6 -12   2 7868.73 1002.40   1
   6  12  -2 8044.97 358.289   6
  -6 -12   1 30.2913 137.954   2
  -6  12   1-25.2875 38.3269  12
   6  12  -1-14.0415 60.2468   6
  -6 -12   0 27191.7 1804.20   2
   6  12   0 28355.3 669.915   6
  -6  12   0 27508.4 638.275  12
  -6 -12  -1 316.632 239.216   2
   6  12   1 169.824 73.4259   6
   6 -12   1 148.005 201.238   1
  -6  12  -1 18.8944 49.8456  12
   6  12   2 2176.52 199.280   6
   6 -12   2 1693.84 400.216   1
  -6  12  -2 1930.70 178.354  12
   6  12   3 4328.48 272.508   6
  -6  12  -3 3909.02 255.888  12
   6  12   4 6992.47 344.650   6
   6 -12   4 8319.03 942.855   1
  -6  12  -4 8438.11 385.486  12
   6  12   5 1791.87 176.478   6
  -6  12  -5 1655.58 178.644  12
  -6  12  -6 28625.4 742.798  12
  -6  12  -7 25.8203 48.5352  12
  -6  12  -8 7373.53 371.179  12
  -6  12  -9 2761.72 220.356  12
  -6  12 -10 3531.73 234.750  12
  -6  12 -11 708.651 106.664  12
  -6  12 -12 5244.00 237.095  12
  -6  12 -13 705.255 74.9948  12
  -6  14  16 17.5748 36.0428   6
  -6  14  15 3837.98 223.179   6
  -6  14  14 65.5631 59.6328   6
  -6  14  13 94.2864 66.8574   6
   6  14 -13 98.0385 69.1635  11
   6  14 -12-53.6667 87.4326  11
  -6  14  12 55.8219 58.7471   6
  -6  14  11 2422.83 210.946   6
   6  14 -11 2651.72 232.382  11
  -6 -14  10 516.450 103.950   8
  -6  14  10 583.881 114.686   6
   6  14 -10 330.600 89.4063  11
  -6  14   9 3815.63 271.950   6
  -6 -14   9 4346.99 264.984   8
   6  14  -9 4472.60 315.630  11
  -6  14   8 1951.44 190.911   6
  -6 -14   8 2014.00 186.717   8
   6  14  -8 2043.66 224.172  11
  -6  14   7 1951.63 191.862   6
   6  14  -7 1874.73 204.815  11
   6  14  -7 2118.40 201.534   6
   6  14  -6 1621.64 194.352  11
  -6  14   6 1267.34 157.645   6
   6  14  -6 1480.59 174.612   6
  -6  14   5 15414.4 493.033   6
  -6 -14   5 14049.4 1454.63   1
   6  14  -5 16064.3 540.528   6
   6  14  -5 15568.2 569.882  11
   6  14  -4 514.386 104.734   6
  -6  14   4 429.273 90.5758   6
  -6 -14   4 239.732 269.783   1
   6  14  -4 516.414 110.408  11
   6  14  -3 8168.44 387.710   6
  -6 -14   3 8296.50 1065.98   1
  -6 -14   2 1160.23 409.055   1
   6  14  -2 1128.35 145.618   6
   6  14  -1 317.601 93.8633   6
   6  14   0 7895.73 374.571   6
  -6  14   0 7453.38 339.177  12
   6  14   1 948.352 140.086   6
  -6  14  -1 629.866 104.251  12
   6  14   2 1300.83 159.849   6
  -6  14  -2 1347.93 152.685  12
   6  14   3 46837.5 914.047   6
  -6  14  -3 47700.7 922.092  12
   6  14   4 127.985 77.8827   6
  -6  14  -4 32.8237 57.2797  12
   6  14   5 1487.07 162.012   6
  -6  14  -5 1233.37 159.247  12
   6  14   6 1513.66 157.273   6
  -6  14  -6 1718.08 181.317  12
  -6  14  -7 65.3171 51.0400  12
  -6  14  -8 178.059 70.5944  12
  -6  14  -9 7985.40 343.629  12
  -6  14 -10 745.738 100.484  12
  -6  14 -11 2778.73 168.472  12
  -6  14 -12 97.2719 36.4256  12
  -6  16  15 230.546 49.3667   6
  -6  16  14 4336.50 212.009   6
  -6  16  13 35.6303 45.3280   6
  -6  16  12 7448.37 329.543   6
   6  16 -12 7277.64 326.611  11
  -6  16  11 667.828 111.757   6
   6  16 -11 726.603 114.802  11
  -6  16  10 2071.41 192.669   6
   6  16 -10 1972.10 185.730  11
  -6  16   9 609.812 114.109   6
   6  16  -9 526.374 120.868  11
  -6  16   8 7213.71 350.440   6
   6  16  -8 8004.21 402.231  11
  -6  16   7 777.766 116.532   6
  -6 -16   7 748.787 112.696   8
   6  16  -7 804.142 130.841  11
  -6  16   6 11647.1 442.841   6
   6  16  -6 11364.3 493.499  11
   6  16  -6 11981.6 472.531   6
   6  16  -5 4875.63 343.893  11
  -6  16   5 5079.27 287.765   6
   6  16  -5 5139.41 312.046   6
  -6  16   4 6695.97 325.226   6
   6  16  -4 7781.20 389.170   6
   6  16  -4 7070.42 420.783  11
   6  16  -3-81.8677 55.3903   6
   6  16  -3 39.9318 58.6750  11
   6  16  -2 5609.51 342.264  11
   6  16  -2 5790.93 339.578   6
   6  16  -1 188.224 81.3908   6
   6  16   0 27198.7 709.114   6
   6  16   1 45.1615 71.9248   6
  -6  16  -1 127.244 59.2641  12
   6  16   2 386.556 100.586   6
  -6  16  -2 547.714 101.790  12
   6  16   3 5104.99 304.756   6
  -6  16  -3 4793.56 275.056  12
   6  16   4 5750.10 310.764   6
  -6  16  -4 5988.39 307.687  12
   6  16   5 119.311 70.9865   6
  -6  16  -5 77.9848 59.0520  12
   6  16   6 8218.17 331.980   6
  -6  16  -6 9199.35 374.164  12
   6  16   7 514.732 85.0483   6
  -6  16  -7 586.736 86.8191  12
  -6  16  -8 6255.34 276.554  12
  -6  16  -9 37.4535 32.9180  12
  -6  16 -10 153.952 42.5698  12
  -6  18  13 1529.82 111.537   6
  -6  18  12 322.307 66.8117   6
  -6  18  11 2343.49 162.154   6
   6  18 -11 2271.77 161.556  11
  -6  18  10 1124.22 121.128   6
   6  18 -10 1022.96 123.262  11
  -6  18   9 5021.40 258.901   6
   6  18  -9 5590.97 290.655  11
  -6  18   8 658.179 104.182   6
   6  18  -8 483.198 100.966  11
   6  18  -7 1473.69 170.461  11
  -6  18   7 1654.39 155.067   6
  -6  18   6 229.465 66.6091   6
   6  18  -6 445.788 83.9767  11
  -6  18   5 15709.5 464.893   6
   6  18  -5 15319.1 509.568   6
   6  18  -5 15371.0 535.587  11
  -6  18   4 2583.52 180.324   6
   6  18  -4 2143.08 204.879  11
   6  18  -4 2773.85 224.315   6
   6  18  -3 11516.2 471.890  11
   6  18  -3 12500.2 470.862   6
   6  18  -2 110.623 94.3933   6
   6  18  -2 181.258 99.9783  11
   6  18  -1 1080.83 147.625   6
   6  18  -1 919.381 139.632  11
   6  18   0 86.2574 61.6029   6
   6  18   0 164.213 84.7174  11
   6  18   1 4015.77 262.310   6
   6  18   2 680.276 123.738   6
   6  18   3 4124.73 252.629   6
   6  18   4 690.563 100.383   6
  -6  18  -4 1042.04 109.851  12
   6  18   5 7278.00 292.987   6
  -6  18  -5 7883.07 290.777  12
   6  18   6 66.5006 81.1564   6
  -6  18  -6 79.5267 45.0819  12
  -6  18  -7 1198.57 103.628  12
  -6  18  -8 782.986 77.9753  12
  -6  20  10 230.827 46.9076   6
   6  20 -10 190.644 46.0809  11
  -6  20   9 351.951 58.2873   6
   6  20  -9 246.505 54.4712  11
  -6  20   8 373.634 66.0028   6
   6  20  -8 440.391 82.3918  11
   6  20  -7 608.408 95.1328  11
  -6  20   7 433.013 73.5422   6
   6  20  -6 5509.67 269.032  11
   6  20  -5 273.556 69.1530  11
   6  20  -4 1646.43 154.195  11
   6  20  -4 1639.73 156.602   6
   6  20  -3 247.016 67.8887   6
   6  20  -3 406.692 83.7899  11
   6  20  -2 759.234 113.289   6
   6  20  -2 838.790 118.268  11
   6  20  -1 90.0909 56.4911   6
   6  20  -1 162.579 68.9744  11
   6  20   0 8181.12 340.158  11
   6  20   0 8725.46 340.396   6
   6  20   1 137.715 60.8879   6
   6  20   1 101.509 62.7498  11
   6  20   2 619.162 90.0810   6
   6  20   2 614.164 97.4024  11
   6  20   3 3577.93 205.223  11
   6  20   3 4244.15 210.223   6
   6  20   4 797.103 91.2975   6
   6  20   4 850.403 99.2620  11
   6  20   5-1.02460 33.2998  11
   6  22  -5 2462.91 133.666  11
   6  22  -4 355.142 61.3563  11
   6  22  -3 3596.18 169.004  11
   6  22  -2 110.411 40.7945  11
   6  22  -1 2647.23 141.321  11
   6  22   0 346.635 52.9941  11
   6  22   1 2140.58 120.114   6
   7  -1 -20 740.652 102.385   7
   7   1 -20 742.730 95.5792   7
   7  -1 -19 6093.58 319.927   7
   7   1 -19 5336.80 282.946   7
   7   1 -18 1380.25 173.000   7
   7  -1 -18 1567.34 193.458   7
   7   1 -17 78.1789 80.4187   7
   7  -1 -17 104.984 83.7255   7
  -7  -1  17 242.516 85.4426   9
  -7   1  16 12530.8 462.910   9
  -7  -1  16 12511.2 458.683   9
  -7   1  15 9902.51 422.642   9
  -7  -1  15 9543.46 427.915   9
  -7   1  14 320.218 106.122   9
  -7  -1  14 347.110 101.508   9
  -7  -1  14 267.836 230.036   3
  -7   1  13 5160.44 311.016   9
  -7  -1  13 5753.27 318.124   9
  -7  -1  13 5663.27 325.630   8
  -7  -1  13 5345.48 812.377   3
  -7   1  13 5601.78 817.855   3
  -7  -1  13 5900.96 298.763  10
  -7   1  12 1604.06 180.345   9
  -7  -1  12 1559.75 181.359   8
  -7   1  12 1802.53 181.004  10
  -7   1  12 1670.67 465.029   3
  -7   1  12 1683.94 208.539   8
  -7  -1  12 1891.83 173.862  10
  -7  -1  12 1898.13 461.340   3
  -7   1  11 10580.5 408.870   8
  -7  -1  11 10797.4 417.722   8
  -7   1  11 10375.8 378.670  10
  -7   1  11 11576.8 1088.99   3
  -7  -1  11 11646.9 1072.86   3
  -7  -1  11 10989.9 381.843  10
  -7   1  10 30352.5 1621.29   3
  -7  -1  10 30927.2 1636.39   3
  -7  -1   9 2165.10 365.299   1
  -7   1   9 3017.10 500.882   3
  -7  -1   9 2841.08 472.907   3
  -7  -1   8 8857.70 724.633   1
  -7   1   8 10760.7 861.506   3
  -7  -1   8 10757.0 860.497   3
  -7   1   7 16841.8 1005.32   3
  -7  -1   7 14308.8 898.107   1
  -7  -1   7 16536.4 988.959   3
  -7  -1   6 571.789 176.006   3
  -7  -1   6 541.193 205.964   1
  -7   1   6 516.522 168.769   3
  -7   1   5 75496.8 1787.07   2
  -7   1   5 72692.5 1816.95   3
  -7  -1   5 73718.3 1791.48   3
  -7   1   4 10516.6 677.560   2
  -7  -1   4 10158.9 627.456   3
  -7  -1   3 1987.30 381.069   2
  -7   1   3 2240.08 359.228   2
  -7  -1   3 2038.40 267.802   3
  -7  -1   2 750.340 238.394   2
  -7   1   2 953.115 241.680   2
  -7  -1   1 6962.53 676.555   2
  -7   1   1 7103.92 643.898   2
  -7  -1   1 5120.97 284.530   4
  -7   1   1 6221.20 408.185   4
  -7  -1   0 1783.23 346.121   2
  -7   1   0 1653.73 333.992   2
  -7  -1  -1 36828.9 1647.24   2
  -7   1  -1 38342.5 1629.77   2
  -7  -1  -2 39958.1 1806.78   2
  -7   1  -2 38507.1 1713.54   2
  -7   1  -3 1575.98 383.378   2
  -7  -1  -3 1566.55 377.359   2
  -7  -1  -4 22716.2 1466.52   2
  -7   1  -4 20905.3 1422.47   2
  -7  -1  -5 21983.8 1572.86   2
  -7   1  -5 20293.3 1431.51   2
  -7  -1  -6 377.541 234.263   2
  -7   1  -6 452.238 91.9747   7
  -7  -1  -6 448.179 90.0169   7
  -7   1  -6 512.003 230.842   2
  -7  -1  -7 6580.46 376.018   7
  -7  -1  -7 7098.99 927.963   2
  -7   1  -7 8265.15 1021.87   2
  -7   1  -7 7626.39 387.310   7
  -7   1  -8 61407.2 2900.14   2
  -7   1  -8 59146.7 1128.49   7
  -7  -1  -8 62065.7 2905.15   2
  -7  -1  -8 59778.8 1161.82   7
  -7  -1  -9 157.988 108.963   7
  -7   1  -9 120.936 97.9676   7
  -7   1 -10 139.343 79.1922   7
  -7  -1 -10 91.4862 90.5858   7
  -7   1 -11 14474.2 558.211   7
  -7  -1 -11 13380.6 550.650   7
  -7   1 -12 509.833 115.666   7
  -7  -1 -12 569.904 125.364   7
  -7   1 -13 7855.64 360.062   7
  -7  -1 -13 7834.15 373.789   7
  -7  -1 -14 526.247 91.0649   7
  -7   1 -14 539.381 90.4692   7
  -7   1 -15 196.403 48.3692   7
  -7  -1 -15 77.8536 47.0628   7
   7  -3 -20 170.680 55.5789   7
   7  -3 -19 1326.76 164.501   7
   7   3 -18 132.643 52.1692   7
   7  -3 -18 209.926 80.7821   7
  -7  -3  17 138.949 66.1890   9
   7  -3 -17 116.831 89.3541   7
   7   3 -17 62.3908 66.2431   7
  -7  -3  16 7141.15 347.150   9
  -7   3  15-8.25668 59.7212   9
  -7  -3  15 100.156 71.6343   9
  -7   3  14 5212.40 308.208   9
  -7  -3  14 5578.01 323.359   9
  -7  -3  14 5465.77 334.478   8
  -7  -3  14 5434.97 831.612   3
  -7   3  13 26909.2 692.754   9
  -7  -3  13 28275.0 699.952   9
  -7  -3  13 28532.1 733.733   8
  -7  -3  13 28513.0 655.338  10
  -7  -3  13 27323.5 1814.14   3
  -7  -3  12 570.062 294.310   3
  -7   3  12 643.877 135.869   9
  -7  -3  12 702.846 136.234   8
  -7  -3  12 629.013 102.710  10
  -7   3  12 736.742 117.030  10
  -7   3  11 5881.15 304.330   9
  -7  -3  11 6285.41 330.499   8
  -7  -3  11 5978.34 773.553   3
  -7   3  11 6168.29 292.410  10
  -7  -3  11 6292.70 288.333  10
  -7  -3  10 413.297 209.722   3
  -7  -3  10 566.669 246.309   1
  -7  -3   9 2914.38 462.426   1
  -7  -3   8 799.281 237.254   1
  -7  -3   7 11015.8 876.850   1
  -7  -3   6 53.8852 137.098   1
  -7   3   6 51.4045 45.6857   2
  -7   3   5 36361.0 1050.84   2
  -7  -3   5 38627.7 1546.11   1
  -7   3   4 63331.6 1475.70   2
  -7  -3   4 64693.2 1976.06   1
  -7   3   3 3093.17 356.071   2
  -7  -3   3 2584.29 300.045   3
  -7  -3   2 13599.4 1010.05   2
  -7   3   2 14915.1 830.145   2
  -7   3   2 14273.8 743.086   4
  -7  -3   2 14128.9 550.482   3
  -7   3   1 541.834 135.742   4
  -7  -3   1 558.678 219.616   2
  -7   3   1 808.645 212.634   2
  -7   3   0 125.688 153.059   2
  -7  -3   0 144.361 166.959   2
  -7  -3  -1 7417.08 777.174   2
  -7   3  -1 7783.36 726.808   2
  -7   3  -2 14944.0 1070.60   2
  -7  -3  -2 14637.2 1122.73   2
  -7  -3  -3 724.268 261.424   2
  -7   3  -3 587.201 247.816   2
  -7  -3  -4 8668.57 933.425   2
  -7   3  -4 8979.95 900.336   2
  -7  -3  -5 16370.0 1335.30   2
  -7   3  -5 14644.1 1223.19   2
  -7  -3  -5 15942.1 528.840   7
  -7   3  -6 77.6648 118.979   2
  -7  -3  -6 129.238 192.459   2
  -7  -3  -6 167.772 84.2012   7
  -7   3  -6 41.6588 37.4732  12
  -7   3  -6 66.0738 66.7085   7
  -7  -3  -7 5806.55 351.104   7
  -7   3  -7 5722.04 277.910  12
  -7  -3  -7 5470.87 830.102   2
  -7   3  -7 5298.99 313.543   7
  -7   3  -7 5324.82 809.046   2
  -7  -3  -8 11112.8 495.582   7
  -7  -3  -8 11383.4 1240.19   2
  -7   3  -8 11147.6 471.303   7
  -7   3  -8 10743.5 1202.63   2
  -7   3  -8 11036.9 399.155  12
  -7  -3  -9 3072.06 300.115   7
  -7   3  -9 909.307 153.399   7
  -7  -3 -10 328.177 122.827   7
  -7   3 -10 320.438 108.040   7
  -7   3 -11 37929.9 869.525   7
  -7  -3 -11 38522.9 948.770   7
  -7   3 -12 900.559 123.852   7
  -7  -3 -12 1063.22 154.243   7
  -7   3 -13 1911.21 169.051   7
  -7  -3 -13 2081.46 195.518   7
  -7  -3 -14 1377.19 145.665   7
  -7  -3 -15 150.414 51.9494   7
   7  -5 -20 1092.64 121.602   7
   7  -5 -19 1411.67 157.345   7
   7  -5 -18 2201.33 214.849   7
  -7  -5  17 2016.49 160.778   9
   7  -5 -17 1579.20 224.033   7
  -7  -5  16 13420.7 452.577   9
  -7  -5  15 326.229 92.5006   9
  -7  -5  14 2693.38 608.570   3
  -7   5  14 2884.53 229.564   9
  -7  -5  14 2625.08 224.199   9
  -7  -5  14 2741.72 235.451   8
  -7   5  13 5837.97 300.258   9
  -7  -5  13 6016.37 347.575   8
  -7  -5  13 5952.15 871.422   3
  -7  -5  12 759.535 336.934   3
  -7  -5  12 703.047 112.903  10
  -7  -5  12 637.897 134.774   8
  -7   5  12 639.159 107.218   9
   7   5 -12 736.932 115.836  11
  -7   5  11 5284.36 283.656   9
  -7  -5  11 5589.79 339.335   8
  -7  -5  11 4448.12 692.885   1
   7   5 -11 5263.49 285.734  11
  -7   5  11 5207.48 261.339  10
  -7  -5  11 5485.80 270.749  10
  -7  -5  10 2764.61 217.759   8
  -7  -5  10 2091.85 442.381   1
  -7  -5   9 8633.60 858.353   1
  -7  -5   8 149311. 3414.31   1
  -7  -5   7 158786. 3429.96   1
  -7  -5   6 126672. 2996.31   1
  -7  -5   5 2744.55 502.574   1
  -7  -5   4 33261.9 1560.65   1
  -7   5   4 30977.7 1355.24   4
  -7  -5   3 1649.21 388.797   1
  -7   5   3 1778.44 343.905   4
  -7   5   3 2126.20 266.840   2
  -7   5   2 14757.3 793.441   2
  -7   5   2 13840.6 836.380   4
  -7   5   1 10778.2 742.012   2
  -7  -5   1 10299.4 938.624   2
  -7  -5   0 6991.22 774.010   2
  -7   5   0 6866.56 635.723   2
  -7  -5  -1 13986.0 1115.06   2
  -7   5  -1 13412.7 953.382   2
  -7  -5  -2 4844.33 698.312   2
  -7   5  -2 5250.36 621.680   2
  -7   5  -3 756.468 259.097   2
  -7  -5  -3 931.739 296.098   2
  -7   5  -4 44138.3 2089.95   2
  -7  -5  -4 47847.5 2282.37   2
  -7  -5  -5 4928.91 299.634   7
  -7  -5  -5 4741.11 762.828   2
  -7   5  -5 5159.68 734.082   2
  -7   5  -5 5453.60 275.563  12
  -7   5  -6 1514.15 441.440   2
  -7   5  -6 1233.51 142.919   7
  -7   5  -6 1173.37 127.414  12
  -7  -5  -6 1035.03 148.047   7
  -7  -5  -6 1170.17 395.796   2
  -7  -5  -7 2768.74 248.523   7
  -7  -5  -7 2866.39 633.051   2
  -7   5  -7 2817.13 228.971   7
  -7   5  -7 3843.33 293.904  12
  -7  -5  -8 15379.2 586.203   7
  -7   5  -8 15091.1 494.471  12
  -7  -5  -8 13705.7 1349.96   2
  -7   5  -8 14160.0 517.612   7
  -7   5  -9 546.497 114.986   7
  -7  -5  -9 743.226 142.485   7
  -7   5  -9 610.483 96.5743  12
  -7   5 -10 7540.84 371.317   7
  -7  -5 -10 8066.07 431.870   7
  -7   5 -10 7449.11 348.618  12
  -7  -5 -11 5891.05 364.615   7
  -7   5 -11 3743.39 234.047  12
  -7  -5 -12 1837.76 194.988   7
  -7  -5 -13 7365.73 354.911   7
  -7  -5 -14 947.239 115.898   7
  -7  -5 -15 100.821 31.9722   7
   7  -7 -20 466.122 68.0956   7
   7  -7 -19 1378.47 138.853   7
   7  -7 -18 64.6433 61.9953   7
   7  -7 -17 208.910 87.0838   7
  -7  -7  16 156.590 49.3885   9
   7  -7 -16 97.5222 79.1153   7
  -7  -7  15 570.817 121.020   9
  -7  -7  15 713.914 129.798   8
  -7  -7  14 14939.6 492.070   9
  -7  -7  14 15071.2 534.735   8
  -7  -7  13 15965.7 555.157   8
   7   7 -13 16142.1 551.198  11
  -7  -7  13 14865.1 1428.39   3
  -7   7  12 422.858 91.3486   9
  -7  -7  12 238.665 95.0942   8
  -7  -7  12 116.890 193.423   1
   7   7 -12 480.273 162.940  11
  -7  -7  12 400.173 98.6124  10
  -7   7  11 2771.31 188.424   9
  -7  -7  11 3154.31 242.721   8
   7   7 -11 2936.86 231.198  11
  -7  -7  11 2928.74 200.606  10
  -7  -7  10 1614.38 172.015   8
   7   7 -10 1790.81 177.663  11
  -7  -7   9 566.296 298.454   1
  -7  -7   9 539.321 93.1819   8
  -7  -7   8 23629.5 1519.18   1
  -7  -7   7 29616.1 1690.13   1
  -7   7   7 32251.4 1689.91   4
  -7   7   6 357.181 233.532   4
  -7  -7   6 16.5257 126.253   1
  -7  -7   5 23067.2 1409.06   1
  -7   7   5 22912.0 1328.23   4
  -7  -7   4 7804.65 820.546   1
  -7   7   4 7736.74 751.625   4
  -7  -7   3 1065.46 336.298   1
  -7   7   3 1059.02 277.030   4
  -7  -7   2 34256.7 1701.35   1
  -7  -7   1 32774.1 1773.20   2
  -7  -7   0 6555.54 801.064   2
  -7   7   0 7032.37 656.289   2
  -7   7  -1 136.165 101.426   2
  -7  -7  -1 75.6516 124.470   2
  -7   7  -2 512.088 233.262   2
  -7  -7  -2 433.982 255.989   2
  -7  -7  -3 7761.74 933.078   2
  -7   7  -3 7475.17 322.038  12
  -7  -7  -4 50044.2 2421.73   2
  -7  -7  -4 49201.8 917.442   7
  -7   7  -4 49776.1 867.112  12
  -7   7  -5 10357.4 404.775  12
  -7  -7  -5 8576.29 1040.12   2
  -7  -7  -5 9423.61 420.126   7
  -7   7  -6 23187.0 635.361  12
  -7  -7  -6 24451.1 743.967   7
  -7  -7  -7 577.246 115.248   7
  -7  -7  -7 890.380 412.158   2
  -7   7  -7 730.398 129.200  12
  -7   7  -8 8902.65 394.909  12
  -7  -7  -8 8853.97 440.941   7
  -7  -7  -9 468.638 103.634   7
  -7   7  -9 632.743 109.638  12
  -7   7 -10 28872.1 709.149  12
  -7  -7 -10 29832.7 818.261   7
  -7   7 -11 2294.23 185.705  12
  -7  -7 -11 3293.60 265.591   7
  -7  -7 -12 122.257 57.6232   7
  -7   7 -12 188.036 53.6223  12
  -7   7 -13 3466.39 174.300  12
  -7  -7 -13 3799.73 238.437   7
  -7  -7 -14 290.297 63.4859   7
  -7   9  19 2258.50 132.471   6
   7  -9 -19 1597.49 121.545   7
   7  -9 -18 2100.22 174.267   7
   7  -9 -17 0.06567 40.6893   7
   7  -9 -16 2517.20 244.892   7
  -7  -9  15 86.0223 52.1446   8
   7  -9 -15 135.664 63.0464   7
  -7  -9  14 95.7882 63.7988   9
  -7  -9  14 97.2158 68.8486   8
  -7  -9  13 1337.24 149.632   9
   7   9 -13 1685.71 183.886  11
  -7  -9  13 1248.53 167.426   8
  -7  -9  12 149.092 87.1979   8
   7   9 -12 246.996 90.2468  11
  -7  -9  11 8425.37 1075.30   1
  -7  -9  11 9334.09 408.912   8
  -7   9  11 9096.86 1088.60   4
   7   9 -11 9149.77 422.323  11
  -7  -9  10 10013.2 1130.14   1
  -7   9  10 10248.8 1122.74   4
  -7  -9  10 11261.6 443.195   8
   7   9 -10 11352.7 461.288  11
  -7  -9   9 137.996 49.6658  13
  -7  -9   9 74.9376 138.285   1
  -7  -9   9 62.8443 61.6012   8
  -7   9   9 142.627 171.556   4
   7   9  -9 114.447 78.1055  11
  -7  -9   8 23362.0 1673.68   1
  -7  -9   8 24137.7 532.182  13
  -7   9   8 26118.2 1710.65   4
   7   9  -8 26265.6 661.322  11
  -7   9   7 8462.19 952.505   4
  -7  -9   7 8258.64 976.292   1
   7   9  -7 7611.93 345.106   6
   7   9  -7 6884.19 347.119  11
  -7  -9   6 44.1699 171.771   1
  -7   9   6 94.8578 119.218   4
  -7   9   5 5480.14 712.183   4
  -7  -9   5 5824.27 794.201   1
  -7   9   4 10649.8 959.297   4
  -7  -9   4 11103.8 1093.06   1
  -7  -9   3 2635.29 522.588   1
  -7  -9   2 25130.3 1577.73   1
  -7  -9   1 149.502 194.121   2
  -7  -9   0 528.895 252.948   2
  -7  -9  -1 10251.8 1095.15   2
  -7   9  -1 9722.59 376.024  12
  -7  -9  -2 4811.71 771.384   2
  -7   9  -2 5003.77 268.842  12
  -7  -9  -3 2051.82 527.285   2
  -7   9  -3 1722.98 168.780  12
  -7  -9  -4 15121.4 1372.84   2
  -7   9  -4 16793.5 530.918  12
   7  -9   5 23519.7 1701.08   1
  -7  -9  -5 23745.3 1726.93   2
  -7  -9  -5 24374.1 666.739   7
  -7   9  -5 26821.0 685.743  12
  -7  -9  -6 55.6825 64.6309   7
   7  -9   6 7.81995 174.199   1
  -7   9  -6 90.1765 61.7788  12
  -7  -9  -7 4752.63 312.936   7
  -7   9  -7 4805.44 297.037  12
  -7  -9  -8 4673.53 316.278   7
  -7   9  -8 4892.41 303.629  12
  -7  -9  -9 185.827 76.0932   7
  -7   9  -9 198.088 77.2431  12
  -7  -9 -10 1329.86 165.727   7
  -7   9 -10 1514.65 157.603  12
  -7   9 -11 3224.96 216.540  12
  -7  -9 -11 3171.39 241.235   7
  -7  -9 -12 304.646 68.9805   7
  -7   9 -12 286.677 60.4269  12
  -7   9 -13 5632.00 210.144  12
  -7  -9 -13 5433.61 241.334   7
  -7  11  18 69.4187 40.5062   6
  -7  11  17 428.112 77.5171   6
   7 -11 -17 371.887 77.6024   7
   7 -11 -16 1858.33 174.603   7
   7 -11 -15 3450.73 256.675   7
  -7 -11  14 2688.60 209.644   8
   7 -11 -14 1858.91 205.998   7
  -7 -11  13 5684.79 315.660   8
   7  11 -13 6277.44 342.230  11
  -7 -11  12 144.199 75.4319   8
   7  11 -12 521.578 115.100  11
   7  11 -11 3436.30 267.679  11
  -7 -11  11 2735.67 227.812   8
   7  11 -10 190.976 87.8214  11
  -7  11  10 131.170 192.361   4
  -7 -11  10 185.100 85.5955   8
   7  11  -9 33.6438 79.8647  11
  -7 -11   9 92.9875 69.2337   8
  -7 -11   9 123.024 181.336   1
  -7  11   9-100.322 159.854   4
   7  11  -8 514.787 115.953  11
  -7 -11   8 732.538 122.484   8
  -7 -11   8 414.434 245.380   1
  -7  11   8 624.027 272.877   4
  -7 -11   7 11026.4 1206.70   1
  -7  11   7 11395.7 1157.32   4
   7  11  -7 10431.5 447.582  11
   7  11  -7 10268.3 426.976   6
   7  11  -6 458.205 102.561   6
   7  11  -6 246.870 88.0197  11
  -7  11   6 529.840 246.453   4
  -7 -11   6 597.853 296.903   1
  -7 -11   5 26010.9 1795.28   1
   7  11  -5 26829.1 680.905  11
   7  11  -5 25255.9 646.486   6
  -7 -11   4 5314.93 798.327   1
   7  11  -4 4724.99 276.005   6
  -7 -11   3 326.161 226.060   1
   7  11  -3 216.645 76.2946   6
  -7  11   3 79.6633 37.2521  12
  -7 -11   2 31092.4 1908.55   1
  -7  11   2 27327.7 621.024  12
   7  11  -2 29253.8 659.808   6
  -7 -11   1 6388.09 929.244   2
  -7  11   1 7687.56 328.145  12
   7  11  -1 6990.80 321.568   6
   7  11   0 384.932 84.6450   6
   7 -11   0 260.846 179.633   1
  -7 -11   0 529.490 333.397   2
  -7  11   0 282.949 76.6668  12
   7  11   1 9343.36 373.892   6
  -7 -11  -1 9026.90 1077.25   2
   7 -11   1 9312.47 897.213   1
  -7  11  -1 9480.70 386.947  12
   7  11   2 21169.7 565.592   6
   7 -11   2 23996.3 1523.63   1
  -7 -11  -2 21335.7 1650.07   2
  -7 -11  -3-42.7951 237.501   2
  -7  11  -3 23.3138 47.8492  12
   7 -11   3 57.7709 156.216   1
   7 -11   4 29225.7 1783.61   1
  -7  11  -4 26886.3 711.960  12
  -7  11  -5 6555.03 352.589  12
  -7  11  -6 3389.71 252.465  12
  -7  11  -7 17203.2 577.327  12
  -7  11  -8 7805.21 379.783  12
  -7 -11  -8 6658.46 340.255   7
  -7  11  -9 4262.84 269.681  12
  -7 -11  -9 3638.24 239.908   7
  -7 -11 -10 18511.4 518.726   7
  -7  11 -10 19340.6 544.110  12
  -7 -11 -11 1736.56 148.414   7
  -7  11 -11 1668.69 143.915  12
  -7  11 -12 1415.91 117.619  12
  -7 -11 -12 1400.94 117.408   7
  -7  13  17 977.336 93.2245   6
  -7  13  16 2634.38 176.723   6
  -7  13  15 333.703 76.3001   6
  -7  13  14 551.086 102.574   6
  -7 -13  13 705.143 109.330   8
  -7  13  13 773.258 117.916   6
   7  13 -13 756.031 123.614  11
  -7 -13  12 52.9802 53.2580   8
  -7  13  12 112.719 66.1703   6
   7  13 -12 65.5980 72.1338  11
  -7  13  11 1405.12 163.354   6
  -7 -13  11 1365.99 152.760   8
   7  13 -11 1540.15 187.531  11
  -7 -13  10 2418.97 206.276   8
  -7  13  10 2214.74 203.190   6
   7  13 -10 2572.58 243.060  11
  -7 -13   9 86.7138 77.0421   8
  -7  13   9 128.823 64.8899   6
   7  13  -9 36.1998 73.7958  11
  -7  13   8 2299.43 198.414   6
  -7 -13   8 2473.71 213.561   8
   7  13  -8 2629.64 247.450  11
  -7  13   7 1958.31 186.022   6
   7  13  -7 1952.04 212.403  11
  -7 -13   7 1909.29 534.894   1
   7  13  -7 2296.10 215.467   6
   7  13  -6 372.663 91.8876   6
  -7  13   6 319.400 84.0550   6
   7  13  -6 219.087 68.0507  11
  -7  13   5 21120.9 566.235   6
   7  13  -5 23084.7 644.222   6
   7  13  -5 21471.7 656.809  11
   7  13  -4 10220.8 445.786  11
  -7 -13   4 9507.96 1179.38   1
   7  13  -4 9570.97 411.713   6
  -7 -13   3 1677.49 545.019   1
   7  13  -3 2259.01 197.159   6
   7  13  -2 237.878 79.9714   6
  -7 -13   2 563.147 300.836   2
  -7  13   2 345.346 73.4189  12
   7  13  -1 2952.24 237.321   6
  -7  13   1 3451.13 235.905  12
  -7 -13   0 27336.9 1918.26   2
  -7  13   0 28991.1 693.011  12
   7  13   0 31460.8 732.541   6
   7  13   1 19857.6 579.539   6
  -7  13  -1 18120.6 560.945  12
   7  13   2 12563.2 466.655   6
  -7  13  -2 13815.6 501.307  12
   7  13   3 1450.04 160.767   6
  -7  13  -3 1183.22 146.011  12
   7  13   4 4606.06 269.044   6
  -7  13  -4 4785.29 306.259  12
  -7  13  -5 10833.4 446.621  12
  -7  13  -6 90.4682 49.9981  12
  -7  13  -7 5194.75 310.593  12
  -7  13  -8 6103.48 325.012  12
  -7  13  -9 200.307 65.6348  12
  -7  13 -10 7036.93 296.160  12
  -7  13 -11 2270.20 149.584  12
  -7  15  16 1049.23 90.4106   6
  -7  15  15 748.452 91.7724   6
  -7  15  14 1006.76 112.627   6
  -7  15  13 1786.75 160.908   6
   7  15 -13 1803.19 165.700  11
  -7  15  12 571.073 102.865   6
   7  15 -12 504.554 96.7657  11
  -7  15  11 2950.44 226.190   6
   7  15 -11 2988.66 235.900  11
  -7  15  10 2616.29 219.745   6
  -7 -15  10 2528.16 194.517   8
   7  15 -10 2854.17 237.803  11
  -7  15   9 87.9911 57.2466   6
  -7 -15   9-43.4344 53.1484   8
   7  15  -9-4.52196 69.0721  11
  -7  15   8 1112.76 146.285   6
  -7 -15   8 1006.34 136.435   8
   7  15  -8 869.394 134.980  11
  -7  15   7 13633.7 472.903   6
  -7 -15   7 13840.2 477.538   8
   7  15  -7 14539.8 554.420  11
  -7  15   6 3547.55 242.863   6
   7  15  -6 3778.48 282.693  11
   7  15  -6 3416.93 251.633   6
  -7  15   5 2424.21 199.195   6
   7  15  -5 2929.74 251.549  11
   7  15  -5 2698.43 225.465   6
   7  15  -4 1651.97 189.573  11
   7  15  -4 1818.71 191.846   6
   7  15  -3 1676.46 192.945  11
   7  15  -3 1734.23 183.876   6
   7  15  -2 6599.42 349.019   6
  -7  15   1 6513.58 322.633  12
   7  15  -1 5433.63 323.142   6
   7  15   0 43.9156 56.8758   6
  -7  15   0 95.9966 43.3485  12
  -7  15  -1 1353.07 156.200  12
   7  15   1 1049.79 149.388   6
   7  15   2 30404.5 723.170   6
  -7  15  -2 32566.0 740.032  12
  -7  15  -3 5510.96 304.233  12
   7  15   3 5057.62 296.241   6
  -7  15  -4 1260.24 160.240  12
   7  15   4 1720.17 174.312   6
  -7  15  -5 9239.04 390.209  12
   7  15   5 7816.97 331.315   6
  -7  15  -6 3269.04 226.728  12
  -7  15  -7 8540.82 357.387  12
  -7  15  -8 1408.27 137.451  12
  -7  15  -9 19.3578 35.2887  12
  -7  15 -10 1578.84 116.175  12
  -7  17  14 1191.56 98.0366   6
  -7  17  13 3625.54 187.150   6
  -7  17  12 77.7884 45.9027   6
   7  17 -12 98.8487 43.0936  11
  -7  17  11 2737.60 188.846   6
   7  17 -11 2478.82 181.098  11
  -7  17  10 528.439 95.3935   6
   7  17 -10 716.136 118.946  11
  -7  17   9 158.995 66.6496   6
   7  17  -9 154.422 81.4925  11
  -7  17   8 9057.92 365.525   6
   7  17  -8 9550.08 416.851  11
  -7 -17   7 5693.23 275.965   8
  -7  17   7 6271.60 300.334   6
   7  17  -7 5858.02 337.461  11
  -7  17   6 2044.92 174.374   6
  -7 -17   6 1897.46 174.702   8
   7  17  -6 2418.70 221.150  11
   7  17  -6 2312.50 214.265   6
   7  17  -5 13183.0 486.123   6
   7  17  -5 12212.2 490.502  11
   7  17  -4 2355.23 210.937   6
   7  17  -4 2345.51 223.694  11
   7  17  -3 24.8404 66.6022   6
   7  17  -3-38.0130 59.8544  11
   7  17  -2 4645.03 307.620  11
   7  17  -2 4622.75 294.049   6
   7  17  -1 9720.15 432.598  11
   7  17  -1 10281.4 427.071   6
   7  17   0 1741.79 188.468   6
  -7  17  -1 1070.47 120.504  12
   7  17   1 1269.66 154.794   6
   7  17   2 27.4514 68.7118   6
  -7  17  -2 97.0784 47.7142  12
  -7  17  -3 3125.52 210.225  12
   7  17   3 3435.81 231.013   6
  -7  17  -4 14750.7 446.112  12
   7  17   4 12860.2 410.484   6
   7  17   5 1675.04 138.493   6
  -7  17  -5 1958.01 156.836  12
  -7  17  -6 91.9760 41.6139  12
  -7  17  -7 11119.8 333.999  12
  -7  17  -8 927.214 93.4584  12
  -7  19  11 410.173 61.2290   6
   7  19 -11 489.346 69.1680  11
  -7  19  10 1841.79 129.929   6
   7  19 -10 1870.26 137.781  11
  -7  19   9 226.504 56.4732   6
   7  19  -9 201.446 60.6671  11
  -7  19   8 1008.48 104.148   6
   7  19  -8 904.983 117.395  11
  -7  19   7 2573.89 162.275   6
   7  19  -7 3042.74 211.971  11
   7  19  -6 758.185 120.496  11
   7  19  -5 313.676 86.7055  11
   7  19  -4 2133.46 193.121  11
   7  19  -4 2358.84 190.512   6
   7  19  -3 862.245 123.061   6
   7  19  -3 759.727 126.582  11
   7  19  -2 2721.80 206.706   6
   7  19  -2 2209.21 195.641  11
   7  19  -1 9983.21 402.315  11
   7  19  -1 9968.25 382.548   6
   7  19   0 136.311 65.6174   6
   7  19   0 164.087 77.9173  11
   7  19   1 428.788 86.5028   6
   7  19   1 487.178 98.0754  11
   7  19   2 5954.33 292.200  11
   7  19   2 5926.80 270.909   6
   7  19   3 295.960 58.0965   6
   7  19   3 456.065 89.3857  11
   7  19   4 2608.98 174.473  11
   7  19   4 2366.40 148.901   6
   7  19   5 1354.96 116.003  11
   7  19   6 47.7519 29.8854  11
   7  21  -8 3471.37 157.903  11
   7  21  -7 342.255 55.4370  11
   7  21  -6 682.951 82.5453  11
   7  21  -5 2878.83 168.391  11
   7  21  -4 2398.74 160.978  11
   7  21  -3 472.023 76.8544  11
   7  21  -2 3404.11 191.278  11
   7  21  -1 769.426 94.2522  11
   7  21  -1 1076.54 104.456   6
   7  21   0 90.3275 46.1850   6
   7  21   0 40.8337 42.2192  11
   7  21   1 2376.32 148.190  11
   7  21   1 2376.37 141.219   6
   7  21   2 558.910 70.4779  11
   8   0 -20 5435.50 248.584   7
   8   0 -19 401.211 113.506   7
   8   0 -18 1147.20 160.106   7
  -8   0  17 27.3337 57.8857   9
  -8   0  16 1333.00 168.940   9
  -8   0  15 301.530 110.602   9
  -8   0  14 7726.82 387.615   9
  -8   0  14 6680.99 938.849   3
  -8   0  13 78.9837 75.7117  10
  -8   0  13 71.8225 75.5465   9
  -8   0  13 29.0411 91.8098   8
  -8   0  13 160.130 253.586   3
  -8   0  12 20375.3 588.468   8
  -8   0  12 19892.8 1508.14   3
  -8   0  12 19959.8 547.900  10
  -8   0  11-27.6387 49.6735  10
  -8   0  11 81.1718 68.5286   8
  -8   0  11 9.33571 167.427   3
  -8   0  10 1110.07 374.164   3
  -8   0   9-36.9696 171.025   3
  -8   0   8 16429.3 1095.29   3
  -8   0   7 42.5615 123.246   3
  -8   0   6 197239. 3266.58   3
  -8   0   5 28.0944 103.206   2
  -8   0   5-109.151 117.639   3
  -8   0   4 21039.6 1103.99   2
  -8   0   3 31.9665 94.5042   2
  -8   0   2 881.231 266.310   2
  -8   0   1-116.911 158.975   2
  -8   0   0 30305.5 1529.92   2
  -8   0  -1-46.2962 146.105   2
  -8   0  -2 66653.2 2453.42   2
  -8   0  -3 52.3887 111.305   2
  -8   0  -4 2752.99 562.526   2
  -8   0  -5 281.608 241.115   2
  -8   0  -5 95.3528 62.6509   7
  -8   0  -6 59484.8 2756.95   2
  -8   0  -6 56971.4 1080.34   7
  -8   0  -7 19.4590 54.6925   7
  -8   0  -7 103.235 118.114   2
  -8   0  -8 3635.12 288.025   7
  -8   0  -9-60.5574 64.2523   7
  -8   0 -10 16661.7 618.414   7
  -8   0 -11 11.3071 57.0382   7
  -8   0 -12 10124.9 427.715   7
  -8   0 -13 42.8451 42.3199   7
  -8   0 -14 6601.85 267.245   7
   8  -2 -20 23.6734 35.7002   7
   8   2 -19-4.18043 38.6563   7
   8  -2 -19 132.490 68.6512   7
   8   2 -18 13.9303 47.1363   7
   8  -2 -18-0.33414 49.5854   7
  -8  -2  17 11792.1 433.509   9
   8   2 -17 7824.60 451.450   7
  -8   2  16 306.968 86.2627   9
  -8  -2  16 244.849 82.4381   9
  -8   2  15 3925.14 272.139   9
  -8  -2  15 3928.29 282.543   9
  -8   2  14 94.8041 76.8201   9
  -8  -2  14 118.418 73.8852   9
  -8  -2  14 230.234 103.283   8
  -8  -2  14-102.549 183.507   3
  -8   2  13 7320.17 388.543   9
  -8  -2  13 6878.03 364.515   8
  -8  -2  13 7528.69 970.341   3
  -8   2  13 6694.01 332.801  10
  -8  -2  13 6940.69 333.522  10
  -8  -2  12 67.1660 157.738   3
  -8   2  12 34.8943 70.7930  10
  -8  -2  12 262.941 95.1943  10
  -8   2  12 44.9940 54.0769   9
  -8  -2  12 113.367 65.0778   8
  -8   2  11 23756.6 604.090   8
  -8  -2  11 23290.1 619.070   8
  -8  -2  11 24281.0 1567.19   3
  -8   2  11 23426.5 566.532  10
  -8  -2  11 23601.0 576.001  10
  -8  -2  10 1271.61 385.572   3
  -8  -2  10 1140.05 296.265   1
  -8  -2   9 36172.5 1614.08   1
  -8  -2   9 41984.5 1820.20   3
  -8  -2   8 227.728 173.785   3
  -8  -2   8 159.721 140.731   1
  -8  -2   7 833.915 338.508   1
  -8  -2   7 801.720 290.243   3
  -8   2   7 806.245 199.860   2
  -8  -2   6 22.7438 99.0840   3
  -8   2   6 39.0459 68.6344   2
  -8   2   5 2187.14 338.020   2
  -8  -2   5 2408.46 380.721   3
  -8   2   4 698.098 194.246   2
  -8  -2   4 810.078 193.281   3
  -8  -2   3 19663.0 1205.85   2
  -8   2   3 19491.2 1033.17   2
  -8  -2   2 16735.0 1119.67   2
  -8   2   2 18726.8 1052.36   2
  -8   2   2 17141.4 791.897   4
  -8  -2   1 45393.6 1921.67   2
  -8   2   1 48373.9 1760.04   2
  -8  -2   0 4643.84 645.599   2
  -8   2   0 5614.13 650.049   2
  -8  -2  -1 25714.6 1533.13   2
  -8   2  -1 26130.4 1407.81   2
  -8  -2  -2 31.1219 102.936   2
  -8   2  -2 112.889 131.662   2
  -8  -2  -3 36461.9 1930.30   2
  -8   2  -3 34824.5 1861.36   2
  -8   2  -4 2568.13 518.937   2
  -8  -2  -4 2463.48 211.159   7
  -8  -2  -4 2364.57 520.476   2
  -8  -2  -5 516.111 258.808   2
  -8  -2  -5 320.427 77.9543   7
  -8   2  -5 392.321 85.5684   7
  -8   2  -5 332.376 258.966   2
  -8  -2  -6 3244.18 637.163   2
  -8   2  -6 3470.66 257.773   7
  -8   2  -6 3518.85 653.710   2
  -8  -2  -6 3158.41 256.054   7
  -8   2  -7 4798.47 830.636   2
  -8  -2  -7 4316.78 781.025   2
  -8   2  -7 4456.65 310.144   7
  -8  -2  -7 4361.88 312.800   7
  -8   2  -8 3917.86 295.489   7
  -8  -2  -8 4406.69 315.282   7
  -8   2  -9 10542.3 475.763   7
  -8  -2  -9 10011.1 487.549   7
  -8   2 -10 12412.9 516.110   7
  -8  -2 -10 13436.5 558.427   7
  -8   2 -11 2256.08 209.432   7
  -8  -2 -11 2448.38 232.949   7
  -8   2 -12 888.508 119.766   7
  -8  -2 -12 753.149 123.915   7
  -8   2 -13 736.207 107.325   7
  -8  -2 -13 742.866 110.813   7
  -8  -2 -14 352.589 73.5012   7
   8  -4 -20 850.622 106.519   7
   8  -4 -19 1185.19 145.551   7
   8  -4 -18 86.5213 69.7054   7
   8   4 -18 106.334 56.3015   7
  -8  -4  17 221.382 74.8120   9
   8   4 -17 70.2659 52.0826   7
  -8  -4  16 595.730 113.832   9
  -8   4  15 852.374 138.649   9
  -8  -4  15 806.092 137.117   9
  -8  -4  15 934.235 152.199   8
  -8   4  14 17333.2 540.909   9
  -8  -4  14 17724.9 568.457   9
  -8  -4  14 17945.2 600.675   8
  -8  -4  13 828.304 374.132   3
  -8  -4  13 928.073 133.121  10
  -8   4  13 790.898 127.663   9
  -8  -4  13 838.928 143.067   8
  -8   4  12 16590.7 527.588   9
  -8  -4  12 17521.5 573.343   8
  -8  -4  12 17764.3 1423.76   3
  -8   4  12 16586.0 498.259  10
  -8  -4  12 16837.7 504.054  10
  -8   4  11 3184.77 225.561   9
  -8  -4  11 3104.78 243.368   8
  -8  -4  11 3861.56 654.707   3
  -8   4  11 3182.32 209.242  10
  -8  -4  11 3321.98 216.714  10
  -8  -4  10 21370.5 521.865  13
  -8  -4  10 22230.2 590.652   8
  -8  -4   9 3708.21 571.036   1
  -8  -4   8 24885.3 1450.62   1
  -8  -4   7 15360.1 1115.81   1
  -8  -4   6 136630. 3259.54   1
  -8  -4   5 1035.27 296.325   1
  -8   4   4 1568.11 356.896   4
  -8   4   4 1000.17 242.585   2
  -8  -4   4 1437.90 341.114   3
  -8   4   3 4798.27 477.860   2
  -8   4   3 4642.07 493.159   4
  -8  -4   3 5241.42 394.175   3
  -8  -4   2 7612.16 842.259   2
  -8   4   2 8235.58 704.336   2
  -8   4   2 8227.24 635.913   4
  -8  -4   1 1980.98 446.060   2
  -8   4   1 2860.18 459.597   2
  -8  -4   0 17332.5 1298.71   2
  -8   4   0 16720.8 1108.48   2
  -8  -4  -1 24777.1 1544.20   2
  -8   4  -1 23960.1 1385.03   2
  -8  -4  -2 74384.6 2791.65   2
  -8   4  -2 71684.3 2495.29   2
  -8  -4  -3 1473.94 424.687   2
  -8   4  -3 1014.01 348.059   2
  -8  -4  -4 12361.2 1215.85   2
  -8   4  -4 11482.7 1096.27   2
  -8  -4  -4 10662.2 450.456   7
  -8   4  -4 11863.8 400.809  12
  -8  -4  -5 6311.86 924.634   2
  -8   4  -5 6412.36 341.383   7
  -8  -4  -5 6851.51 397.183   7
  -8   4  -5 6170.03 854.852   2
  -8   4  -5 6180.43 299.695  12
  -8   4  -6 8539.90 1035.80   2
  -8  -4  -6 9309.17 1153.17   2
  -8   4  -6 8722.67 407.880   7
  -8  -4  -6 9327.97 437.630   7
  -8   4  -6 9256.73 375.626  12
  -8   4  -7 472.279 275.779   2
  -8   4  -7 186.647 68.9072   7
  -8  -4  -7 439.331 122.336   7
  -8   4  -7 204.728 63.9751  12
  -8  -4  -7 557.069 329.223   2
  -8   4  -8 5649.66 297.110  12
  -8   4  -8 5602.39 336.208   7
  -8  -4  -8 6336.62 385.642   7
  -8  -4  -9 429.539 118.186   7
  -8   4  -9 449.543 100.459   7
  -8   4  -9 402.266 95.2048  12
  -8   4 -10 1913.97 191.346   7
  -8  -4 -10 1774.42 206.623   7
  -8   4 -11 3008.74 226.523   7
  -8  -4 -11 2352.01 224.388   7
  -8   4 -12 8299.33 339.536   7
  -8  -4 -12 8463.49 391.579   7
  -8  -4 -13 432.671 85.8413   7
  -8  -4 -14 2285.75 155.997   7
   8  -6 -20-65.6699 36.6722   7
   8  -6 -19 641.114 105.809   7
   8  -6 -18-7.66055 50.3757   7
  -8  -6  17 108.525 55.5799   9
   8  -6 -17-18.3120 52.7011   7
  -8  -6  16 874.916 126.515   9
  -8  -6  15 18247.6 544.870   9
  -8  -6  15 17095.3 576.831   8
  -8  -6  14 461.176 104.264   9
  -8   6  14 409.426 96.2655   9
  -8  -6  14 219.919 87.0349   8
  -8  -6  13 1328.55 420.608   3
  -8   6  13 1208.01 141.570   9
  -8  -6  13 1624.01 193.348   8
   8   6 -13 1080.87 144.587  11
  -8  -6  13 1298.94 143.237  10
  -8  -6  12 111.677 193.882   3
  -8  -6  12 31.8542 59.0524  10
  -8   6  12-31.7514 62.3853   9
  -8  -6  12-38.9476 75.5586   8
  -8  -6  12-210.031 209.342   1
   8   6 -12 3.65490 58.5987  11
  -8  -6  11 319.872 75.0928  10
  -8   6  11 369.391 91.9977   9
  -8   6  11 284.087 84.9039  10
  -8  -6  11 284.358 119.235   8
  -8  -6  11 171.484 203.427   1
   8   6 -11 248.929 73.2381  11
  -8   6  10 835.291 100.734  10
  -8  -6  10 913.631 115.129  10
  -8  -6  10 937.851 145.514   8
  -8  -6  10 850.001 321.354   1
  -8  -6  10 853.770 115.076  13
   8   6 -10 853.902 119.628  11
  -8  -6   9 111823. 3348.63   1
  -8  -6   9 114219. 1352.42   8
  -8  -6   9 113487. 1191.24  13
  -8  -6   8 1998.40 461.425   1
  -8  -6   7 1045.51 361.105   1
  -8  -6   6 184.863 196.385   1
  -8   6   6 268.775 156.097   4
  -8  -6   5 18366.7 1313.05   1
  -8   6   5 18317.8 1176.54   4
  -8  -6   4 180.835 157.897   1
  -8   6   4 96.1224 158.730   4
  -8   6   3 59362.2 1961.53   4
  -8  -6   2 1005.92 378.099   2
  -8   6   2 835.941 221.455   2
  -8  -6   1 251.954 228.397   2
  -8   6   1 93.5449 144.341   2
  -8  -6   0 1810.49 464.833   2
  -8   6   0 1797.47 358.328   2
  -8  -6  -1 15616.8 1299.59   2
  -8   6  -1 15705.1 1112.02   2
  -8   6  -2 1181.41 340.758   2
  -8  -6  -2 921.088 347.946   2
  -8  -6  -3 59115.3 2682.16   2
  -8  -6  -3 55788.9 984.222   7
  -8   6  -3 56230.3 2367.09   2
  -8   6  -3 55956.6 912.709  12
  -8   6  -4 307.771 204.161   2
  -8  -6  -4 183.948 98.4716   7
  -8   6  -4 200.599 75.6300  12
  -8  -6  -4 106.189 182.712   2
  -8  -6  -5 31710.1 2039.39   2
  -8  -6  -5 33154.5 823.937   7
  -8   6  -5 32325.4 725.639  12
  -8  -6  -6 907.219 154.056   7
  -8   6  -6 977.435 129.363  12
  -8  -6  -6 1072.11 405.568   2
  -8   6  -7 3111.67 235.321  12
  -8  -6  -7 2821.95 253.750   7
  -8   6  -8 827.836 111.112  12
  -8  -6  -8 985.506 164.825   7
  -8  -6  -9 18144.0 646.834   7
  -8   6  -9 16350.6 524.072  12
  -8  -6 -10-42.9234 74.9353   7
  -8   6 -10 42.9032 66.8891  12
  -8   6 -11 7166.62 305.941  12
  -8  -6 -11 7948.90 394.726   7
  -8  -6 -12 384.808 93.2241   7
  -8  -6 -13 441.298 81.5819   7
  -8  -6 -14 374.167 61.5011   7
   8  -8 -19 295.003 65.2402   7
   8  -8 -18 2375.03 190.690   7
  -8  -8  17 155.999 50.7863   9
   8  -8 -17 108.866 71.4127   7
  -8  -8  16 121.895 54.8786   9
   8  -8 -16 34.4793 67.9720   7
  -8  -8  15 165.607 71.1207   9
  -8  -8  15 164.338 82.2551   8
  -8  -8  14 98.9334 80.1491   9
  -8  -8  14 136.103 86.8921   8
  -8  -8  13 1690.70 192.975   8
   8   8 -13 1749.63 185.474  11
  -8  -8  12 18297.4 597.061   8
   8   8 -12 19660.7 586.074  11
  -8  -8  11 263.918 92.9703   8
  -8  -8  11 242.625 125.689   1
  -8   8  11 132.257 179.972   4
   8   8 -11 198.583 74.9559  11
  -8  -8  10 1886.98 165.977  13
  -8  -8  10 2276.58 226.630   8
   8   8 -10 1873.65 203.374  11
  -8  -8  10 1977.95 541.772   1
  -8   8  10 2159.57 551.880   4
  -8  -8   9 696.688 99.5266  13
  -8  -8   9 473.740 297.621   1
  -8  -8   9 621.036 125.337   8
  -8   8   9 551.646 249.390   4
   8   8  -9 613.292 110.481  11
  -8  -8   8 23394.4 1695.07   1
  -8  -8   8 25112.8 566.851  13
  -8   8   8 27077.2 1699.56   4
   8   8  -8 26266.3 644.713  11
  -8   8   7 773.211 318.214   4
  -8  -8   7 849.925 351.937   1
  -8  -8   6 42422.9 2197.05   1
  -8   8   6 45658.4 2097.98   4
  -8  -8   5 81.1268 116.925   1
  -8   8   5 203.898 196.862   4
  -8  -8   4 23183.0 1575.03   1
  -8   8   4 22157.4 1369.54   4
  -8  -8   2 6394.06 878.485   2
  -8  -8   1 1614.38 466.629   2
  -8  -8   0 19359.8 1510.64   2
  -8  -8  -1 991.205 416.776   2
  -8   8  -1 758.555 104.899  12
  -8  -8  -2 33307.6 2051.54   2
  -8   8  -2 25956.9 627.355  12
  -8  -8  -3 793.182 126.882   7
  -8   8  -3 926.178 131.390  12
  -8  -8  -3 950.985 387.509   2
  -8   8  -4 12605.1 462.486  12
  -8  -8  -4 11619.0 1258.73   2
  -8  -8  -4 11433.5 460.888   7
  -8  -8  -5 4819.61 838.868   2
  -8   8  -5 4742.68 296.203  12
  -8  -8  -5 5186.26 319.306   7
  -8   8  -6 2444.28 216.220  12
  -8  -8  -6 2154.58 229.803   7
  -8  -8  -7 178.839 93.2722   7
  -8   8  -7 42.9677 57.5402  12
  -8  -8  -8 7271.14 395.987   7
  -8   8  -8 7361.33 363.823  12
  -8   8  -9 17970.5 560.591  12
  -8  -8  -9 17911.7 615.790   7
  -8  -8 -10 812.879 132.161   7
  -8   8 -10 854.042 124.160  12
  -8  -8 -11 29.8981 44.8352   7
  -8   8 -11-16.4951 33.9013  12
  -8  -8 -12 6012.84 281.779   7
  -8   8 -12 5705.79 230.400  12
  -8  -8 -13 86.4565 36.8953   7
  -8  10  18 307.341 60.0362   6
   8 -10 -18 195.924 50.4573   7
   8 -10 -17 1432.03 149.011   7
   8 -10 -16 536.505 113.705   7
  -8 -10  15 5036.47 286.253   8
   8 -10 -15 4213.39 302.490   7
  -8 -10  14 36.5524 64.8758   8
  -8 -10  13 3098.45 217.535   9
  -8 -10  13 3269.08 250.280   8
   8  10 -13 3248.09 246.615  11
  -8 -10  12 342.469 75.5841   8
   8  10 -12 268.656 85.6826  11
  -8 -10  11 6187.99 342.765   8
  -8  10  11 5528.04 901.181   4
   8  10 -11 6503.68 356.088  11
  -8 -10  10 87.5218 137.379   8
  -8 -10  10 1.44588 130.797   1
  -8  10  10 327.077 256.629   4
   8  10 -10 106.486 79.5635  11
  -8 -10   9 10214.5 368.048  13
  -8 -10   9 9168.26 1147.99   1
  -8 -10   9 11131.6 448.202   8
  -8  10   9 9836.38 1140.65   4
   8  10  -9 11361.1 463.418  11
  -8 -10   8 5071.79 254.050  13
  -8 -10   8 4965.16 831.917   1
  -8  10   8 5740.55 851.298   4
   8  10  -8 5380.99 309.733  11
  -8  10   7 7926.56 957.653   4
  -8 -10   7 7218.17 1035.12   1
  -8 -10   7 6799.41 293.143  13
   8  10  -7 7491.71 362.005  11
   8  10  -6 100.627 64.8412   6
  -8 -10   6-86.9199 177.485   1
   8  10  -6 409.881 89.9553  11
  -8  10   6-27.5224 203.420   4
  -8  10   6 362.485 103.492  12
  -8  10   5 2139.03 189.649  12
  -8 -10   5 1780.97 157.031   5
  -8  10   5 2120.11 493.601   4
   8  10  -5 1714.32 165.593   6
  -8 -10   5 1599.39 464.036   1
  -8 -10   4 215.485 70.4341   5
   8  10  -4 208.411 78.4663   6
  -8 -10   4 187.886 216.643   1
  -8  10   4 84.9704 49.8362  12
  -8  10   3 52488.5 892.399  12
   8  10  -3 53527.7 880.309   6
   8  10  -2 229.386 70.7202   6
  -8 -10   2 186.401 183.578   2
  -8  10   2 372.734 84.6861  12
  -8  10   1 8640.63 355.765  12
  -8 -10   1 9474.08 1122.88   2
   8  10  -1 9387.10 367.447   6
   8 -10   0 6.18476 91.2623   1
  -8  10   0 247.291 112.824  12
  -8 -10   0 102.744 164.310   2
  -8 -10  -1 3288.20 689.182   2
  -8  10  -1 3985.18 260.430  12
  -8 -10  -2 205.070 204.105   2
   8 -10   2 498.469 215.260   1
  -8  10  -2 269.223 64.8475  12
   8 -10   3 44576.2 2212.49   1
  -8 -10  -3 40832.2 2372.73   2
  -8  10  -3 42491.0 872.895  12
   8 -10   4 1015.68 353.217   1
  -8  10  -4 965.643 131.538  12
  -8 -10  -4 1066.67 396.786   2
  -8 -10  -5 25098.9 675.050   7
  -8  10  -5 25084.4 690.002  12
  -8 -10  -6 3335.11 255.719   7
  -8  10  -6 3337.95 251.866  12
  -8 -10  -7 15770.0 542.239   7
  -8  10  -7 12142.8 483.057  12
  -8  10  -8 3350.92 248.776  12
  -8 -10  -8 2989.12 229.975   7
  -8 -10  -9 18322.7 558.764   7
  -8  10  -9 18286.5 549.330  12
  -8 -10 -10 930.824 119.364   7
  -8  10 -10 1070.20 129.330  12
  -8  10 -11 3882.14 206.959  12
  -8 -10 -11 3929.16 239.308   7
  -8  10 -12 617.664 75.1209  12
  -8 -10 -12 610.539 80.9058   7
  -8  12  18 1873.18 114.637   6
  -8  12  17 123.577 44.5744   6
  -8  12  16 241.509 68.9723   6
  -8  12  15 2.33711 45.2930   6
  -8 -12  14 3478.37 227.439   8
  -8 -12  13 368.105 76.8032   8
   8  12 -13 408.072 95.3438  11
  -8 -12  12 8966.87 395.435   8
   8  12 -12 9758.77 438.497  11
  -8 -12  11 653.152 111.038   8
   8  12 -11 728.017 126.714  11
  -8 -12  10 2888.70 246.227   8
   8  12 -10 2683.81 242.974  11
  -8  12   9-54.2654 234.170   4
  -8 -12   9 30.6235 82.6744   8
   8  12  -9-121.379 84.0101  11
  -8  12   8 6317.36 936.006   4
  -8  12   8 5963.05 312.675   6
   8  12  -8 6488.90 367.099  11
  -8 -12   7-38.9401 153.213   1
   8  12  -7 196.808 82.6299   6
  -8  12   7 195.484 72.9954   6
   8  12  -7 197.087 72.4505  11
  -8 -12   6 23857.7 1869.98   1
   8  12  -6 22426.4 665.458  11
   8  12  -6 23325.5 647.224   6
  -8 -12   5 455.293 313.715   1
   8  12  -5 637.130 116.777   6
   8  12  -5 711.881 128.135  11
   8  12  -4 353.163 86.8837   6
  -8  12   4 443.773 111.713  12
   8  12  -3 2739.62 222.654   6
  -8  12   3 2307.68 203.069  12
  -8  12   2 2537.60 205.420  12
  -8 -12   2 2922.86 690.186   2
   8  12  -2 3312.25 230.634   6
  -8 -12   1 12855.1 1360.44   2
  -8  12   1 14576.0 508.061  12
   8  12  -1 14193.9 481.134   6
   8  12   0 40632.9 816.503   6
  -8  12   0 41847.4 846.192  12
  -8 -12  -1 1328.19 464.299   2
  -8  12  -1 1202.48 144.945  12
   8  12   1 1400.38 161.374   6
  -8  12  -2 11440.3 455.384  12
  -8  12  -3 2739.75 226.756  12
  -8  12  -4 11657.5 477.260  12
  -8  12  -5 539.416 99.8998  12
  -8  12  -6 10714.2 445.941  12
  -8  12  -7 2460.32 202.267  12
  -8  12  -8 1765.19 170.922  12
  -8  12  -9 154.019 59.6938  12
  -8  12 -10 4780.85 238.309  12
  -8  12 -11 1111.60 99.9227  12
  -8  14  16 1725.75 123.940   6
  -8  14  15 5900.63 261.595   6
  -8  14  14 149.652 60.8620   6
  -8  14  13 4953.95 274.981   6
  -8 -14  13 4648.51 238.636   8
   8  14 -13 4767.44 269.350  11
  -8 -14  12 458.334 90.1732   8
  -8  14  12 473.833 98.2424   6
   8  14 -12 550.696 102.050  11
  -8  14  11 1635.32 162.165   6
  -8 -14  11 1847.71 169.708   8
   8  14 -11 1976.92 203.910  11
  -8 -14  10-59.0050 65.2593   8
  -8  14  10 70.3263 57.7864   6
   8  14 -10-25.0651 57.6350  11
  -8  14   9 4123.34 267.540   6
  -8 -14   9 4320.32 273.772   8
   8  14  -9 4157.32 312.603  11
  -8  14   8 1961.12 183.628   6
   8  14  -8 2067.05 208.447  11
  -8 -14   8 2084.28 203.951   8
  -8  14   7 12218.8 441.692   6
   8  14  -7 12638.0 500.010  11
   8  14  -6 948.010 143.454   6
   8  14  -6 659.605 143.340  11
   8  14  -5 3118.24 262.951  11
   8  14  -5 3138.52 244.866   6
   8  14  -4 1201.19 151.437   6
   8  14  -4 1020.45 158.323  11
   8  14  -3 6073.17 341.430   6
   8  14  -2 194.116 71.1965   6
  -8  14   2 93.1341 55.7214  12
   8  14  -1 1006.71 142.018   6
  -8  14   1 944.411 138.288  12
  -8  14   0 5123.37 301.895  12
   8  14   0 5869.53 321.756   6
   8  14   1 1006.13 138.295   6
  -8  14  -1 1664.35 179.832  12
  -8  14  -2 3766.55 262.172  12
   8  14   2 3194.77 234.929   6
  -8  14  -3 28437.7 721.636  12
   8  14   3 27513.0 649.976   6
  -8  14  -4 155.121 67.6017  12
  -8  14  -5 4914.08 290.125  12
  -8  14  -6 24.0602 54.1175  12
  -8  14  -7 2438.31 191.694  12
  -8  14  -8 146.088 49.6816  12
  -8  14  -9 8194.30 295.816  12
  -8  14 -10 62.0576 25.5509  12
  -8  16  15 500.837 65.8549   6
  -8  16  14 1038.49 100.844   6
  -8  16  13 188.772 59.7377   6
   8  16 -13 84.2739 48.6329  11
  -8  16  12 4361.13 236.961   6
   8  16 -12 4175.91 239.593  11
   8  16 -11 302.494 85.3904  11
  -8 -16  11 222.132 65.5558   8
  -8  16  11 314.010 77.6995   6
  -8  16  10 6257.46 301.584   6
  -8 -16  10 5958.41 272.732   8
   8  16 -10 6022.57 325.121  11
  -8  16   9 976.420 130.198   6
  -8 -16   9 1002.13 117.955   8
   8  16  -9 1304.60 152.605  11
  -8  16   8 12643.4 429.971   6
  -8 -16   8 11711.3 418.285   8
   8  16  -8 13136.9 503.231  11
  -8  16   7 209.996 72.6614   6
  -8 -16   7 241.522 87.8430   8
   8  16  -7 257.467 95.2093  11
   8  16  -6 9459.86 435.798  11
   8  16  -6 9297.99 411.181   6
   8  16  -5 71.8166 59.4617   6
   8  16  -5 81.3836 70.4319  11
   8  16  -4 1254.30 159.310   6
   8  16  -4 1120.13 165.732  11
   8  16  -3 84.3460 83.9207   6
   8  16  -3 58.0402 88.0580  11
   8  16  -2 4970.53 314.934  11
   8  16  -2 4720.69 296.132   6
   8  16  -1-25.1821 52.0231   6
  -8  16   1-20.4957 52.8251  12
  -8  16   0 16419.9 510.092  12
   8  16   0 15059.4 503.762   6
  -8  16  -1 9662.05 395.335  12
   8  16   1 9299.61 391.558   6
  -8  16  -2 1368.29 149.361  12
   8  16   2 1389.06 152.360   6
  -8  16  -3 4307.74 262.990  12
   8  16   3 3512.79 222.241   6
  -8  16  -4 1182.99 136.048  12
  -8  16  -5 736.176 102.288  12
  -8  16  -6 17707.9 472.063  12
  -8  16  -7 158.608 43.1877  12
  -8  16  -8 4200.07 195.364  12
  -8  18  12 178.344 46.6345   6
   8  18 -12 51.3351 37.2834  11
  -8  18  11 39.6235 42.0544   6
   8  18 -11 38.9883 40.5035  11
   8  18 -10 610.747 91.5400  11
  -8  18  10 459.346 70.7755   6
  -8  18   9 8586.45 299.575   6
   8  18  -9 9003.84 354.832  11
  -8  18   8 75.6547 39.9309   6
   8  18  -8 91.8215 74.4756  11
  -8 -18   7 72.5192 49.2122   8
   8  18  -7 75.5156 64.0709  11
  -8 -18   6 1902.00 156.805   8
   8  18  -6 1870.00 180.405  11
   8  18  -5 2168.23 202.952  11
   8  18  -4 505.215 96.9277   6
   8  18  -4 526.005 102.694  11
   8  18  -3 11322.4 451.391  11
   8  18  -3 11328.0 422.232   6
   8  18  -2 125.494 63.4777   6
   8  18  -2 122.404 81.6976  11
   8  18  -1 304.704 81.7546   6
   8  18  -1 355.722 98.4933  11
   8  18   0 340.866 75.5522   6
   8  18   0 296.966 79.8308  11
   8  18   1 621.371 103.380   6
   8  18   1 608.650 99.4258  11
   8  18   2 550.364 88.8996   6
  -8  18  -3 11781.0 346.847  12
   8  18   3 10278.5 324.973   6
  -8  18  -4 12.7708 35.0266  12
  -8  18  -5 2541.31 145.878  12
  -8  18  -6 106.738 40.7940  12
   8  20 -10 364.812 54.0916  11
   8  20  -9 109.792 38.4858  11
   8  20  -8 157.155 51.3707  11
   8  20  -7 70.2294 46.3735  11
   8  20  -6 3722.78 206.731  11
   8  20  -5 199.520 60.1507  11
   8  20  -4 5825.32 269.737  11
  -8 -20   3 116.086 45.0530   8
   8  20  -3 119.395 51.3033  11
   8  20  -2 3437.75 205.562  11
   8  20  -1 109.502 48.7785   6
   8  20  -1 49.2261 47.5775  11
   8  20   0 7331.75 293.052  11
   8  20   0 7195.16 265.315   6
   8  20   1 129.562 45.6013   6
   8  20   1 81.7723 55.1936  11
   8  20   2 2408.08 152.013  11
   8  20   2 2159.62 127.303   6
   8  20   3 556.141 74.4086  11
   9   1 -20 57.8004 40.6248   7
   9  -1 -20 17.8838 35.6646   7
   9   1 -19 180.551 59.1152   7
   9  -1 -19 155.337 60.3401   7
   9  -1 -18 1775.53 210.302   7
   9   1 -18 1885.70 200.995   7
  -9   1  17 262.589 84.5133   9
  -9  -1  17 299.169 94.5865   9
  -9   1  16 1431.88 173.229   9
  -9  -1  16 1504.37 177.383   9
  -9   1  15 566.030 108.755   9
  -9  -1  15 698.050 131.039   9
  -9   1  14 4861.45 317.907   9
  -9  -1  14 5034.84 342.979   9
  -9  -1  14 4961.41 324.614   8
  -9  -1  14 4404.16 785.346   3
  -9   1  14 5093.18 297.186  10
  -9  -1  14 5131.38 306.484  10
  -9   1  13 3469.54 270.107   9
  -9  -1  13 3092.79 264.761   8
  -9  -1  13 3388.33 673.727   3
  -9   1  13 3603.55 251.316  10
  -9  -1  13 3869.55 254.625  10
  -9   1  12 2215.72 205.827   8
  -9  -1  12 2363.50 213.596   8
  -9  -1  12 1931.76 480.305   3
  -9   1  12 2445.72 205.917  10
  -9  -1  12 2411.22 204.201  10
  -9  -1  11 1153.54 153.356  10
  -9   1  11 1201.62 154.285   8
  -9  -1  11 1223.85 158.926   8
  -9  -1  11 1115.33 364.489   3
  -9   1  11 1205.52 146.229  10
  -9   1  10 11181.4 387.399  10
  -9  -1  10 11351.0 400.780  10
  -9  -1  10 11275.2 390.071  13
  -9  -1  10 12058.7 1057.01   3
  -9  -1   9 8859.60 868.755   3
  -9  -1   8 835.539 299.084   3
  -9   1   7 12709.0 853.780   2
  -9  -1   7 14716.3 991.181   3
  -9   1   6 2129.67 367.623   2
  -9  -1   6 2182.52 378.400   3
  -9  -1   5 24973.3 1394.06   2
  -9   1   5 24575.5 1253.09   2
  -9  -1   4 5471.63 654.457   2
  -9   1   4 5371.71 627.384   2
  -9  -1   3 7787.29 795.539   2
  -9   1   3 8935.28 853.640   2
  -9   1   3 8003.93 568.023   4
  -9  -1   2 68970.0 2351.93   2
  -9   1   2 68999.9 2280.64   2
  -9  -1   1 20826.0 1342.91   2
  -9   1   1 21752.9 1320.82   2
  -9  -1   0 11397.7 1019.27   2
  -9   1   0 10742.2 973.588   2
  -9  -1  -1 83665.2 2898.53   2
  -9   1  -1 85265.5 2813.29   2
  -9  -1  -2 10231.9 1041.80   2
  -9   1  -2 10222.3 1027.89   2
  -9   1  -3 1029.90 141.583   7
  -9  -1  -3 997.089 141.089   7
  -9  -1  -3 868.659 348.477   2
  -9   1  -3 958.967 344.624   2
  -9   1  -4 1825.03 197.917   7
  -9  -1  -4 2074.05 212.180   7
  -9  -1  -4 2395.65 564.337   2
  -9   1  -4 1944.81 500.952   2
  -9  -1  -5 30146.0 2039.38   2
  -9   1  -5 27248.8 1902.97   2
  -9   1  -5 26397.1 743.558   7
  -9  -1  -5 26991.8 752.972   7
  -9  -1  -6 22446.2 1780.38   2
  -9   1  -6 21981.6 692.205   7
  -9   1  -6 21510.1 1721.47   2
  -9  -1  -6 20718.2 690.611   7
  -9  -1  -7 1630.87 205.536   7
  -9   1  -7 1119.73 171.809   7
  -9   1  -8 5687.79 359.539   7
  -9  -1  -8 5598.33 363.746   7
  -9   1  -9 1162.38 169.621   7
  -9  -1  -9 1567.76 203.206   7
  -9   1 -10 170.682 85.9837   7
  -9  -1 -10 48.4549 61.6419   7
  -9   1 -11 1683.26 177.959   7
  -9  -1 -11 1381.66 165.387   7
  -9  -1 -12-36.0281 54.9393   7
  -9   1 -12 48.1069 50.1837   7
  -9   1 -13 6017.20 257.649   7
  -9  -1 -13 5791.32 268.684   7
   9  -3 -20 631.099 95.2645   7
   9   3 -19 52.5626 36.0199   7
   9  -3 -19 78.5908 63.1237   7
  -9  -3  18 187.153 74.1219   9
   9   3 -18 56.2001 45.6936   7
   9  -3 -18 111.624 65.0742   7
  -9   3  17 43.3341 57.0785   9
  -9  -3  17 109.251 57.0405   9
  -9   3  16 2719.86 217.213   9
  -9  -3  16 2843.06 224.591   9
  -9   3  15 140.908 73.3815   9
  -9  -3  15 142.895 80.4487   8
  -9  -3  15 181.121 84.6540   9
  -9   3  14 4647.77 300.080   9
  -9  -3  14 5250.69 299.733  10
  -9   3  13 13387.5 494.424   9
  -9  -3  13 13091.0 512.770   8
  -9  -3  13 12653.2 1261.83   3
  -9   3  13 13681.3 476.280  10
  -9  -3  13 13643.6 473.562  10
  -9  -3  12 657.619 309.452   3
  -9   3  12 625.659 117.828  10
  -9  -3  12 381.113 79.1770  10
  -9   3  12 388.324 101.602   9
  -9  -3  12 425.367 107.186   8
  -9  -3  11 2553.94 518.830   3
  -9  -3  11 2549.17 225.307   8
  -9   3  11 2733.20 208.199  10
  -9  -3  11 2783.99 204.823  10
  -9  -3  10 13666.5 432.671  10
  -9  -3  10 13149.5 462.242   8
  -9   3  10 12489.2 418.122  10
  -9  -3  10 12758.8 416.765  13
  -9  -3  10 13177.6 1129.60   3
  -9  -3   9 4386.38 643.054   1
  -9  -3   9 5951.55 707.940   3
  -9  -3   8 4000.94 620.987   1
  -9  -3   8 4761.64 608.056   3
  -9  -3   7 17188.2 1066.63   3
  -9  -3   6 35852.0 1422.31   3
  -9   3   5 37220.5 1355.46   2
  -9  -3   5 41058.6 1385.30   3
  -9  -3   4 29708.4 1605.86   2
  -9   3   4 29866.2 1282.35   2
  -9   3   4 28030.8 1235.45   4
  -9  -3   4 29793.1 1078.96   3
  -9  -3   3 1983.24 474.896   2
  -9   3   3 1866.34 349.715   2
  -9   3   3 1715.31 337.752   4
  -9  -3   2 18785.8 1325.00   2
  -9   3   2 19075.4 1151.79   2
  -9   3   2 18405.4 902.349   4
  -9   3   1 562.582 241.827   2
  -9  -3   1 318.769 197.262   2
  -9  -3   0 3911.37 639.928   2
  -9   3   0 3710.35 588.329   2
  -9  -3  -1 89500.5 3103.22   2
  -9   3  -1 91417.2 2972.84   2
  -9  -3  -2 18148.0 1447.94   2
  -9   3  -2 18530.7 1378.18   2
  -9   3  -3 8769.56 338.824  12
  -9  -3  -3 10098.9 1103.48   2
  -9   3  -3 9410.14 1005.90   2
  -9   3  -3 8440.49 392.491   7
  -9  -3  -3 9261.19 414.350   7
  -9   3  -4 11747.6 406.232  12
  -9  -3  -4 11814.7 1251.83   2
  -9   3  -4 10896.3 461.849   7
  -9   3  -4 11510.8 1197.96   2
  -9  -3  -4 12237.1 497.165   7
  -9  -3  -5 238.994 91.2780   7
  -9   3  -5 322.463 121.444   7
  -9   3  -5 228.526 70.6983  12
  -9  -3  -5 173.814 216.658   2
  -9   3  -5 240.111 221.284   2
  -9   3  -6 929.853 376.280   2
  -9   3  -6 1093.82 167.446   7
  -9  -3  -6 1462.01 187.602   7
  -9   3  -6 1410.41 140.862  12
  -9  -3  -6 1225.66 431.378   2
  -9   3  -7 4858.57 268.595  12
  -9   3  -7 4631.93 314.616   7
  -9  -3  -7 4929.82 340.391   7
  -9   3  -8 4653.89 315.523   7
  -9  -3  -8 4775.14 341.687   7
  -9  -3  -9 681.099 127.884   7
  -9   3  -9 669.182 127.065   7
  -9   3 -10 16114.7 553.154   7
  -9  -3 -10 15762.0 587.027   7
  -9  -3 -11 1224.93 159.148   7
  -9   3 -11 951.886 134.894   7
  -9   3 -12 2193.23 167.698   7
  -9  -3 -12 2240.50 191.076   7
  -9  -3 -13 3033.59 193.565   7
   9  -5 -20 309.166 69.1442   7
   9  -5 -19 98.6671 60.1667   7
  -9  -5  18 113.926 49.1083   9
   9  -5 -18 17.3963 48.6833   7
  -9  -5  17 5999.02 287.977   9
  -9  -5  16 577.238 108.579   9
  -9   5  15 1056.61 141.361   9
  -9  -5  15 900.698 134.898   9
  -9  -5  15 825.245 143.906   8
  -9   5  14 535.094 115.219   9
  -9  -5  14 459.393 124.521   8
  -9  -5  14 468.992 95.7629  10
  -9  -5  13 538.192 280.016   3
  -9  -5  13 783.534 129.268  10
  -9   5  13 904.074 131.739   9
  -9  -5  13 735.958 148.702   8
  -9  -5  12 801.123 333.513   3
  -9   5  12 914.009 124.840  10
  -9   5  12 980.514 132.441   9
  -9  -5  12 965.857 155.290   8
  -9  -5  12 1019.46 144.390  10
  -9  -5  11 4684.68 263.774  13
  -9   5  11 4643.42 258.439   9
  -9  -5  11 4818.26 310.517   8
  -9  -5  11 3490.19 671.615   1
  -9  -5  11 4738.63 740.600   3
  -9   5  11 4118.01 253.667  10
  -9  -5  11 4792.76 267.581  10
  -9  -5  10 12653.7 412.964  10
  -9   5  10 12323.5 406.972   9
  -9  -5  10 11333.5 447.349   8
  -9  -5  10 13014.5 430.349  13
  -9  -5  10 12219.9 1124.79   3
  -9   5  10 12449.3 405.879  10
  -9  -5   9 1937.40 168.794  10
  -9  -5   9 2419.62 479.138   3
  -9  -5   9 2153.47 211.718   8
  -9  -5   9 1278.51 148.795  13
  -9  -5   9 2215.80 482.237   1
  -9  -5   8 12430.4 1153.37   1
  -9  -5   7 52608.0 2293.26   1
  -9  -5   6 19850.7 1408.97   1
  -9   5   6 21096.4 1302.59   4
  -9  -5   5 1539.76 313.759   3
  -9   5   5 1324.72 331.334   4
  -9   5   4 689.620 281.727   4
  -9   5   3 1650.97 298.015   2
  -9   5   3 1435.64 311.701   4
  -9  -5   3 1320.10 403.461   2
  -9  -5   2 10356.6 1044.55   2
  -9   5   2 11508.4 846.849   2
  -9  -5   1 19988.6 1487.22   2
  -9   5   1 22211.2 1265.51   2
  -9  -5   0 320.355 239.150   2
  -9   5   0 319.944 185.772   2
  -9  -5  -1 17493.2 1453.22   2
  -9   5  -1 16463.4 1236.34   2
  -9  -5  -2 6441.46 921.034   2
  -9  -5  -2 6724.92 353.905   7
  -9   5  -2 6171.86 797.377   2
  -9   5  -2 7074.39 317.507  12
  -9  -5  -3 7450.13 991.227   2
  -9   5  -3 7933.59 342.994  12
  -9   5  -3 7975.63 380.846   7
  -9  -5  -3 7655.57 377.202   7
  -9   5  -3 7887.03 930.088   2
  -9   5  -4 3297.76 232.530  12
  -9  -5  -4 3165.62 658.860   2
  -9   5  -4 3110.80 245.876   7
  -9  -5  -4 3300.95 267.050   7
  -9   5  -4 2646.98 580.756   2
  -9  -5  -5 8299.01 1115.71   2
  -9   5  -5 8379.49 366.580  12
  -9   5  -5 8378.67 405.429   7
  -9  -5  -5 8434.60 424.855   7
  -9   5  -5 7919.93 1034.29   2
  -9  -5  -6 235.803 80.3463   7
  -9   5  -6 161.883 75.8931   7
  -9   5  -6 148.854 65.4837  12
  -9  -5  -6-3.03750 176.431   2
  -9   5  -7 3693.11 275.282   7
  -9  -5  -7 3640.36 294.100   7
  -9   5  -7 3809.63 253.857  12
  -9  -5  -8 416.050 124.517   7
  -9   5  -8 286.387 78.4013   7
  -9   5  -8 343.844 93.1638  12
  -9   5  -9 1680.63 156.548  12
  -9   5  -9 1987.61 194.441   7
  -9  -5  -9 1834.50 208.250   7
  -9   5 -10 7707.01 355.613   7
  -9  -5 -10 8407.33 415.612   7
  -9  -5 -11 4865.47 296.850   7
  -9  -5 -12 834.879 116.098   7
  -9  -5 -13 6599.52 268.804   7
   9  -7 -19 44.1710 38.1411   7
   9  -7 -18 607.566 105.689   7
  -9  -7  17 18.9453 40.8615   9
   9  -7 -17 74.0725 67.1368   7
  -9  -7  16 354.459 82.3112   9
  -9  -7  15 1157.09 145.011   9
  -9  -7  15 1041.93 158.138   8
  -9  -7  14 23700.0 682.443   8
  -9   7  13 5875.77 284.233   9
  -9  -7  13 5679.75 342.605   8
   9   7 -13 5256.48 303.686  11
  -9  -7  13 5287.52 283.124  10
  -9  -7  12 1162.36 434.398   3
  -9  -7  12 929.976 121.377  10
  -9   7  12 1077.88 148.956   9
  -9  -7  12 1079.30 164.674   8
   9   7 -12 956.632 141.501  11
  -9  -7  11 5402.82 333.927   8
   9   7 -11 5430.01 301.711  11
  -9   7  11 5240.94 260.916  10
  -9  -7  11 5337.68 317.666  10
  -9  -7  10 10282.4 382.418  13
  -9  -7  10 10645.6 435.524   8
   9   7 -10 10116.8 409.463  11
  -9  -7  10 9900.13 363.185  10
  -9  -7   9 3104.73 202.269  10
  -9  -7   9 2747.47 235.939   8
  -9  -7   9 2207.04 579.905   1
  -9  -7   9 3488.29 225.025  13
  -9   7   9 2881.49 590.008   4
  -9  -7   8 565.411 278.223   1
  -9  -7   8 971.004 112.151  10
  -9   7   8 619.814 118.100  12
  -9  -7   8 732.254 120.997  13
  -9   7   8 745.496 297.365   4
  -9  -7   7 4111.89 741.221   1
  -9  -7   7 4653.67 258.213   5
  -9   7   7 4680.51 696.890   4
  -9  -7   6 566.232 265.896   1
  -9   7   6 428.694 203.877   4
  -9   7   5 25962.9 1501.82   4
  -9  -7   5 23939.5 1679.17   1
  -9   7   4 9408.10 874.115   4
  -9  -7   3 3276.19 625.234   2
  -9  -7   2 5033.28 808.158   2
  -9  -7   1 20980.0 1618.17   2
  -9   7   1 21490.9 551.915  12
  -9  -7   0 13321.5 1319.08   2
  -9   7   0 13893.9 1051.17   2
  -9   7   0 13488.1 438.964  12
  -9  -7  -1 8156.89 1037.58   2
  -9   7  -1 8229.22 881.903   2
  -9  -7  -1 8863.42 388.737   7
  -9   7  -1 8305.50 357.030  12
  -9   7  -2 15761.1 1262.56   2
  -9  -7  -2 15154.6 1491.49   2
  -9  -7  -2 14966.6 528.421   7
  -9   7  -2 15537.9 492.017  12
  -9  -7  -3 137.232 75.7066   7
  -9   7  -3 49.6501 54.7817  12
  -9  -7  -3 61.3100 196.270   2
  -9  -7  -4 31702.6 2147.87   2
  -9   7  -4 32437.3 752.872  12
  -9  -7  -4 32606.7 804.381   7
  -9  -7  -5 3869.56 282.505   7
  -9   7  -5 3860.10 259.736  12
  -9  -7  -5 3124.08 697.013   2
  -9  -7  -6 677.924 140.730   7
  -9   7  -6 1070.01 198.781  12
  -9  -7  -7 1855.78 210.029   7
  -9   7  -7 1679.36 176.081  12
  -9   7  -8 16214.1 529.737  12
  -9  -7  -8 17150.9 614.296   7
  -9  -7  -9 3599.25 273.175   7
  -9   7  -9 3314.23 225.088  12
  -9  -7 -10 13999.6 508.141   7
  -9   7 -10 13326.8 418.712  12
  -9  -7 -11 352.775 87.4755   7
  -9   7 -11 377.977 69.0072  12
  -9  -7 -12 645.281 95.6813   7
  -9   9  19 2710.32 144.223   6
   9  -9 -19 2108.33 133.502   7
   9  -9 -18 526.608 84.5500   7
   9  -9 -17 1022.96 136.993   7
  -9  -9  16 1726.37 139.265   9
   9  -9 -16 1264.02 176.717   7
  -9  -9  15 69.5993 41.8119   9
  -9  -9  15 15.5563 55.3687   8
  -9  -9  14 966.813 129.574   9
  -9  -9  14 935.826 144.375   8
  -9  -9  13 4204.78 292.464   8
   9   9 -13 4006.97 273.454  11
  -9  -9  12 127.006 98.0653   8
   9   9 -12 122.772 66.2696  11
  -9  -9  11 1993.96 225.746   8
  -9   9  11 1772.84 494.097   4
   9   9 -11 1772.77 198.504  11
  -9  -9  10 5748.76 287.332  13
  -9  -9  10 6024.08 336.384   8
  -9   9  10 5174.88 820.628   4
   9   9 -10 6073.13 330.309  11
  -9  -9   9 147.237 253.757   1
  -9  -9   9 284.279 125.246   8
  -9  -9   9 151.848 77.2921  13
  -9   9   9 286.667 298.812   4
   9   9  -9 129.096 75.2723  11
  -9  -9   8 1749.98 160.520  13
  -9   9   8 1513.97 188.935  12
  -9  -9   8 1055.73 470.016   1
  -9   9   8 1646.77 445.290   4
   9   9  -8 1717.35 190.250  11
  -9   9   7 7151.97 371.898  12
  -9  -9   7 7017.63 987.803   1
  -9  -9   7 7923.43 330.918  13
  -9   9   7 8341.79 1004.11   4
   9   9  -7 8390.51 370.785  11
  -9  -9   6 127.612 201.848   1
  -9  -9   6 557.858 105.847   5
   9   9  -6 444.505 110.565   6
  -9   9   6 566.565 263.166   4
   9   9  -6 301.535 75.2009  11
  -9   9   5 7957.96 354.884  12
  -9   9   5 9341.12 973.875   4
  -9  -9   5 9927.48 368.576   5
  -9  -9   5 8726.76 1118.61   1
   9   9  -5 9092.32 383.593   6
  -9  -9   4 12458.9 405.309   5
   9   9  -4 12322.7 427.425   6
   9   9  -3 542.347 107.977   6
  -9  -9   3 596.006 361.593   2
  -9  -9   3 653.206 114.743   5
  -9   9   3 260.706 84.5729  12
  -9  -9   2 12749.2 1375.38   2
  -9  -9   2 14161.3 447.398   5
  -9   9   2 13988.3 466.356  12
  -9  -9   1 8875.01 1160.55   2
  -9   9   1 10062.3 410.296  12
  -9  -9   0 666.453 311.542   2
  -9   9   0 412.802 81.1056  12
  -9  -9  -1 27763.1 1975.74   2
  -9   9  -1 24356.2 646.898  12
  -9  -9  -2 12547.3 1370.89   2
  -9   9  -2 13663.4 499.014  12
  -9  -9  -3 159.258 72.4373   7
  -9   9  -3 30.7612 45.6999  12
  -9  -9  -3 73.2356 197.341   2
  -9  -9  -4 17614.4 586.874   7
  -9   9  -4 17501.9 571.883  12
  -9  -9  -5 1052.67 145.806   7
  -9   9  -5 907.748 135.590  12
  -9  -9  -6 3180.86 258.885   7
  -9   9  -6 3766.18 264.998  12
  -9  -9  -7 17540.3 596.308   7
  -9   9  -7 17339.0 559.840  12
  -9  -9  -8 422.862 99.5631   7
  -9   9  -8 386.771 92.2014  12
  -9  -9  -9 263.342 74.1614   7
  -9   9  -9 356.236 82.0960  12
  -9  -9 -10 6049.08 298.800   7
  -9   9 -10 5738.09 264.763  12
  -9  -9 -11 3184.38 199.601   7
  -9   9 -11 3114.20 172.505  12
  -9  11  18 320.338 55.9475   6
  -9  11  17 22.2718 38.8516   6
   9 -11 -17 23.8271 33.7849   7
   9 -11 -16 678.152 100.156   7
  -9 -11  15 56.6799 65.7708   8
   9 -11 -15 64.6359 40.5057   7
  -9 -11  14 5250.78 299.467   8
   9  11 -14 5209.13 293.016  11
  -9 -11  13 5825.82 322.891   8
   9  11 -13 6085.12 325.327  11
  -9 -11  12 658.371 136.298   8
   9  11 -12 835.352 145.326  11
  -9 -11  11 1496.66 180.472   8
   9  11 -11 1352.87 166.209  11
  -9 -11  10 4914.13 324.190   8
   9  11 -10 5217.07 352.325  11
  -9 -11   9 9225.56 348.906  13
  -9 -11   9 10243.8 432.866   8
  -9  11   9 9997.09 1157.76   4
   9  11  -9 10214.4 442.581  11
  -9 -11   8 2735.56 192.148  13
  -9  11   8 3461.71 726.334   4
   9  11  -8 3111.17 246.991  11
  -9 -11   8 1990.15 632.518   1
  -9 -11   7 1376.77 504.745   1
  -9  11   7 2042.13 499.259   4
   9  11  -7 2194.55 208.766  11
  -9 -11   7 2507.43 183.447  13
  -9 -11   6 1942.66 611.937   1
  -9 -11   6 1118.35 130.356  13
  -9  11   6 1022.74 127.020  12
   9  11  -6 1273.50 159.631  11
   9  11  -6 1766.44 182.616   6
   9  11  -5 609.191 126.505   6
  -9 -11   5 433.520 91.8219   5
  -9  11   5 678.831 134.139  12
   9  11  -5 355.184 124.370  11
  -9 -11   5 662.504 345.153   1
  -9 -11   4 7130.84 315.416   5
  -9  11   4 6924.51 348.349  12
   9  11  -4 7151.56 346.911   6
  -9 -11   3 10011.8 1257.36   2
  -9 -11   3 10780.7 386.598   5
  -9  11   3 9276.14 414.596  12
   9  11  -3 10811.4 415.706   6
  -9 -11   2 7581.24 1081.64   2
  -9 -11   2 8016.18 334.272   5
  -9  11   2 6957.94 347.868  12
   9  11  -2 7995.40 356.068   6
  -9 -11   1 26378.4 2007.43   2
  -9 -11   1 27573.6 632.239   5
  -9  11   1 30527.5 740.230  12
   9  11  -1 28425.0 656.329   6
  -9 -11   0 922.610 137.288   5
  -9 -11   0 1112.21 416.975   2
  -9  11   0 561.480 101.768  12
  -9 -11  -1 20100.3 1770.41   2
  -9  11  -1 21168.6 617.700  12
  -9  11  -2 19225.4 599.100  12
  -9  11  -3 1783.65 193.605  12
  -9  11  -4 19912.8 611.143  12
  -9  11  -5 1751.83 194.047  12
  -9  11  -6 5271.63 311.950  12
  -9  11  -7 4286.41 271.649  12
  -9 -11  -7 4119.36 261.800   7
  -9 -11  -8 7146.13 328.539   7
  -9  11  -8 7612.30 344.619  12
  -9 -11  -9-59.4966 42.4429   7
  -9  11  -9 78.6498 38.6166  12
  -9  11 -10 6604.48 266.941  12
  -9  11 -11 992.967 87.2098  12
  -9  13  17 3421.11 163.903   6
  -9  13  16 2980.10 176.454   6
  -9  13  15 718.210 99.8892   6
  -9  13  14 1501.23 146.927   6
  -9 -13  14 1504.80 142.665   8
  -9  13  13 1730.28 168.676   6
  -9 -13  13 1722.42 163.286   8
   9  13 -13 1719.18 167.231  11
  -9  13  12 1099.81 138.158   6
  -9 -13  12 1170.79 146.051   8
   9  13 -12 1164.78 150.908  11
  -9  13  11 2003.40 182.775   6
  -9 -13  11 2037.59 198.233   8
   9  13 -11 1862.39 187.335  11
  -9  13  10 5029.97 286.399   6
  -9 -13  10 5521.21 315.985   8
   9  13 -10 5895.22 336.277  11
  -9  13   9-55.9014 59.7953   6
  -9 -13   9 67.6893 81.2145   8
   9  13  -9 97.5615 92.1532  11
  -9  13   8 6751.39 324.918   6
  -9 -13   8 7426.35 370.486   8
   9  13  -8 7579.80 395.434  11
   9  13  -7 12138.1 489.056  11
   9  13  -6 144.448 80.4932   6
   9  13  -6 128.463 84.0143  11
   9  13  -5 13180.0 513.891  11
   9  13  -5 14090.6 505.128   6
  -9  13   4 14690.8 512.764  12
   9  13  -4 15336.1 554.655  11
   9  13  -4 15173.3 520.229   6
   9  13  -3 765.711 119.815   6
  -9  13   3 500.509 110.323  12
  -9  13   2 2584.40 224.293  12
   9  13  -2 2591.38 209.929   6
  -9  13   1 7375.95 382.466  12
   9  13  -1 7277.79 356.675   6
  -9  13   0 13835.7 514.143  12
   9  13   0 14378.3 481.787   6
  -9  13  -1 12194.0 479.722  12
  -9  13  -2 16450.2 558.336  12
  -9  13  -3 298.945 106.297  12
  -9  13  -4 8267.42 387.179  12
  -9  13  -5 6512.65 333.862  12
  -9  13  -6 1834.97 179.436  12
  -9  13  -7 5134.60 281.960  12
  -9  13  -8 3448.51 212.191  12
  -9  13  -9 190.945 50.2277  12
  -9  13 -10 3477.50 164.729  12
  -9  15  15 113.587 40.0534   6
  -9  15  14 3975.04 203.948   6
  -9  15  13 4005.97 223.109   6
  -9 -15  13 3760.41 195.572   8
   9  15 -13 4204.35 229.078  11
  -9  15  12 1670.49 152.584   6
  -9 -15  12 1349.96 132.605   8
   9  15 -12 1420.11 143.883  11
  -9  15  11 3683.11 227.421   6
  -9 -15  11 3726.08 222.361   8
   9  15 -11 4090.99 262.987  11
  -9  15  10 3411.12 220.880   6
  -9 -15  10 2946.03 213.790   8
   9  15 -10 3084.88 231.060  11
  -9  15   9 8006.28 337.854   6
  -9 -15   9 7235.45 333.707   8
   9  15  -9 8150.69 387.129  11
  -9  15   8 5028.32 264.024   6
  -9 -15   8 4948.59 292.178   8
   9  15  -8 4895.47 304.782  11
   9  15  -7 7103.05 369.783  11
   9  15  -6 1246.32 171.743  11
   9  15  -5 1456.58 176.267  11
   9  15  -5 1491.69 176.194   6
   9  15  -4 3251.63 261.898  11
   9  15  -4 3841.99 272.101   6
   9  15  -3 321.081 88.4933   6
  -9  15   3 182.431 66.8802  12
   9  15  -3 455.705 142.489  11
  -9  15   2 3836.05 250.903  12
   9  15  -2 4007.23 266.057   6
  -9  15   1 4258.09 273.547  12
   9  15  -1 3327.17 239.553   6
  -9  15   0 1562.47 166.815  12
   9  15   0 1148.27 144.504   6
  -9  15  -1 6975.29 352.159  12
   9  15   1 5818.00 300.740   6
  -9  15  -2 7270.56 358.070  12
  -9  15  -3 982.843 136.744  12
  -9  15  -4 3054.91 220.208  12
  -9  15  -5 1645.44 159.758  12
  -9  15  -6 86.7197 49.4149  12
  -9  15  -7 2481.45 166.101  12
  -9  15  -8 1831.95 131.901  12
  -9  17  13 1978.12 120.370   6
  -9  17  12 20.5262 36.1431   6
   9  17 -12 93.4265 49.9862  11
  -9  17  11 3809.24 191.864   6
   9  17 -11 3713.36 211.838  11
  -9  17  10 7137.38 269.528   6
  -9 -17  10 7070.17 263.705   8
   9  17 -10 7668.71 326.226  11
  -9 -17   9-42.3701 55.5780   8
   9  17  -9 65.1498 59.6430  11
  -9 -17   8 2244.93 170.966   8
   9  17  -8 2559.47 207.947  11
  -9 -17   7 4896.73 259.038   8
   9  17  -7 5335.87 300.846  11
  -9 -17   6 154.190 71.4680   8
   9  17  -6 160.509 80.6448  11
   9  17  -5 1983.15 199.540  11
   9  17  -4 4215.61 281.337  11
   9  17  -4 3980.84 253.691   6
   9  17  -3 453.267 91.9576   6
   9  17  -3 542.975 113.567  11
   9  17  -2 4184.40 273.008  11
   9  17  -2 4043.41 253.206   6
   9  17  -1 10259.0 423.588  11
   9  17  -1 10556.9 397.822   6
   9  17   0 190.764 74.8752   6
  -9  17   0 245.649 65.2771  12
   9  17   1 928.704 111.847   6
  -9  17  -1 714.654 101.171  12
  -9  17  -2 2740.73 186.142  12
   9  17   2 2277.25 160.337   6
  -9  17  -3 502.948 88.5878  12
  -9  17  -4 5531.80 251.860  12
  -9  17  -5 6030.97 245.033  12
  -9  17  -6 650.124 73.2418  12
   9  19 -11 4068.74 165.514  11
   9  19 -10 1179.88 101.874  11
   9  19  -9 144.457 41.7192  11
   9  19  -8 1151.83 118.542  11
  -9 -19   7 417.604 66.2573   8
   9  19  -7 473.809 82.4244  11
  -9 -19   6 191.875 54.4176   8
   9  19  -6 222.653 71.2140  11
  -9 -19   5 4484.04 214.722   8
   9  19  -5 4935.90 255.415  11
  -9 -19   4 1665.99 135.786   8
   9  19  -4 1541.77 151.016  11
   9  19  -3 29.7923 45.4557  11
   9  19  -2 125.339 54.9130  11
   9  19  -1 6785.20 299.016  11
   9  19  -1 6282.44 259.919   6
   9  19   0 113.847 46.4094   6
   9  19   0 90.7409 53.3906  11
   9  19   1 1342.60 130.080  11
   9  19   2 1562.20 133.204  11
   9  19   3 438.903 71.3208  11
   9  19   4 2372.62 134.055  11
   9  21  -6 781.961 77.2806  11
   9  21  -5 2765.69 145.269  11
   9  21  -4 319.763 58.0322  11
   9  21  -3-7.82600 31.5980  11
   9  21  -2 4727.01 190.437  11
   9  21  -1 749.226 77.3300  11
  10   0 -20 49.4837 37.1889   7
  10   0 -19-37.4693 46.0235   7
 -10   0  18 2490.40 185.846   9
 -10   0  17-12.0298 57.6060   9
 -10   0  16 281.333 80.9466   9
 -10   0  15-11.0020 54.0259   9
 -10   0  14 3621.57 277.122   9
 -10   0  14 4691.17 319.322  10
 -10   0  13-40.9260 65.3919  10
 -10   0  13-0.62318 60.9457   8
 -10   0  12 5977.45 328.884   8
 -10   0  12 5895.33 310.184  10
 -10   0  11-24.7708 62.7228  10
 -10   0  11 101.937 87.5192   8
 -10   0  11-81.0755 221.691   3
 -10   0  10 11378.4 417.958  10
 -10   0  10 12716.3 437.529   8
 -10   0  10 12419.9 403.258  13
 -10   0  10 13244.1 1133.67   3
 -10   0   9-24.9048 52.8629  10
 -10   0   8 896.189 284.112   2
 -10   0   7 32.0106 72.5268   2
 -10   0   6 16258.6 1114.16   2
 -10   0   5 31.4143 100.469   2
 -10   0   4 39260.8 1780.49   2
 -10   0   3-85.3152 156.765   2
 -10   0   2 16709.2 1264.03   2
 -10   0   1 195.773 177.861   2
 -10   0   0 145971. 3922.97   2
 -10   0  -1-64.0666 56.4909   7
 -10   0  -1 123.631 192.101   2
 -10   0  -2 9220.78 1081.60   2
 -10   0  -2 8549.28 418.995   7
 -10   0  -3-2.08341 47.7505   7
 -10   0  -3-6.05468 187.543   2
 -10   0  -4 279.339 103.897   7
 -10   0  -4 363.338 202.891   2
 -10   0  -5 201.067 188.241   7
 -10   0  -5-67.7417 180.662   2
 -10   0  -6 65581.7 1247.60   7
 -10   0  -7 48.4890 58.5339   7
 -10   0  -8 6801.60 392.220   7
 -10   0  -9 21.6705 61.9217   7
 -10   0 -10 1318.37 157.733   7
 -10   0 -11 19.2728 49.6407   7
 -10   0 -12 4534.05 237.394   7
  10  -2 -20 36.8606 34.6646   7
  10   2 -19 115.021 55.8465   7
  10  -2 -19 155.838 65.7311   7
 -10  -2  18 210.095 68.2206   9
  10   2 -18 68.5790 56.4251   7
 -10   2  17 1757.85 166.414   9
 -10  -2  17 1538.93 166.434   9
 -10   2  16 272.992 76.2687   9
 -10  -2  16 294.725 111.393   9
 -10   2  15 5043.14 324.422   9
 -10  -2  15 5580.68 334.455   9
 -10  -2  15 4890.47 327.580   8
 -10   2  14 245.511 97.3045  10
 -10  -2  14 174.613 83.1271  10
 -10   2  14 182.156 77.7368   9
 -10  -2  14 234.064 100.436   8
 -10  -2  14 23.9791 194.285   3
 -10   2  13 1171.28 149.190  10
 -10  -2  13 1111.82 152.950  10
 -10   2  13 949.592 155.687   9
 -10  -2  13 978.854 160.962   8
 -10  -2  13 1090.32 356.871   3
 -10   2  12 178.260 83.7370  10
 -10  -2  12 71.0789 111.554  10
 -10   2  12 105.462 71.0257   8
 -10  -2  12 46.0758 65.5286   8
 -10  -2  12 89.5199 158.332   3
 -10  -2  11 25395.7 626.708  10
 -10   2  11 26303.0 640.933   8
 -10  -2  11 25979.4 680.749   8
 -10  -2  11 25876.1 614.049  13
 -10  -2  11 25454.3 1646.10   3
 -10   2  11 26724.6 625.063  10
 -10   2  10-1.72420 70.5209  10
 -10  -2  10 127.754 61.8406  10
 -10   2  10 1.26270 52.7593   8
 -10  -2  10 119.085 77.8563   8
 -10  -2  10 60.1092 50.8986  13
 -10  -2  10 93.7167 144.917   3
 -10   2   9 1542.49 170.288  10
 -10  -2   9 1817.10 169.847  10
 -10  -2   9 1613.47 158.966  13
 -10  -2   9 1877.81 445.557   3
 -10  -2   8 5043.90 631.306   3
 -10  -2   7 19434.6 1158.03   3
 -10  -2   6 1956.25 473.601   2
 -10   2   6 1900.21 358.413   2
 -10  -2   6 1986.52 348.021   3
 -10  -2   5 2769.61 571.482   2
 -10   2   5 3379.27 479.025   2
 -10  -2   4 3992.64 639.574   2
 -10   2   4 4585.91 573.566   2
 -10   2   4 3893.75 461.454   4
 -10  -2   3 29595.8 1721.56   2
 -10   2   3 30164.6 1550.24   2
 -10  -2   2 224.345 171.354   2
 -10   2   2 268.996 182.299   2
 -10  -2   1 40865.8 2107.39   2
 -10   2   1 41460.2 1952.64   2
 -10  -2   0 1203.77 390.944   2
 -10   2   0 798.416 323.675   2
 -10  -2  -1 12845.2 1242.71   2
 -10   2  -1 13439.8 1240.39   2
 -10   2  -1 11786.0 499.683   7
 -10  -2  -1 11341.4 490.702   7
 -10   2  -2 1443.54 178.969   7
 -10  -2  -2 1801.35 194.787   7
 -10   2  -2 1537.34 150.292  12
 -10  -2  -2 1801.50 494.302   2
 -10   2  -2 1978.62 500.470   2
 -10  -2  -3 44713.8 2432.49   2
 -10   2  -3 44482.1 2380.43   2
 -10   2  -3 42615.8 938.134   7
 -10  -2  -3 44833.2 959.636   7
 -10   2  -3 44418.9 792.410  12
 -10  -2  -4 5408.72 929.790   2
 -10   2  -4 4545.50 804.247   2
 -10   2  -4 4982.10 326.262   7
 -10  -2  -4 4935.43 336.490   7
 -10   2  -4 5170.95 268.039  12
 -10  -2  -5 16712.0 1606.70   2
 -10   2  -5 16245.9 605.422   7
 -10  -2  -5 14931.1 594.808   7
 -10   2  -5 15485.4 1484.63   2
 -10   2  -6 6016.55 373.947   7
 -10  -2  -6 6502.61 392.881   7
 -10  -2  -7 1170.10 162.656   7
 -10   2  -7 1423.12 173.564   7
 -10   2  -8 8718.62 437.618   7
 -10  -2  -8 9497.12 473.955   7
 -10   2  -9 23074.6 691.405   7
 -10  -2  -9 23150.1 717.028   7
 -10   2 -10 38.8052 51.7960   7
 -10  -2 -10 70.9758 68.7675   7
 -10   2 -11 11015.0 408.579   7
 -10  -2 -11 10987.0 432.927   7
 -10   2 -12 2087.94 152.053   7
 -10  -2 -12 1545.34 143.974   7
 -10  -2 -13 253.189 52.7044   7
  10  -4 -20 14.6160 32.6421   7
  10  -4 -19 161.958 66.4112   7
  10   4 -18 2920.68 209.086   7
 -10  -4  18 5448.37 257.906   9
 -10  -4  17 4433.65 256.167   9
 -10   4  16 1352.61 147.911   9
 -10  -4  16 1514.48 166.424   9
 -10   4  15 35.2460 58.8127   9
 -10  -4  15 95.0292 59.8900   9
 -10  -4  15-21.0991 74.8119   8
 -10   4  14 5583.44 310.070   9
 -10  -4  14 4872.40 329.503   8
 -10  -4  14 5483.57 308.808  10
 -10   4  13 1230.79 149.622   9
 -10  -4  13 1495.30 196.155   8
 -10   4  13 1482.89 156.729  10
 -10  -4  13 1389.47 165.150  10
 -10  -4  13 1100.51 382.036   3
 -10   4  12 2109.29 195.535   9
 -10  -4  12 2115.36 216.549   8
 -10   4  12 2073.32 187.318  10
 -10  -4  12 2121.77 197.909  10
 -10  -4  12 1664.58 456.120   3
 -10  -4  11 293.833 211.181   3
 -10  -4  11 270.809 90.5521  10
 -10  -4  11 134.576 61.1781   8
 -10  -4  11 256.791 84.5150  13
 -10  -4  10 5941.09 295.622  10
 -10  -4  10 6150.98 322.635   8
 -10  -4  10 5115.32 285.627  13
 -10  -4  10 6459.14 801.696   3
 -10   4  10 5406.59 278.773  10
 -10   4   9 802.842 104.883  10
 -10  -4   9 693.925 117.533  10
 -10  -4   9 749.447 125.296   8
 -10  -4   9 541.215 93.2373  13
 -10  -4   8 29860.5 616.008  10
 -10  -4   8 29136.7 665.383   8
 -10  -4   8 29702.6 637.541   5
 -10  -4   8 29413.8 630.697  13
 -10   4   8 31531.8 754.519  12
 -10  -4   8 30463.2 1552.17   3
 -10  -4   7 23611.0 1274.99   3
 -10  -4   6 45335.4 1627.75   3
 -10  -4   5 1576.78 472.967   2
 -10   4   5 1672.34 351.550   4
 -10  -4   4 21813.1 1536.25   2
 -10   4   4 21694.4 1215.37   4
 -10  -4   3 62.1683 132.514   2
 -10   4   3 189.115 176.064   4
 -10   4   3 12.9958 76.1487   2
 -10  -4   2 41481.9 2151.12   2
 -10   4   2 44973.1 1939.74   2
 -10  -4   1-21.1879 125.458   2
 -10   4   1 74.7330 97.9171   2
 -10  -4   0 48857.1 2482.06   2
 -10   4   0 49544.0 2196.29   2
 -10  -4   0 48842.9 978.745   7
 -10   4   0 49614.6 838.266  12
 -10   4  -1-5.79204 52.1849   7
 -10  -4  -1 71.8898 74.5608   7
 -10   4  -1 55.2343 41.6754  12
 -10  -4  -1-90.3102 132.701   2
 -10   4  -1-5.62005 108.723   2
 -10  -4  -2 21408.6 1714.92   2
 -10   4  -2 20058.5 660.586   7
 -10  -4  -2 21134.8 646.063   7
 -10   4  -2 21115.4 1552.87   2
 -10   4  -2 19775.4 548.451  12
 -10   4  -3 268.427 83.6399   7
 -10  -4  -3 392.719 109.544   7
 -10   4  -3 317.209 79.0635  12
 -10  -4  -3 373.724 203.843   2
 -10   4  -3 571.407 267.075   2
 -10   4  -4 188.159 172.048   2
 -10   4  -4 42.1944 61.1398   7
 -10  -4  -4 27.0425 70.4214   7
 -10   4  -4 79.9171 56.1074  12
 -10  -4  -4 93.3211 115.791   2
 -10   4  -5 4658.73 274.709  12
 -10  -4  -5 4510.66 868.363   2
 -10   4  -5 4126.69 302.658   7
 -10  -4  -5 4745.79 322.426   7
 -10   4  -5 4057.02 767.610   2
 -10   4  -6 10571.0 484.952   7
 -10  -4  -6 10882.1 506.028   7
 -10   4  -6 10597.2 418.966  12
 -10   4  -7 9497.65 443.407   7
 -10  -4  -7 9818.89 481.012   7
 -10   4  -7 8584.84 371.125  12
 -10   4  -8 8725.95 426.003   7
 -10  -4  -8 8832.25 449.920   7
 -10  -4  -9 101.488 80.4395   7
 -10   4  -9-9.08036 46.3053   7
 -10   4 -10 2863.04 214.413   7
 -10  -4 -10 2759.59 232.764   7
 -10  -4 -11 136.070 71.0224   7
 -10  -4 -12 8795.02 335.306   7
  10  -6 -20 6.07368 30.1975   7
  10  -6 -19 173.144 63.1840   7
 -10  -6  18 206.281 65.3108   9
  10  -6 -18-5.70662 50.3890   7
 -10  -6  17-23.0148 47.1773   9
 -10  -6  16-112.362 63.8578   9
 -10  -6  16 63.9233 75.7959   8
 -10   6  15 27067.3 616.831   9
 -10  -6  15 27588.0 677.052   9
 -10  -6  15 26390.5 717.091   8
 -10  -6  14 81.5826 73.1943  10
 -10   6  14 16.8364 49.8957   9
 -10  -6  14-27.6046 63.5009   8
 -10  -6  13 32.7698 163.928   3
 -10   6  13 16.2672 47.1555   9
 -10  -6  13 0.87613 66.5071   8
 -10  -6  12 484.308 292.584   3
 -10   6  12 216.438 83.1776  10
 -10  -6  12 105.842 68.6624  10
 -10   6  12 245.681 78.2975   9
 -10  -6  12 260.384 109.093   8
 -10  -6  11 1220.39 418.839   3
 -10   6  11 1599.24 166.863   9
 -10  -6  11 1479.42 177.005   8
 -10  -6  11 2011.92 182.024  13
 -10  -6  11 1075.04 404.503   1
 -10   6  11 1845.35 173.146  10
 -10  -6  11 1753.31 185.143  10
 -10  -6  10 226.344 242.881   3
 -10  -6  10 109.314 53.0876  13
 -10   6  10 101.378 50.3913  10
 -10  -6  10 110.775 67.6190  10
 -10  -6  10 188.560 102.385   8
 -10  -6  10 32.9608 127.084   1
 -10  -6   9 41465.1 744.961  10
 -10  -6   9 38851.5 839.013   8
 -10   6   9 39032.5 902.680  12
 -10  -6   9 41987.8 767.789  13
 -10  -6   9 36399.2 2171.74   1
 -10  -6   9 43756.4 2042.50   3
 -10   6   9 40383.9 722.117  10
 -10  -6   8 297.077 170.365   3
 -10  -6   8 381.586 301.161   1
 -10  -6   8 303.753 61.3735  10
 -10   6   8 524.381 227.313  12
 -10  -6   8 386.612 97.5171  13
 -10   6   8 520.190 235.136   4
 -10  -6   7 1636.67 368.997   3
 -10  -6   7 1248.49 138.420  10
 -10  -6   7 1770.12 164.650   5
 -10   6   7 1046.02 176.285  12
 -10   6   7 1040.86 330.856   4
 -10  -6   6 7303.41 318.923   5
 -10   6   6 6793.13 337.429  12
 -10   6   6 7872.57 840.668   4
 -10  -6   5 135.812 81.4936   5
 -10   6   5 76.2647 47.6398  12
 -10   6   5 149.860 170.742   4
 -10   6   4 783.061 111.032  12
 -10  -6   4 633.590 316.318   2
 -10   6   4 797.937 264.172   4
 -10  -6   3 54447.2 2578.81   2
 -10   6   3 55365.3 922.805  12
 -10  -6   2 3039.40 647.005   2
 -10   6   2 3265.90 233.024  12
 -10  -6   1 576.727 123.060   7
 -10  -6   1 619.947 263.573   2
 -10   6   1 488.538 100.112  12
 -10   6   0-18.0569 57.5773  12
 -10  -6   0 2.84751 67.9310   7
 -10   6   0 96.1611 110.985   2
 -10  -6  -1 5754.25 920.281   2
 -10   6  -1 6695.65 388.587   7
 -10  -6  -1 6164.13 352.403   7
 -10   6  -1 6194.72 793.021   2
 -10   6  -1 6601.78 322.117  12
 -10  -6  -2 8329.12 1101.51   2
 -10   6  -2 8981.25 439.073   7
 -10  -6  -2 8876.88 425.049   7
 -10   6  -2 8521.79 971.133   2
 -10   6  -2 9207.62 392.387  12
 -10  -6  -3 22117.4 1839.17   2
 -10   6  -3 23603.2 709.146   7
 -10  -6  -3 22600.3 692.512   7
 -10   6  -3 22041.7 1659.20   2
 -10   6  -3 21988.8 620.369  12
 -10   6  -4 33.8271 135.641   2
 -10  -6  -4 215.562 82.9919   7
 -10   6  -4 261.768 98.7869   7
 -10   6  -4 107.496 63.6278  12
 -10  -6  -4 2.32121 165.251   2
 -10   6  -5 3144.80 262.910   7
 -10  -6  -5 3206.63 270.224   7
 -10   6  -5 2976.03 230.926  12
 -10  -6  -6 690.483 141.681   7
 -10   6  -6 825.813 129.362  12
 -10  -6  -7 796.271 155.301   7
 -10   6  -7 583.634 110.577  12
 -10  -6  -8 359.492 105.509   7
 -10   6  -8 446.695 103.292  12
 -10   6  -9 18822.0 507.778  12
 -10  -6  -9 19726.9 628.668   7
 -10  -6 -10 1119.63 148.779   7
 -10  -6 -11 6805.60 314.346   7
 -10  -6 -12 503.974 76.9695   7
  10  -8 -19 18.9573 30.6610   7
 -10  -8  18 2600.72 138.675   9
  10  -8 -18 2051.98 172.715   7
 -10  -8  17 92.1495 40.9936   9
  10  -8 -17-96.9025 65.2837   7
 -10  -8  16 242.922 64.4340   9
 -10  -8  16 71.2399 63.8434   8
 -10  -8  15 1119.85 133.309   9
 -10  -8  15 1413.73 168.909   8
 -10  -8  14 3589.57 268.810   8
 -10  -8  13 234.589 78.7450  10
 -10  -8  13 71.3226 74.6083   8
  10   8 -13 280.902 112.973  11
 -10  -8  12 12599.3 512.716   8
  10   8 -12 12760.2 456.557  11
 -10  -8  12 12305.4 419.153  10
 -10  -8  11 261.130 234.442   3
 -10  -8  11 374.768 93.8566  10
 -10  -8  11 396.954 122.731   8
 -10  -8  11 383.316 94.5036  13
 -10   8  11 301.112 265.388   4
  10   8 -11 432.520 100.115  11
 -10  -8  10 2753.28 575.571   3
 -10  -8  10 2185.66 224.640   8
 -10  -8  10 1281.39 505.610   1
 -10  -8  10 1989.54 180.337  13
 -10   8  10 1611.73 485.243   4
 -10  -8  10 1947.20 181.318  10
 -10  -8   9-0.35958 61.8511  10
 -10   8   9 175.000 102.492  12
 -10  -8   9 163.936 100.610   8
 -10  -8   9 194.405 293.751   1
 -10  -8   9 97.7698 59.4882  13
 -10   8   9 107.602 227.513   4
 -10  -8   8 6422.23 291.079  10
 -10  -8   8 6765.27 307.461  13
 -10   8   8 6927.56 377.508  12
 -10   8   8 6960.04 909.623   4
 -10  -8   7 418.388 91.2478  10
 -10  -8   7 485.177 101.486   5
 -10   8   7 347.711 89.5979  12
 -10   8   7 356.412 233.756   4
 -10  -8   7 470.806 329.991   1
 -10  -8   6 21759.9 514.709  10
 -10  -8   6 23312.2 582.865   5
 -10   8   6 21709.3 609.354  12
 -10   8   6 21629.0 1501.47   4
 -10   8   5 595.768 253.572   4
 -10   8   5 402.471 193.523  12
 -10  -8   5 398.053 90.3744   5
 -10  -8   4 30587.6 2066.06   2
 -10   8   4 27876.3 697.356  12
 -10  -8   4 31263.4 669.608   5
 -10  -8   3 2803.20 644.817   2
 -10  -8   3 3460.80 234.379   5
 -10   8   3 3430.81 244.506  12
 -10  -8   2 28394.1 2105.04   2
 -10   8   2 34722.0 769.207  12
 -10   8   1 3245.31 229.225  12
 -10  -8   1 2653.33 640.736   2
 -10  -8   0 14104.3 1414.63   2
 -10  -8   0 14493.9 542.857   7
 -10   8   0 14685.5 537.251  12
 -10  -8  -1 233.831 92.9370   7
 -10  -8  -1 182.956 178.338   2
 -10   8  -1 271.888 93.0197  12
 -10   8  -2 7319.09 363.865  12
 -10  -8  -2 7075.61 1067.13   2
 -10  -8  -2 7769.24 403.163   7
 -10  -8  -3 1700.85 197.440   7
 -10   8  -3 1712.02 178.977  12
 -10  -8  -3 2132.23 624.235   2
 -10  -8  -4 872.095 143.868   7
 -10   8  -4 922.035 137.644  12
 -10  -8  -5 372.157 88.9320   7
 -10   8  -5 556.004 107.072  12
 -10  -8  -6 14236.2 555.882   7
 -10   8  -6 14110.1 509.123  12
 -10   8  -7 2878.86 226.708  12
 -10  -8  -7 2656.92 232.220   7
 -10  -8  -8 12322.7 497.226   7
 -10   8  -8 11815.9 428.628  12
 -10  -8  -9 2222.85 198.908   7
 -10   8  -9 2326.42 177.122  12
 -10  -8 -10 2349.56 182.504   7
 -10   8 -10 2268.27 152.059  12
 -10  -8 -11 169.125 53.7904   7
 -10  10  18 524.245 71.6265   6
  10 -10 -18 195.301 47.3063   7
  10 -10 -17 987.781 112.994   7
 -10 -10  16 51.2645 39.6751   9
 -10 -10  16 64.7036 57.9830   8
  10 -10 -16-16.0069 44.6535   7
 -10 -10  15 9167.81 323.428   9
 -10 -10  15 9037.67 381.619   8
 -10 -10  14 33.5517 48.8885   9
 -10 -10  14-4.79966 56.7884   8
 -10 -10  13 314.430 95.7647   8
  10  10 -13 378.912 91.1586  11
 -10 -10  12 92.4540 75.2525   8
  10  10 -12 30.3765 47.4734  11
 -10 -10  11 10897.0 458.384   8
  10  10 -11 10654.8 431.990  11
 -10 -10  10 1034.18 160.875   8
 -10 -10  10 848.806 116.671  13
 -10  10  10 832.058 369.568   4
  10  10 -10 976.606 145.549  11
 -10 -10   9 5030.69 314.117   8
 -10 -10   9 4889.63 265.449  13
 -10  10   9 4629.67 802.284   4
  10  10  -9 4905.08 299.521  11
 -10  10   8 3749.15 710.523   4
 -10 -10   8 3985.74 234.992  13
 -10  10   8 3480.86 275.105  12
 -10 -10   8 2660.03 760.627   1
  10  10  -8 4030.92 259.357  11
 -10 -10   7 6130.00 298.428  13
 -10  10   7 5742.78 372.809  12
 -10  10   7 7457.70 972.639   4
 -10 -10   7 5724.16 1008.81   1
  10  10  -7 6742.11 340.638  11
 -10 -10   6 598.267 115.995   5
 -10  10   6 478.594 107.101  12
  10  10  -6 647.325 125.642  11
 -10 -10   5 481.312 119.712   5
 -10  10   5 665.958 144.587  12
  10  10  -5 464.965 103.530  11
 -10 -10   4 8362.18 1172.87   2
 -10 -10   4 8859.55 360.432   5
 -10  10   4 9405.04 424.693  12
  10  10  -4 9205.84 385.008   6
 -10 -10   3 23632.8 597.849   5
 -10  10   3 24404.7 675.037  12
  10  10  -3 23566.2 610.490   6
 -10 -10   2 679.189 120.290   5
 -10 -10   2 536.775 319.626   2
 -10  10   2 762.017 129.330  12
 -10 -10   1 1514.47 174.354   5
 -10  10   1 1052.58 147.043  12
 -10 -10   1 1088.32 423.212   2
 -10  10   0 1108.16 156.817  12
 -10 -10   0 1246.97 482.556   2
 -10 -10  -1 14999.9 1587.71   2
 -10  10  -1 16612.7 578.351  12
 -10  10  -2 3594.45 259.182  12
 -10  10  -3 29007.4 755.455  12
 -10 -10  -4-40.2690 52.3338   7
 -10  10  -4-10.6184 58.0748  12
 -10 -10  -5 2616.03 223.082   7
 -10  10  -5 2405.57 215.599  12
 -10 -10  -6 1771.28 185.498   7
 -10  10  -6 1681.33 176.835  12
 -10 -10  -7 10848.7 432.822   7
 -10  10  -7 10843.6 424.449  12
 -10 -10  -8 170.838 67.3857   7
 -10  10  -8 213.814 74.0206  12
 -10 -10  -9 11687.4 396.114   7
 -10  10  -9 11753.0 376.492  12
 -10 -10 -10 216.653 55.9759   7
 -10  10 -10 222.167 50.8796  12
 -10  12  17 17.0507 28.6161   6
 -10  12  16 690.631 91.2115   6
 -10 -12  15 39.8305 46.8505   8
 -10  12  15 100.929 51.3971   6
 -10  12  14 4060.95 243.477   6
 -10 -12  14 4004.23 247.573   8
 -10 -12  13 123.636 54.0339   8
 -10  12  13 277.090 83.1960   6
  10  12 -13 178.282 65.1025  11
 -10  12  12 1781.09 175.770   6
 -10 -12  12 1994.01 198.018   8
  10  12 -12 1989.79 186.207  11
 -10 -12  11 77.5202 88.9619   8
 -10  12  11 19.2925 46.3329   6
  10  12 -11 208.723 83.1187  11
 -10 -12  10 482.207 118.435   8
 -10  12  10 498.414 105.762   6
  10  12 -10 510.541 112.386  11
 -10  12   9 636.640 100.060   6
 -10 -12   9 861.730 172.779   8
 -10 -12   9 574.920 98.0427  13
  10  12  -9 948.808 151.712  11
 -10 -12   8 2405.48 183.221  13
  10  12  -8 2314.69 220.637  11
 -10 -12   7 44.8551 54.2391  13
 -10  12   7 11.2873 57.0510  12
  10  12  -7-28.7161 53.1342  11
 -10  12   6 7299.64 375.807  12
 -10 -12   6 7579.96 326.406  13
  10  12  -6 7650.03 394.943  11
 -10  12   5 1216.28 157.793  12
  10  12  -5 1663.28 186.500  11
  10  12  -5 1737.70 176.620   6
 -10  12   4 32.3810 48.2856  12
  10  12  -4 160.423 83.7079   6
 -10 -12   4 124.249 76.2026   5
 -10 -12   3 2138.84 188.507   5
 -10  12   3 1723.70 188.222  12
  10  12  -3 1966.88 187.235   6
  10  12  -2 247.622 69.2327   6
 -10 -12   2 357.669 90.0525   5
 -10  12   2 375.775 107.274  12
 -10 -12   1 4168.80 253.542   5
 -10  12   1 4901.78 312.564  12
 -10  12   0 58277.7 1089.19  12
 -10  12  -1 997.959 153.538  12
 -10  12  -2 1129.56 157.375  12
 -10  12  -3 1447.50 167.048  12
 -10  12  -4 1571.10 175.886  12
 -10  12  -5 3887.04 260.638  12
 -10  12  -6 9589.47 397.659  12
 -10  12  -7 258.086 80.5940  12
 -10  12  -8 3843.08 219.123  12
 -10  12  -9 72.3173 32.1622  12
 -10  14  16 555.332 67.0007   6
 -10  14  15 4831.65 211.629   6
 -10 -14  14 124.513 55.8034   8
 -10  14  14 19.1432 38.9876   6
 -10  14  13 2071.19 165.656   6
 -10 -14  13 2178.31 170.183   8
  10  14 -13 2151.48 167.922  11
 -10 -14  12-3.66614 49.4303   8
 -10  14  12 118.271 54.8633   6
  10  14 -12-30.3964 57.1613  11
 -10  14  11 6033.07 289.593   6
 -10 -14  11 5865.80 304.059   8
  10  14 -11 6245.83 319.251  11
 -10  14  10 2868.02 202.713   6
 -10 -14  10 2632.02 208.584   8
  10  14 -10 2502.64 219.616  11
 -10 -14   9 4184.68 279.816   8
  10  14  -9 4685.84 304.543  11
 -10 -14   8 754.348 132.970   8
  10  14  -8 831.008 132.904  11
  10  14  -7 7706.96 387.207  11
  10  14  -6 883.965 160.181  11
 -10  14   5 16150.3 516.646  12
  10  14  -5 15930.8 547.640  11
  10  14  -5 15758.7 530.561   6
  10  14  -4 730.829 118.655   6
 -10  14   4 545.592 106.644  12
  10  14  -4 493.164 103.470  11
 -10  14   3 12666.3 475.295  12
  10  14  -3 12780.3 467.577   6
 -10  14   2 442.576 93.5216  12
  10  14  -2 544.193 106.043   6
 -10  14   1 1883.67 192.756  12
  10  14  -1 2074.87 188.059   6
 -10  14   0 739.819 125.136  12
 -10  14  -1 4313.93 286.258  12
 -10  14  -2 210.966 48.0264  12
 -10  14  -3 13987.4 499.499  12
 -10  14  -4 2021.78 185.179  12
 -10  14  -5 5055.07 277.277  12
 -10  14  -6 381.701 79.6896  12
 -10  14  -7 2988.20 183.085  12
 -10  14  -8 3283.04 170.297  12
 -10  16  13 534.745 68.8505   6
 -10  16  12 4554.07 203.928   6
 -10 -16  12 4300.51 197.406   8
  10  16 -12 4479.30 220.060  11
 -10 -16  11 22.4809 41.9719   8
  10  16 -11 12.3008 37.9452  11
 -10 -16  10 1669.38 145.972   8
  10  16 -10 1534.19 155.916  11
 -10 -16   9 231.680 72.1664   8
  10  16  -9 177.181 57.5419  11
 -10 -16   8 9211.12 361.414   8
  10  16  -8 9459.28 401.029  11
 -10 -16   7 3787.90 239.771   8
  10  16  -7 3718.32 253.169  11
  10  16  -6 4936.95 298.198  11
  10  16  -5 1745.62 180.924  11
  10  16  -4 1671.92 178.897  11
  10  16  -3 1207.98 154.607  11
  10  16  -3 1030.04 133.920   6
 -10  16   2 5114.85 275.964  12
  10  16  -2 4368.26 281.361  11
  10  16  -2 4395.56 255.577   6
 -10  16   1-61.2923 49.9685  12
  10  16  -1 18.5502 54.2462  11
 -10  16   0 10877.2 404.390  12
  10  16   0 9633.94 352.631   6
 -10  16  -1 53.3437 45.8195  12
 -10  16  -2 25.2472 38.6266  12
 -10  16  -3 3094.79 207.011  12
 -10  16  -4 3217.14 198.803  12
 -10  16  -5 295.769 60.5513  12
 -10  16  -6 3712.22 179.954  12
  10  18 -11 2222.01 135.974  11
  10  18 -10 131.731 48.7197  11
 -10 -18   9 7414.59 249.661   8
  10  18  -9 7628.70 291.579  11
 -10 -18   8 61.1555 46.6225   8
  10  18  -8 109.203 52.9813  11
 -10 -18   7 4395.87 217.219   8
  10  18  -7 4627.12 248.180  11
 -10 -18   6 136.954 56.0874   8
  10  18  -6 155.370 63.7811  11
 -10 -18   5 91.9183 57.8002   8
  10  18  -5 225.594 82.8022  11
  10  18  -4 327.255 84.4938  11
  10  18  -3 12835.2 429.219  11
  10  18  -2 1183.07 135.633  11
  10  18  -1 922.011 118.467  11
  10  18   0 85.4264 54.9939  11
  10  18   1 275.405 64.7381  11
  10  18   2 511.378 83.8575  11
  10  18   3 2961.85 169.617  11
  10  18   4 27.3391 31.2858  11
  10  20  -8 2109.79 119.413  11
  10  20  -7 473.430 65.8383  11
  10  20  -6 2634.02 142.475  11
  10  20  -5 1577.87 123.424  11
  10  20  -4 3601.17 180.348  11
 -10 -20   3 2787.41 136.249   8
  10  20  -3 2942.90 163.450  11
 -10 -20   2 1823.16 112.445   8
  10  20  -2 1872.19 130.585  11
  10  20  -1 454.272 67.4290  11
  10  20   0 2897.33 148.325  11
  11   1 -20 530.789 76.7574   7
  11  -1 -20 529.324 83.7643   7
  11   1 -19 2026.55 173.789   7
  11  -1 -19 2452.73 200.240   7
 -11   1  18 14.8146 48.3522   9
 -11  -1  18 110.863 61.5606   9
 -11   1  17 2855.55 211.794   9
 -11  -1  17 2736.41 217.893   9
 -11   1  16 3568.43 247.686   9
 -11  -1  16 3665.49 256.969   9
 -11  -1  15-24.0989 67.1078  10
 -11   1  15 51.8811 69.5936   9
 -11  -1  15 3.03779 65.6338   9
 -11   1  15-35.8587 63.1503  10
 -11   1  14 5249.68 334.617   9
 -11  -1  14 5280.92 336.416   8
 -11   1  14 5821.05 318.430  10
 -11  -1  14 6297.46 327.576  10
 -11   1  13 1958.58 201.108   8
 -11  -1  13 2127.90 209.810   8
 -11   1  13 2207.02 206.459  10
 -11  -1  13 2069.72 205.043  10
 -11   1  12 1664.68 194.387   8
 -11  -1  12 1210.06 174.502   8
 -11   1  12 1374.58 163.210  10
 -11  -1  12 1566.55 177.084  10
 -11   1  11 206.458 73.6686  10
 -11  -1  11 287.926 93.5034  10
 -11   1  11 181.767 94.3972   8
 -11  -1  11 149.993 83.7289   8
 -11  -1  11 262.251 83.7060  13
 -11   1  10 188.638 69.5478  13
 -11   1  10 187.338 67.8252  10
 -11  -1  10 209.741 89.8551  10
 -11   1  10 351.596 100.876   8
 -11  -1  10 291.720 100.841   8
 -11  -1  10 59.8833 53.1986  13
 -11   1   9 512.066 100.962  10
 -11  -1   9 438.482 102.174  10
 -11  -1   9 743.577 118.388   8
 -11   1   9 500.096 81.5283  13
 -11  -1   9 513.821 99.2460  13
 -11   1   8 5485.25 281.034  10
 -11  -1   8 5259.70 275.503  10
 -11  -1   8 5081.07 706.648   2
 -11  -1   8 5728.34 290.531   5
 -11  -1   8 5784.16 282.734  13
 -11  -1   7 740.630 115.231  10
 -11  -1   7 728.256 286.420   2
 -11   1   7 936.687 149.038  12
 -11  -1   6 20.6240 120.710   2
 -11   1   6 199.079 158.749   2
 -11  -1   5 8439.41 958.316   2
 -11   1   5 9310.73 913.003   2
 -11  -1   4 790.563 326.401   2
 -11   1   4 959.470 340.547   2
 -11  -1   3 413.620 230.354   2
 -11   1   3 768.679 299.207   2
 -11  -1   2 20806.8 1562.98   2
 -11   1   2 19999.3 1457.49   2
 -11  -1   2 20277.0 702.448   7
 -11  -1   1 28117.5 1814.99   2
 -11   1   1 29466.5 1812.89   2
 -11   1   1 28490.7 819.761   7
 -11  -1   1 27432.2 796.221   7
 -11   1   0 411.027 120.097   7
 -11  -1   0 649.624 129.953   7
 -11   1   0 676.390 110.346  12
 -11  -1   0 459.033 214.097   2
 -11   1   0 503.659 243.266   2
 -11  -1  -1 9378.32 1078.19   2
 -11   1  -1 10086.1 1126.53   2
 -11   1  -1 8558.86 455.840   7
 -11  -1  -1 8616.57 440.796   7
 -11   1  -1 8962.15 361.178  12
 -11  -1  -2 4519.72 778.160   2
 -11   1  -2 4794.71 839.633   2
 -11   1  -2 3815.35 315.462   7
 -11  -1  -2 3814.25 316.058   7
 -11  -1  -3 10619.0 1283.54   2
 -11   1  -3 9841.20 1180.58   2
 -11   1  -3 9442.55 471.773   7
 -11  -1  -3 8984.97 461.416   7
 -11  -1  -4 11197.6 1328.69   2
 -11   1  -4 9320.74 1200.93   2
 -11   1  -4 10251.9 500.758   7
 -11  -1  -4 10206.0 520.143   7
 -11   1  -5 32992.9 902.635   7
 -11  -1  -5 33917.5 904.553   7
 -11   1  -6 13673.9 567.723   7
 -11  -1  -6 13593.0 567.561   7
 -11   1  -7 1653.86 220.824   7
 -11  -1  -7 1296.15 208.798   7
 -11   1  -8 44682.2 992.030   7
 -11  -1  -8 44362.6 1007.22   7
 -11   1  -9 3463.71 253.047   7
 -11  -1  -9 3282.79 261.393   7
 -11   1 -10 15724.9 513.295   7
 -11  -1 -10 16232.2 530.033   7
 -11   1 -11 2057.35 162.947   7
 -11  -1 -11 1936.75 166.618   7
 -11  -1 -12 899.747 98.7299   7
  11  -3 -20 123.860 46.0753   7
 -11  -3  19 3119.31 179.571   9
  11  -3 -19 1731.13 177.875   7
 -11  -3  18 1771.23 155.381   9
  11   3 -18 588.939 109.251   7
 -11   3  17 3242.71 218.809   9
 -11  -3  17 3144.60 229.787   9
 -11   3  16 2684.03 213.399   9
 -11  -3  16 2678.28 230.122   9
 -11  -3  15 187.868 83.5660  10
 -11   3  15 489.914 111.708   9
 -11  -3  15 470.578 110.619   9
 -11  -3  15 222.650 100.622   8
 -11   3  14 722.792 130.412  10
 -11  -3  14 657.549 124.361  10
 -11   3  14 786.932 125.504   9
 -11  -3  14 804.470 159.676   8
 -11   3  13 494.854 103.264  10
 -11  -3  13 612.390 113.553  10
 -11   3  13 450.773 104.520   9
 -11  -3  13 355.466 113.477   8
 -11  -3  13 618.946 305.577   3
 -11   3  12 593.617 105.073  10
 -11  -3  12 679.923 130.471  10
 -11  -3  12 500.465 125.356   8
 -11  -3  12 339.059 282.675   3
 -11  -3  11 11147.8 423.906  10
 -11  -3  11 11906.1 467.636   8
 -11  -3  11 10747.1 412.852  13
 -11  -3  11 11027.5 1112.91   3
 -11   3  11 11368.1 423.034  10
 -11   3  10 12622.5 431.053  10
 -11  -3  10 12076.4 434.212  10
 -11  -3  10 12688.7 474.925   8
 -11  -3  10 11890.2 422.254  13
 -11  -3  10 11963.9 1110.33   3
 -11   3   9 5869.14 300.686  10
 -11  -3   9 5739.04 300.461  10
 -11   3   9 6294.11 276.820  13
 -11  -3   9 5826.87 299.360  13
 -11  -3   9 5998.47 313.250   8
 -11  -3   9 5850.69 726.216   3
 -11   3   8 13116.4 428.030  10
 -11  -3   8 13394.0 445.657  10
 -11   3   8 13532.8 524.173  12
 -11  -3   8 14334.8 462.513   8
 -11  -3   8 13470.4 455.605   5
 -11  -3   8 12232.5 423.825  13
 -11  -3   8 14523.3 1088.23   3
 -11  -3   7 9854.23 370.911  10
 -11  -3   7 7972.88 984.871   2
 -11  -3   7 8821.57 362.509   5
 -11   3   7 9569.25 429.360  12
 -11  -3   7 9872.98 835.907   3
 -11  -3   6 318.679 240.987   2
 -11   3   6 132.407 91.4274  12
 -11   3   6 282.220 187.121   4
 -11  -3   6 304.512 78.4776   5
 -11  -3   5 4432.99 748.110   2
 -11   3   5 4034.40 266.610  12
 -11   3   5 4227.31 560.314   4
 -11  -3   4 13769.6 1258.78   2
 -11   3   4 14359.0 1062.87   2
 -11  -3   3 8934.03 1045.58   2
 -11   3   3 8910.61 875.322   2
 -11   3   3 8420.25 379.597  12
 -11  -3   2 26050.1 1801.73   2
 -11   3   2 26214.3 1590.16   2
 -11   3   2 24099.3 800.782   7
 -11  -3   2 24858.4 782.982   7
 -11   3   2 25332.5 625.916  12
 -11  -3   1 7928.49 1056.99   2
 -11   3   1 9087.69 405.656  12
 -11   3   1 8091.58 947.544   2
 -11   3   1 8258.12 468.177   7
 -11  -3   1 8537.21 457.943   7
 -11   3   0 473.281 116.305   7
 -11  -3   0 433.860 111.274   7
 -11   3   0 352.103 78.5620  12
 -11  -3   0 624.894 310.493   2
 -11   3   0 703.992 325.807   2
 -11  -3  -1 32124.2 2111.16   2
 -11   3  -1 30393.5 1924.77   2
 -11   3  -1 31121.7 842.522   7
 -11  -3  -1 31242.2 849.376   7
 -11   3  -1 30626.7 696.103  12
 -11  -3  -2 24011.9 1863.51   2
 -11   3  -2 25460.1 774.557   7
 -11   3  -2 25823.7 1811.37   2
 -11  -3  -2 26678.3 762.158   7
 -11   3  -2 26353.4 657.700  12
 -11   3  -3 973.047 142.430  12
 -11   3  -3 977.347 170.314   7
 -11  -3  -3 1127.84 169.220   7
 -11  -3  -3 1006.67 422.439   2
 -11   3  -3 970.829 364.783   2
 -11   3  -4 10100.0 514.851   7
 -11  -3  -4 10998.2 507.073   7
 -11   3  -4 10449.6 421.466  12
 -11   3  -5 15391.9 596.640   7
 -11  -3  -5 15479.6 626.550   7
 -11   3  -5 15468.2 503.410  12
 -11   3  -6 1537.76 184.378   7
 -11  -3  -6 1404.69 199.579   7
 -11   3  -7 31722.2 837.053   7
 -11  -3  -7 33242.8 887.238   7
 -11   3  -8 2969.21 244.872   7
 -11  -3  -8 2438.59 244.585   7
 -11   3  -9 161.701 71.9723   7
 -11  -3  -9 130.635 73.6116   7
 -11   3 -10 7397.03 327.743   7
 -11  -3 -10 7396.13 355.300   7
 -11  -3 -11 1587.38 147.927   7
 -11  -3 -12 1495.21 120.004   7
  11  -5 -20 27.3014 30.3140   7
 -11  -5  19 34.2573 29.3662   9
  11  -5 -19 30.1765 49.3074   7
 -11  -5  18 4819.28 232.499   9
 -11  -5  17 4349.40 248.001   9
 -11   5  16 8762.92 358.818   9
 -11  -5  16 9638.93 394.389   9
 -11  -5  16 8840.17 412.188   8
 -11   5  15 4024.22 250.114   9
 -11  -5  15 4182.24 275.404   9
 -11  -5  15 3772.24 285.042   8
 -11  -5  14 197.226 90.2875  10
 -11   5  14 120.372 78.1483   9
 -11  -5  14 99.0434 95.5706   8
 -11   5  13 201.713 77.3708  10
 -11  -5  13 433.082 103.359  10
 -11   5  13 323.848 85.2740   9
 -11  -5  13 269.330 107.874   8
 -11   5  12 551.411 118.752  10
 -11  -5  12 395.936 108.643  10
 -11   5  12 451.033 93.9312   9
 -11  -5  12 315.190 102.498   8
 -11  -5  12 242.140 225.326   3
 -11  -5  11 2039.97 189.595  10
 -11  -5  11 1936.83 178.993  13
 -11   5  11 1974.71 181.634   9
 -11  -5  11 1956.24 215.574   8
 -11   5  11 1931.49 177.979  10
 -11  -5  11 2006.77 488.029   3
 -11  -5  10 211.287 220.202   3
 -11   5  10 484.504 95.1798  10
 -11  -5  10 1025.16 140.886  10
 -11  -5  10 289.474 108.918   8
 -11  -5  10 843.048 158.544  13
 -11   5   9 53.0671 62.9961  10
 -11  -5   9 39.5173 57.4271  10
 -11  -5   9 99.3277 57.9324   8
 -11  -5   9 41.9870 52.7034  13
 -11   5   9 208.375 101.595  12
 -11  -5   9 171.896 139.860   3
 -11   5   8 13803.1 438.223  10
 -11  -5   8 14303.8 457.161  10
 -11  -5   8 14748.3 496.173   8
 -11  -5   8 16386.8 519.348   5
 -11  -5   8 14242.8 460.297  13
 -11   5   8 13560.9 531.957  12
 -11   5   8 13904.9 1219.38   4
 -11  -5   8 16572.9 1156.42   3
 -11   5   7 13454.8 410.125  10
 -11  -5   7 12783.5 440.648  10
 -11  -5   7 13429.3 461.136   5
 -11   5   7 13049.9 1115.10   4
 -11   5   7 13492.4 513.547  12
 -11  -5   6 3481.72 684.080   2
 -11  -5   6 4142.65 243.618   5
 -11   5   6 2299.57 218.477  12
 -11   5   6 3368.52 549.110   4
 -11  -5   5 25480.1 1787.09   2
 -11  -5   5 25447.6 632.879   5
 -11   5   5 25495.9 655.398  12
 -11   5   5 27006.7 1488.89   4
 -11  -5   4 28454.0 1881.94   2
 -11   5   4 29971.6 724.378  12
 -11   5   4 27389.5 1414.92   4
 -11  -5   4 28383.6 870.957   7
 -11  -5   4 29339.7 658.325   5
 -11  -5   3 1456.54 198.261   7
 -11   5   3 1843.12 191.034  12
 -11  -5   3 1254.01 459.932   2
 -11   5   2 1810.18 248.657   7
 -11  -5   2 2217.73 250.905   7
 -11   5   2 1788.38 200.994  12
 -11  -5   2 2374.95 590.534   2
 -11  -5   1 14945.8 1445.91   2
 -11   5   1 15222.6 528.686  12
 -11   5   1 14191.1 637.377   7
 -11  -5   1 14227.8 589.843   7
 -11   5   1 15439.6 1220.63   2
 -11   5   0 143.960 93.1827   7
 -11  -5   0 13.2639 53.8400   7
 -11   5   0 92.8317 53.6310  12
 -11  -5   0 129.837 193.867   2
 -11   5   0 72.6304 166.003   2
 -11  -5  -1 13750.6 1457.04   2
 -11   5  -1 13588.7 592.797   7
 -11  -5  -1 13522.9 563.426   7
 -11   5  -1 13417.9 1256.34   2
 -11   5  -1 13108.2 476.304  12
 -11   5  -2 8059.51 1001.72   2
 -11  -5  -2 8413.91 1162.09   2
 -11   5  -2 8282.41 456.209   7
 -11  -5  -2 9408.86 458.462   7
 -11   5  -2 9223.17 404.150  12
 -11  -5  -3 6941.09 1041.02   2
 -11   5  -3 7040.30 409.950   7
 -11  -5  -3 7560.35 416.344   7
 -11   5  -3 7203.88 976.444   2
 -11   5  -3 6826.06 346.094  12
 -11   5  -4 4325.89 326.264   7
 -11  -5  -4 4781.61 337.588   7
 -11   5  -4 4286.38 280.781  12
 -11   5  -5 1689.72 204.613   7
 -11  -5  -5 1599.83 200.421   7
 -11   5  -5 1680.27 169.897  12
 -11   5  -6 19035.5 639.486   7
 -11  -5  -6 18148.5 663.147   7
 -11   5  -6 17302.6 541.538  12
 -11   5  -7 6403.65 357.906   7
 -11  -5  -7 6289.46 376.078   7
 -11   5  -7 5330.85 287.868  12
 -11   5  -8 5137.96 302.193   7
 -11  -5  -8 5229.62 334.052   7
 -11   5  -8 4945.06 260.531  12
 -11  -5  -9 89.3664 48.1465   7
 -11  -5 -10 8710.96 373.965   7
 -11  -5 -11 1.31857 38.7831   7
  11  -7 -19 431.508 75.3041   7
 -11  -7  18 585.816 87.7583   9
  11  -7 -18 334.066 88.8289   7
 -11  -7  17 42.4057 42.9283   9
 -11  -7  16 3220.11 216.802   9
 -11  -7  16 2929.64 228.207   8
 -11  -7  15 314.603 93.8366   9
 -11  -7  15 428.402 121.349   8
 -11   7  14 1687.04 145.987   9
 -11  -7  14 1447.34 187.045   8
 -11  -7  14 1574.83 160.637  10
 -11  -7  13 213.291 81.5512  10
 -11  -7  13 401.482 117.463   8
 -11  -7  12 155.515 68.7189  10
 -11  -7  12-0.82957 63.4461   8
 -11   7  12 116.592 63.9031  10
 -11  -7  11 11106.2 418.518  13
 -11  -7  11 10835.6 472.310   8
 -11  -7  11 9954.36 1060.75   3
 -11   7  11 10590.0 381.130  10
 -11  -7  11 11089.0 407.324  10
 -11  -7  10 25303.2 600.743  10
 -11  -7  10 24099.5 686.349   8
 -11  -7  10 24862.1 622.374  13
 -11   7  10 22966.5 1727.86   4
 -11  -7  10 24459.4 1607.80   3
 -11  -7   9 4992.04 265.984  10
 -11  -7   9 4739.02 311.937   8
 -11  -7   9 4420.26 281.688  13
 -11   7   9 3836.35 309.699  12
 -11   7   9 4276.35 720.062   4
 -11  -7   8 2353.86 189.754  10
 -11  -7   8 2182.12 242.844  13
 -11   7   8 1662.99 203.545  12
 -11   7   8 2695.05 572.130   4
 -11   7   7 7676.17 404.140  12
 -11  -7   7 7980.73 332.405  10
 -11  -7   7 7445.89 352.880   5
 -11   7   7 7578.77 914.460   4
 -11  -7   6 277.694 257.951   2
 -11  -7   6 388.986 90.4356  10
 -11   7   6 235.414 76.9742  12
 -11  -7   6 718.321 124.800   5
 -11   7   6 698.628 322.113   4
 -11  -7   5 34728.0 2226.29   2
 -11   7   5 33174.8 1758.66   4
 -11  -7   5 35669.5 731.841   5
 -11   7   5 32884.2 788.987  12
 -11  -7   4 7655.12 1050.23   2
 -11  -7   4 9063.53 378.438   5
 -11   7   4 8763.89 397.480  12
 -11  -7   3 5702.66 381.685   7
 -11  -7   3 5086.50 298.932   5
 -11  -7   2 9537.83 1201.48   2
 -11  -7   2 10405.3 499.310   7
 -11   7   2 8778.65 400.511  12
 -11  -7   1 21728.8 725.058   7
 -11   7   1 21839.7 635.990  12
 -11  -7   0 421.294 120.471   7
 -11   7   0 99.2049 62.9580  12
 -11  -7   0 500.453 297.894   2
 -11  -7  -1 38031.1 2487.34   2
 -11  -7  -1 40618.3 975.176   7
 -11   7  -1 40223.7 863.236  12
 -11  -7  -2 2009.99 225.595   7
 -11   7  -2 2094.75 212.757  12
 -11  -7  -2 1633.52 575.519   2
 -11  -7  -3 1129.38 172.323   7
 -11   7  -3 829.861 132.801  12
 -11  -7  -4 248.568 105.619   7
 -11   7  -4 242.361 81.2326  12
 -11  -7  -5 3371.41 282.708   7
 -11   7  -5 3495.49 247.676  12
 -11  -7  -6 76.7724 69.8102   7
 -11   7  -6 77.8068 51.8877  12
 -11  -7  -7 9799.27 453.466   7
 -11   7  -7 9603.08 390.159  12
 -11  -7  -8 8066.48 390.485   7
 -11   7  -8 7808.89 328.051  12
 -11  -7  -9 307.696 82.7622   7
 -11   7  -9 153.194 38.4286  12
 -11  -7 -10 7062.99 304.057   7
 -11  -7 -11 58.2390 41.6719   7
 -11   9  19 1368.52 92.5578   6
  11  -9 -18 29.8869 33.3086   7
 -11  -9  17 849.313 87.7660   9
  11  -9 -17 666.805 104.152   7
 -11  -9  16 2711.24 176.169   9
 -11  -9  16 2492.96 199.716   8
 -11  -9  15 49.3976 49.4761   9
 -11  -9  15 134.618 76.1480   8
 -11  -9  14 168.459 81.8802   8
 -11  -9  13 4415.78 299.236   8
 -11  -9  12 1391.08 174.671   8
 -11  -9  12 1486.83 149.680  10
 -11  -9  11 1384.37 151.783  13
 -11  -9  11 1808.77 214.435   8
 -11  -9  11 1770.05 160.970  10
 -11  -9  10 928.274 120.016  10
 -11  -9  10 1122.90 175.335   8
 -11  -9  10 1011.20 140.309  13
 -11   9  10 648.655 285.730   4
 -11  -9   9 1491.17 147.960  10
 -11  -9   9 1260.53 172.880   8
 -11  -9   9 1336.21 156.257  13
 -11   9   9 1220.81 182.632  12
 -11   9   9 1560.77 479.799   4
 -11  -9   8 3893.02 224.931  10
 -11  -9   8 3883.02 251.769  13
 -11   9   8 3386.78 290.967  12
 -11   9   8 3534.35 681.621   4
 -11  -9   7 1779.95 159.698  10
 -11  -9   7 1979.42 176.771  13
 -11  -9   7 1678.92 183.034   5
 -11   9   7 1937.59 216.203  12
 -11   9   7 1808.76 475.764   4
 -11  -9   6 3985.45 227.605  10
 -11  -9   6 3223.53 748.965   2
 -11  -9   6 4464.12 270.606   5
 -11   9   6 3003.13 256.153  12
 -11   9   6 3506.93 642.314   4
  11   9  -6 3651.86 245.947  11
 -11  -9   5 7160.87 316.251  10
 -11  -9   5 7142.27 1062.67   2
 -11  -9   5 9034.87 381.621   5
 -11   9   5 7142.46 376.426  12
  11   9  -5 7536.30 349.697  11
 -11  -9   4 53488.0 911.380   5
 -11   9   4 53809.9 993.306  12
 -11  -9   3 2975.24 224.718   5
 -11   9   3 3221.98 251.676  12
 -11  -9   3 2508.33 659.678   2
 -11  -9   2 13448.1 1500.90   2
 -11  -9   2 14260.8 492.299   5
 -11   9   2 13358.6 523.717  12
 -11  -9   1 403.511 258.158   2
 -11   9   1 630.490 129.100  12
 -11  -9   0 737.530 410.339   2
 -11   9   0 470.894 141.045  12
 -11  -9  -1 9515.68 460.297   7
 -11   9  -1 8813.34 430.678  12
 -11  -9  -2 2496.29 235.125   7
 -11   9  -2 2512.02 235.542  12
 -11  -9  -3 992.933 158.347   7
 -11   9  -3 996.243 156.164  12
 -11  -9  -4 10594.8 479.215   7
 -11   9  -4 10094.2 454.391  12
 -11  -9  -5 4221.87 297.170   7
 -11   9  -5 4386.47 289.430  12
 -11  -9  -6 291.690 87.0593   7
 -11   9  -6 384.656 94.2418  12
 -11  -9  -7 22244.4 633.871   7
 -11   9  -7 21344.7 576.450  12
 -11  -9  -8 1177.11 137.018   7
 -11   9  -8 1023.50 120.730  12
 -11  -9  -9 899.229 112.584   7
 -11   9  -9 976.263 103.037  12
 -11  11  17 1198.89 104.627   6
 -11  11  16 3866.14 207.116   6
 -11 -11  16 3638.54 204.580   8
 -11 -11  15 439.093 70.3730   9
 -11 -11  15 381.130 80.5427   8
  11 -11 -15 208.650 73.7862   7
 -11 -11  14 2740.81 178.905   9
 -11 -11  14 2943.95 219.930   8
 -11 -11  13 1169.77 153.757   8
  11  11 -13 1193.43 129.731  11
 -11 -11  12 312.991 112.032   8
  11  11 -12 159.311 49.4716  11
 -11 -11  11 254.987 101.071   8
  11  11 -11 60.4312 50.2688  11
 -11 -11  10 1174.96 132.965  13
 -11 -11  10 1328.02 174.203   8
  11  11 -10 1118.04 141.435  11
 -11 -11   9 41.1399 61.3762   8
 -11 -11   9 32.2323 50.0578  13
  11  11  -9 102.571 62.2434  11
 -11 -11   8 4428.72 255.770  13
 -11  11   8 4727.56 319.976  12
  11  11  -8 4795.55 302.831  11
 -11  11   7 3677.63 283.022  12
 -11 -11   7 4037.35 245.050  13
  11  11  -7 3786.66 268.131  11
 -11  11   6 57.8588 49.4987  12
  11  11  -6 74.0876 75.0059  11
 -11  11   5 1473.56 183.503  12
 -11 -11   5 2062.92 187.651   5
  11  11  -5 1667.78 185.106  11
 -11 -11   4 436.746 89.4111   5
 -11  11   4 229.900 79.3337  12
 -11 -11   3 10430.9 402.063   5
 -11  11   3 9246.32 431.249  12
 -11 -11   2 325.715 89.6713   5
 -11  11   2 135.512 73.4519  12
 -11 -11   1 26184.7 647.634   5
 -11  11   1 29593.2 765.570  12
 -11 -11   0 88.5118 58.6914   5
 -11  11   0 273.649 80.0298  12
 -11 -11  -1 278.357 88.3673   5
 -11  11  -1 286.161 91.3563  12
 -11  11  -2 9109.08 429.756  12
 -11  11  -3 1600.27 183.244  12
 -11  11  -4 1352.85 168.473  12
 -11  11  -5 687.189 119.675  12
 -11  11  -6 3019.91 216.584  12
 -11  11  -7 11251.0 386.793  12
 -11  11  -8 5758.36 255.018  12
 -11  11  -9 46.0423 28.2033  12
 -11  13  16 3269.89 156.650   6
 -11 -13  15 176.095 55.1730   8
 -11  13  15 150.557 52.5684   6
 -11  13  14 1203.64 120.710   6
 -11 -13  14 1469.85 136.664   8
 -11  13  13 2025.52 161.336   6
 -11 -13  13 2398.79 200.319   8
  11  13 -13 2128.13 166.147  11
 -11  13  12 1136.26 125.910   6
 -11 -13  12 1220.27 143.937   8
  11  13 -12 1058.46 125.487  11
 -11 -13  11 725.307 123.283   8
 -11  13  11 626.791 102.098   6
  11  13 -11 596.914 107.440  11
 -11 -13  10 2129.56 201.029   8
  11  13 -10 1944.24 189.166  11
 -11 -13   9 150.362 69.0378   8
  11  13  -9 132.595 74.8761  11
 -11 -13   8 7888.69 382.032   8
  11  13  -8 7132.11 366.009  11
 -11 -13   7 724.221 108.129  13
 -11  13   7 502.063 123.059  12
  11  13  -7 553.974 128.784  11
 -11 -13   6 3968.83 224.945  13
 -11  13   6 4251.41 288.138  12
  11  13  -6 3988.49 271.735  11
 -11 -13   5 894.851 115.574  13
 -11  13   5 1005.68 142.894  12
  11  13  -5 981.714 145.937  11
 -11  13   4 4629.13 292.904  12
  11  13  -4 4465.72 292.676  11
 -11  13   3 66.1223 55.8361  12
  11  13  -3 73.4793 72.6092   6
 -11  13   2 31.7390 77.5150  12
 -11  13   1 10360.9 464.433  12
 -11  13   0 145.626 65.6980  12
 -11  13  -1 3047.71 241.124  12
 -11  13  -2 7553.30 372.075  12
 -11  13  -3 354.018 84.9930  12
 -11  13  -4 10480.2 417.545  12
 -11  13  -5 5873.83 293.647  12
 -11  13  -6 57.5350 56.4740  12
 -11  13  -7 1277.26 129.788  12
 -11  13  -8 7727.49 243.596  12
 -11 -15  14 778.783 77.8525   8
 -11 -15  13 1291.13 116.001   8
  11  15 -13 1242.03 111.181  11
 -11 -15  12 52.3547 40.8864   8
  11  15 -12 124.597 47.3323  11
 -11 -15  11 1463.92 142.710   8
  11  15 -11 1381.01 144.622  11
 -11 -15  10 3233.00 213.355   8
  11  15 -10 2973.03 213.843  11
 -11 -15   9 221.350 65.7838   8
  11  15  -9 256.081 78.4432  11
 -11 -15   8 8300.11 359.704   8
  11  15  -8 7709.55 354.264  11
 -11 -15   7 820.216 128.951   8
  11  15  -7 616.358 115.599  11
  11  15  -6 400.599 91.7894  11
  11  15  -5 631.615 112.645  11
 -11  15   4 1245.44 146.390  12
  11  15  -4 1221.85 145.545  11
 -11  15   3 2429.59 199.513  12
  11  15  -3 2044.00 194.388  11
 -11  15   2 4837.10 283.978  12
  11  15  -2 4738.16 289.017  11
 -11  15   1 1529.62 161.081  12
 -11  15   0 464.054 102.283  12
 -11  15  -1 336.837 84.0760  12
 -11  15  -2 2695.56 198.688  12
 -11  15  -3 479.680 88.5070  12
 -11  15  -4 2676.95 182.592  12
 -11  15  -5 321.718 66.8301  12
 -11  15  -6 678.922 78.2439  12
  11  17 -12 127.548 41.8980  11
 -11 -17  11 1956.31 128.944   8
  11  17 -11 1969.47 136.281  11
 -11 -17  10 2022.48 133.068   8
  11  17 -10 2186.86 153.761  11
 -11 -17   9 1289.27 120.326   8
  11  17  -9 1787.19 213.853  11
 -11 -17   8 354.492 78.4117   8
  11  17  -8 362.515 81.6307  11
 -11 -17   7 2263.42 167.078   8
  11  17  -7 2484.90 187.239  11
 -11 -17   6 345.906 71.8070   8
  11  17  -6 482.502 93.4495  11
  11  17  -5 4739.55 257.211  11
  11  17  -4 13299.6 435.077  11
  11  17  -3 273.968 83.8460  11
  11  17  -2 74.3716 61.8842  11
 -11  17   1 8823.30 311.489  12
  11  17  -1 8060.42 329.173  11
 -11  17   0 1056.56 110.498  12
  11  17   0 990.139 117.911  11
 -11  17  -1 472.101 75.3711  12
  11  17   1 460.283 85.6755  11
 -11  17  -2 910.303 96.7877  12
  11  17   2 624.199 85.2900  11
 -11  17  -3 466.678 81.7242  12
  11  17   3 211.992 53.9127  11
  11  17   4 639.120 76.9227  11
 -11  17  -4 806.074 75.7908  12
  11  19  -8 3727.37 169.351  11
 -11 -19   7 614.330 66.6142   8
  11  19  -7 707.828 82.7086  11
 -11 -19   6 373.252 61.7427   8
  11  19  -6 331.305 64.8283  11
 -11 -19   5 9433.55 276.614   8
  11  19  -5 9422.52 300.359  11
 -11 -19   4 1882.48 126.751   8
  11  19  -4 1872.84 137.320  11
 -11 -19   3 2116.19 136.183   8
  11  19  -3 2040.32 142.409  11
  11  19  -2 1038.07 101.810  11
  11  19  -1 570.780 74.7205  11
  11  19   0 1364.15 109.338  11
  12   0 -20 2723.25 161.805   7
  12   0 -19 12.9577 46.6677   7
 -12   0  18 7391.18 308.867   9
 -12   0  17-41.6215 64.7218   9
 -12   0  16 752.443 124.956   9
 -12   0  15-27.3812 57.3715  10
 -12   0  15 10.8906 55.3786   9
 -12   0  14 5983.87 344.693   8
 -12   0  14 6461.89 339.257  10
 -12   0  13 105.332 65.2628  10
 -12   0  13 120.541 81.0322   8
 -12   0  12 11678.6 470.127   8
 -12   0  12 10984.1 439.778  10
 -12   0  11 74.4526 59.6094  10
 -12   0  11 29.8535 65.9965   8
 -12   0  11 28.8569 57.4518  13
 -12   0  10 4537.74 292.145  10
 -12   0  10 4947.06 297.354   8
 -12   0  10 4737.96 267.313  13
 -12   0   9-38.9029 70.1451  10
 -12   0   9-3.40140 51.0940   8
 -12   0   9 16.7096 48.9282  13
 -12   0   8 3412.09 235.616   5
 -12   0   8 3495.26 227.233  13
 -12   0   7 29.9296 51.3824   5
 -12   0   7 3.91621 50.2060  10
 -12   0   6 9897.83 1040.46   2
 -12   0   6 11855.2 403.132   5
 -12   0   6 10511.4 471.774  12
 -12   0   5 27.9384 59.6448   5
 -12   0   5 66.2351 46.5693  12
 -12   0   5 120.815 102.322   2
 -12   0   4 716.187 168.121   7
 -12   0   4 494.912 105.918  12
 -12   0   4 708.188 317.363   2
 -12   0   3 57.5336 86.2712   7
 -12   0   3-27.4684 50.3248  12
 -12   0   3-62.6639 200.905   2
 -12   0   2 24609.7 1742.54   2
 -12   0   2 23408.2 832.543   7
 -12   0   2 26093.7 649.125  12
 -12   0   1 45.0538 87.2911   7
 -12   0   1-29.0708 45.3954  12
 -12   0   1-134.238 158.393   2
 -12   0   0 17149.4 1516.21   2
 -12   0   0 15970.9 666.092   7
 -12   0  -1 217.645 61.6304   7
 -12   0  -1-32.9142 226.628   2
 -12   0  -2 11516.6 1347.20   2
 -12   0  -2 10469.4 542.056   7
 -12   0  -3 72.7787 66.6180   7
 -12   0  -4 305.347 131.927   7
 -12   0  -5 116.760 87.5958   7
 -12   0  -6 32920.3 897.318   7
 -12   0  -7 100.012 82.8406   7
 -12   0  -8 2027.91 211.814   7
 -12   0  -9 193.075 82.7459   7
 -12   0 -10 3158.34 208.717   7
 -12   0 -11-31.0030 37.1330   7
  12  -2 -20 47.7283 43.7969   7
 -12  -2  19 206.553 56.4001   9
  12   2 -19 59.4746 47.9140   7
  12  -2 -19 111.619 60.3524   7
 -12   2  18 101.289 50.3773   9
 -12  -2  18 114.111 55.6640   9
 -12   2  17 4651.73 256.306   9
 -12  -2  17 4527.71 269.588   9
 -12   2  16 53.8505 55.3213   9
 -12  -2  16-60.3752 61.6469   9
 -12   2  15 4507.59 287.561   9
 -12  -2  15 4106.63 302.034   9
 -12  -2  15 4218.00 291.589   8
 -12   2  15 4415.81 284.472  10
 -12  -2  15 4678.76 285.603  10
 -12   2  14 1045.89 148.570  10
 -12   2  14 1223.37 163.933   9
 -12  -2  14 1290.73 169.812   8
 -12  -2  14 1353.52 171.961  10
 -12  -2  13 1577.00 200.416   8
 -12   2  13 1666.65 184.958  10
 -12  -2  13 2146.99 209.210  10
 -12  -2  12 3623.02 281.874   8
 -12   2  12 3945.39 261.209  10
 -12  -2  12 3717.26 259.863  10
 -12   2  11 8759.12 379.272  10
 -12  -2  11 8576.13 391.223  10
 -12   2  11 8501.75 371.195   8
 -12  -2  11 8895.03 410.494   8
 -12  -2  11 8142.02 372.072  13
 -12   2  10 3.19268 55.7432  10
 -12  -2  10 89.4080 65.5242  10
 -12  -2  10 61.0208 66.2644   8
 -12   2  10 3.90987 47.0533  13
 -12  -2  10 118.719 68.3244  13
 -12   2   9 23429.3 593.352  10
 -12  -2   9 22668.9 599.401  10
 -12  -2   9 22054.2 584.380  13
 -12  -2   9 24567.5 628.290   8
 -12   2   9 23981.5 566.348  13
 -12   2   8 718.589 110.382  10
 -12  -2   8 918.596 131.652  10
 -12  -2   8 847.640 131.540   8
 -12  -2   8 801.833 134.522   5
 -12   2   8 744.481 94.0260  13
 -12  -2   8 726.613 123.070  13
 -12   2   8 726.581 130.565  12
 -12  -2   8 332.058 222.724   2
 -12   2   7 4526.45 265.832  10
 -12  -2   7 4660.94 278.444  10
 -12  -2   7 3905.02 689.437   2
 -12  -2   7 5438.22 283.298   8
 -12   2   7 4762.19 266.239   5
 -12  -2   7 5110.95 294.385   5
 -12   2   7 4263.78 238.501  13
 -12   2   7 3880.20 320.015  12
 -12   2   6 1755.31 172.420  10
 -12   2   6 1895.22 168.616   5
 -12  -2   6 1918.12 174.501   5
 -12   2   6 1466.02 207.367  12
 -12  -2   6 1669.79 476.431   2
 -12  -2   5 17784.2 1506.84   2
 -12   2   5 18317.6 485.394   5
 -12  -2   5 16520.2 514.371   5
 -12  -2   5 18955.3 602.247  12
 -12   2   5 18788.6 593.939  12
 -12  -2   4 2536.68 594.928   2
 -12   2   4 2710.84 520.332   2
 -12  -2   4 2216.23 282.682   7
 -12  -2   4 2591.08 220.817  12
 -12   2   4 2552.09 183.920   5
 -12   2   4 2375.28 213.365  12
 -12  -2   3 7061.19 977.713   2
 -12   2   3 7193.68 876.296   2
 -12   2   3 6306.55 476.029   7
 -12  -2   3 7457.30 481.502   7
 -12   2   3 7957.47 379.517  12
 -12   2   2 555.107 116.219  12
 -12   2   2 428.325 140.150   7
 -12  -2   2 602.658 137.577   7
 -12  -2   2 394.352 272.738   2
 -12   2   2 594.811 243.857   2
 -12  -2   1 13392.9 1352.34   2
 -12   2   1 13948.7 1318.33   2
 -12   2   1 12318.3 614.410   7
 -12  -2   1 14465.6 605.231   7
 -12   2   1 11425.3 447.833  12
 -12  -2   0 3289.72 686.210   2
 -12   2   0 3174.73 652.299   2
 -12   2   0 2792.40 292.189   7
 -12  -2   0 3915.66 319.488   7
 -12   2   0 2846.34 226.240  12
 -12   2  -1 2465.70 273.765   7
 -12  -2  -1 2330.67 269.371   7
 -12   2  -1 3079.71 229.272  12
 -12  -2  -1 2435.56 606.638   2
 -12   2  -1 2373.70 579.061   2
 -12  -2  -2 4629.47 853.148   2
 -12   2  -2 4573.18 788.516   2
 -12   2  -2 4673.13 361.433   7
 -12  -2  -2 4563.52 355.390   7
 -12   2  -2 4710.74 278.236  12
 -12   2  -3 30179.8 885.130   7
 -12   2  -3 30755.7 725.266  12
 -12   2  -4 7059.30 431.576   7
 -12  -2  -4 7144.46 423.695   7
 -12   2  -5 11396.5 530.661   7
 -12  -2  -5 9756.60 506.039   7
 -12   2  -6 2233.47 242.300   7
 -12  -2  -6 2792.98 263.030   7
 -12   2  -7 17254.9 618.929   7
 -12  -2  -7 15932.8 610.148   7
 -12   2  -8 1882.75 185.951   7
 -12  -2  -8 1704.55 194.135   7
 -12   2  -9 15870.3 511.400   7
 -12  -2  -9 16013.0 539.100   7
 -12   2 -10 648.756 93.6184   7
 -12  -2 -10 590.277 100.000   7
 -12  -2 -11 3174.92 182.821   7
  12  -4 -20 64.9941 40.5314   7
 -12  -4  19 76.1729 41.2247   9
  12  -4 -19 173.760 63.0355   7
 -12  -4  18 8653.14 319.968   9
 -12   4  17 134.020 40.0244   9
 -12  -4  17 40.0506 58.3463   9
 -12   4  16 444.583 93.3657   9
 -12  -4  16 285.669 76.8124   9
 -12  -4  15 475.340 111.277  10
 -12   4  15 676.311 115.824   9
 -12  -4  15 536.115 126.724   8
 -12   4  14 5.23768 67.5325  10
 -12  -4  14-11.0532 64.2987  10
 -12   4  14 30.8161 68.7720   9
 -12  -4  14 48.0790 84.0482   8
 -12   4  13 564.810 103.946  10
 -12  -4  13 475.720 106.639  10
 -12   4  13 533.806 104.887   9
 -12  -4  13 542.988 129.238   8
 -12   4  12 4968.46 287.032   9
 -12  -4  12 4883.10 324.124   8
 -12   4  12 4928.02 302.950  10
 -12  -4  12 5285.63 302.426  10
 -12  -4  11 1692.54 179.074  10
 -12  -4  11 2015.48 199.672   8
 -12  -4  11 1820.28 184.747  13
 -12  -4  11 1889.98 440.445   3
 -12   4  11 1966.68 182.470  10
 -12   4  10 1674.46 170.951  10
 -12  -4  10 1500.87 185.196  10
 -12  -4  10 1400.61 184.465   8
 -12  -4  10 1227.66 152.504  13
 -12  -4  10 1666.05 426.658   3
 -12   4   9 2406.03 197.280  10
 -12  -4   9 2338.72 216.355  10
 -12  -4   9 2560.71 220.600   8
 -12  -4   9 2395.25 202.084  13
 -12  -4   9 1689.68 509.083   2
 -12   4   8 10692.3 409.063  10
 -12  -4   8 11254.0 416.746  10
 -12  -4   8 10414.7 427.943   8
 -12  -4   8 10148.2 413.479   5
 -12  -4   8 9559.94 399.254  13
 -12   4   8 11240.1 528.071  12
 -12   4   8 9769.49 995.906   4
 -12   4   7 1027.71 135.065  10
 -12  -4   7 1046.49 134.559  10
 -12  -4   7 1072.19 131.560   8
 -12  -4   7 1083.72 141.329   5
 -12  -4   7 977.777 375.715   2
 -12   4   7 951.266 143.484  12
 -12   4   7 572.471 228.787   4
 -12   4   6 32268.6 673.281  10
 -12  -4   6 33394.6 718.215   5
 -12   4   5 583.902 98.2681  10
 -12  -4   5 938.915 146.551   5
 -12  -4   5 880.629 394.166   2
 -12   4   5 525.194 127.309  12
 -12  -4   4 932.195 140.515   5
 -12   4   4 1040.13 162.189  12
 -12  -4   4 792.419 187.650   7
 -12  -4   4 904.015 394.322   2
 -12   4   3 1973.36 193.680  12
 -12  -4   3 1610.26 234.990   7
 -12  -4   3 1453.10 477.104   2
 -12  -4   2 15392.6 1485.39   2
 -12   4   2 17010.6 568.253  12
 -12   4   2 15634.1 681.843   7
 -12  -4   2 16165.0 684.124   7
 -12   4   1 522.759 126.428   7
 -12  -4   1 447.440 134.733   7
 -12   4   1 492.888 114.914  12
 -12  -4   1 693.671 328.252   2
 -12   4   1 391.640 180.668   2
 -12  -4   0 28892.7 2119.78   2
 -12   4   0 29741.0 932.471   7
 -12  -4   0 32021.3 905.076   7
 -12   4   0 29443.6 1876.79   2
 -12   4   0 30667.9 763.820  12
 -12  -4  -1 3953.14 828.635   2
 -12   4  -1 4194.21 348.656   7
 -12  -4  -1 4509.81 342.163   7
 -12   4  -1 4616.44 770.031   2
 -12   4  -1 4603.14 290.224  12
 -12   4  -2 6641.97 451.156   7
 -12  -4  -2 7424.73 444.568   7
 -12   4  -2 6774.65 960.749   2
 -12   4  -2 7546.84 371.446  12
 -12   4  -3 988.069 148.718  12
 -12   4  -3 1094.87 181.572   7
 -12  -4  -3 950.579 179.850   7
 -12   4  -4 9401.49 486.129   7
 -12  -4  -4 9235.61 489.768   7
 -12   4  -4 8631.77 405.772  12
 -12   4  -5 4294.01 332.765   7
 -12   4  -5 4263.88 273.675  12
 -12   4  -6 37474.8 924.136   7
 -12  -4  -6 38617.1 956.293   7
 -12   4  -7 526.033 114.938   7
 -12  -4  -7 475.774 111.750   7
 -12   4  -8 12424.5 469.191   7
 -12  -4  -8 12674.9 508.328   7
 -12  -4  -9 218.656 84.5190   7
 -12  -4 -10 25.1277 37.9891   7
 -12  -6  19 687.917 73.0864   9
  12  -6 -19 503.988 82.0084   7
 -12  -6  18 137.967 49.6503   9
 -12  -6  17 854.056 109.773   9
 -12  -6  16 93.8021 48.6491   9
 -12  -6  16 99.0766 76.8890   8
 -12   6  15 732.405 108.259   9
 -12  -6  15 511.916 123.403   8
 -12  -6  15 457.668 100.108  10
 -12  -6  14-0.21932 51.3046  10
 -12   6  14 10.2111 45.4762   9
 -12  -6  14 21.1610 58.2081   8
 -12   6  13 970.296 130.360  10
 -12   6  13 1153.00 140.302   9
 -12  -6  13 1235.10 176.573   8
 -12  -6  13 1210.00 157.426  10
 -12   6  12 72.9684 62.1488  10
 -12  -6  12 13.0585 69.5824  10
 -12  -6  12 38.6451 58.3978   8
 -12   6  11 181.411 65.0973  10
 -12  -6  11 315.717 77.4701  13
 -12  -6  11 229.842 82.8090  10
 -12  -6  11 150.440 79.4544   8
 -12  -6  10 1206.49 150.295  10
 -12  -6  10 1267.36 163.914   8
 -12  -6  10 1265.93 154.616  13
 -12   6  10 1714.08 467.348   4
 -12   6  10 1396.23 147.968  10
 -12  -6   9 35821.1 736.260  10
 -12  -6   9 36408.3 815.667   8
 -12  -6   9 34377.2 744.610  13
 -12   6   9 35245.9 905.983  12
 -12   6   9 35571.4 702.799  10
 -12  -6   8 48.6519 183.569   2
 -12   6   8 268.088 77.7834  10
 -12  -6   8 192.537 85.0895  10
 -12  -6   8 306.703 91.9926  13
 -12  -6   8 325.120 111.328   8
 -12  -6   8 227.852 95.1619   5
 -12   6   8 339.959 253.068  12
 -12   6   8 180.038 154.765   4
 -12  -6   7 2307.10 216.928  10
 -12  -6   7 2916.41 244.662   5
 -12   6   7 2052.06 229.523  12
 -12  -6   7 1917.13 578.534   2
 -12   6   7 2248.53 499.138   4
 -12   6   6 1580.48 189.370  12
 -12  -6   6 1948.10 174.416  10
 -12  -6   6 1768.02 192.339   5
 -12  -6   6 1230.81 492.094   2
 -12   6   6 1309.75 349.153   4
 -12   6   5 19277.0 610.683  12
 -12  -6   5 17426.9 545.878   5
 -12  -6   4 645.225 119.881   5
 -12  -6   4 412.843 298.672   2
 -12   6   4 560.158 120.344  12
 -12  -6   3 12810.5 1446.09   2
 -12  -6   3 14121.3 631.617   7
 -12   6   3 14352.5 527.082  12
 -12  -6   2-54.0094 239.714   2
 -12  -6   2 207.670 107.138   7
 -12   6   2 204.248 88.6822  12
 -12  -6   1 6005.14 1002.08   2
 -12  -6   1 6359.90 431.673   7
 -12   6   1 5466.09 347.762  12
 -12   6   0 1391.98 209.418   7
 -12  -6   0 1593.74 214.373   7
 -12   6   0 1317.06 174.478  12
 -12  -6   0 1332.11 483.240   2
 -12   6  -1 9450.89 509.424   7
 -12  -6  -1 8855.55 483.142   7
 -12   6  -1 9578.67 431.313  12
 -12   6  -2 2949.46 278.599   7
 -12  -6  -2 2837.98 269.544   7
 -12   6  -2 3066.05 248.160  12
 -12   6  -3 12470.8 571.265   7
 -12  -6  -3 12851.8 560.613   7
 -12   6  -3 12446.3 492.657  12
 -12   6  -4 3616.69 300.634   7
 -12  -6  -4 4081.21 311.511   7
 -12   6  -4 3450.69 255.212  12
 -12   6  -5 19243.3 658.919   7
 -12  -6  -5 19483.3 685.473   7
 -12   6  -5 17535.6 563.483  12
 -12  -6  -6 743.398 138.083   7
 -12   6  -6 586.008 105.665  12
 -12  -6  -7 2327.01 220.296   7
 -12   6  -7 2223.36 180.395  12
 -12  -6  -8 175.601 104.035   7
 -12  -6  -9 12019.9 418.994   7
 -12  -6 -10 84.0507 41.5080   7
 -12   8  19 321.748 51.0247   6
 -12  -8  18 1198.56 95.4711   9
  12  -8 -18 847.379 107.005   7
 -12  -8  17 1.97681 43.3348   9
 -12  -8  16 103.868 59.5564   9
 -12  -8  16 101.058 64.2297   8
 -12  -8  15 1286.13 164.686   8
 -12  -8  14 73.2972 48.2439  10
 -12  -8  14 93.7276 82.6140   8
 -12  -8  13 10.2184 50.2601  10
 -12  -8  13 15.9767 82.5732   8
 -12  -8  12 8363.42 419.320   8
 -12  -8  12 9026.58 361.208  10
 -12  -8  11 804.327 117.770  10
 -12  -8  11 622.881 136.936   8
 -12  -8  11 692.062 122.759  13
 -12  -8  10 452.146 100.574  10
 -12  -8  10 432.270 109.846  13
 -12  -8   9 2200.51 184.517  10
 -12  -8   9 2313.60 217.657   8
 -12  -8   9 1973.26 183.021  13
 -12   8   9 1507.37 221.862  12
 -12   8   9 2148.86 553.218   4
 -12  -8   8 176.506 329.018   2
 -12  -8   8 189.423 66.0487  10
 -12  -8   8 152.907 88.0712  13
 -12   8   8 443.629 152.593  12
 -12   8   8-164.803 265.607   4
 -12  -8   7 97.4400 65.2226  10
 -12  -8   7 139.388 80.9643   5
 -12   8   7 132.209 67.1880  12
 -12   8   7-94.2973 194.383   4
 -12  -8   6 27089.3 615.428  10
 -12  -8   6 26324.2 667.772   5
 -12   8   6 26016.8 739.307  12
 -12  -8   5 5793.02 324.003   5
 -12   8   5 6274.30 371.453  12
 -12  -8   4 894.620 144.149   5
 -12   8   4 967.118 172.594  12
 -12  -8   4 868.974 448.065   2
 -12  -8   3 1029.97 151.983   5
 -12  -8   3 717.688 313.036   2
 -12   8   3 904.414 144.687  12
 -12  -8   2 17602.8 672.656   7
 -12  -8   2 15829.0 535.142   5
 -12   8   2 16781.9 596.646  12
 -12  -8   1 71.3335 78.1244   7
 -12   8   1 125.921 85.0905  12
 -12  -8   0 26247.4 807.336   7
 -12   8   0 25722.3 723.558  12
 -12  -8  -1 837.997 150.101   7
 -12   8  -1 790.992 133.280  12
 -12  -8  -2 28592.2 823.945   7
 -12   8  -2 27443.9 755.160  12
 -12  -8  -3 22279.2 719.264   7
 -12   8  -3 21568.5 645.468  12
 -12  -8  -4 5025.25 339.478   7
 -12   8  -4 5720.64 334.227  12
 -12  -8  -5 885.377 150.860   7
 -12   8  -5 859.078 124.498  12
 -12  -8  -6 27773.9 740.245   7
 -12   8  -6 26334.8 649.918  12
 -12  -8  -7 45.4597 53.5606   7
 -12   8  -7 21.1701 45.1687  12
 -12  -8  -8 4644.84 257.780   7
 -12   8  -8 4080.05 203.995  12
 -12  -8  -9 79.1985 54.6472   7
 -12  10  18 181.575 40.7657   6
 -12 -10  17 2369.16 120.980   9
 -12  10  17 2347.55 143.331   6
 -12 -10  16 381.032 66.2058   9
 -12 -10  16 431.987 85.2378   8
  12 -10 -16 194.305 66.3254   7
 -12 -10  15 2763.48 177.847   9
 -12 -10  15 2613.53 213.622   8
 -12 -10  14 515.252 106.705   8
 -12 -10  13 364.234 88.1143   8
 -12 -10  12 1046.99 149.001   8
 -12 -10  11 3343.85 267.858   8
 -12 -10  10 37.3008 59.1688  13
 -12 -10  10-58.7651 89.4957   8
 -12 -10   9 13228.7 521.686   8
 -12 -10   9 12954.9 466.891  13
 -12 -10   8 84.7686 69.0401  13
 -12  10   8-12.9232 73.5380  12
 -12 -10   7 1118.34 146.926  13
 -12  10   7 735.948 172.238  12
 -12 -10   6 859.403 136.015   5
 -12  10   6 476.469 132.654  12
  12  10  -6 643.556 108.328  11
 -12 -10   5 224.724 71.0068  10
 -12 -10   5 138.479 76.7425   5
 -12  10   5 322.620 108.652  12
  12  10  -5 340.562 86.0397  11
 -12 -10   4 1524.04 142.201  10
 -12 -10   4 1350.60 156.582   5
 -12  10   4 1560.68 217.504  12
 -12 -10   3 12173.1 445.152   5
 -12  10   3 12800.6 512.755  12
 -12  10   2 14928.9 552.823  12
 -12 -10   2 13412.4 481.760   5
 -12 -10   1 6521.73 341.038   5
 -12  10   1 5823.57 356.214  12
 -12 -10   0 678.479 131.606   5
 -12  10   0 817.575 171.432  12
 -12  10  -1 2629.23 232.020  12
 -12  10  -2 287.308 92.0904  12
 -12 -10  -3 3308.90 264.743   7
 -12  10  -3 3408.73 263.244  12
 -12 -10  -4 260.121 89.7566   7
 -12  10  -4 205.071 65.5121  12
 -12 -10  -5 6331.06 342.245   7
 -12  10  -5 5749.28 310.694  12
 -12 -10  -6 374.272 82.1637   7
 -12  10  -6 367.606 79.6626  12
 -12 -10  -7 4296.76 236.839   7
 -12  10  -7 4509.40 233.617  12
 -12 -10  -8 136.690 40.6446   5
 -12  10  -8 289.564 52.5587  12
 -12  12  16 162.237 41.7494   6
 -12 -12  15 178.491 69.0029   8
 -12  12  15 162.900 47.8360   6
 -12 -12  14 3636.34 180.217   9
 -12 -12  14 3626.67 221.814   8
 -12 -12  13-69.4937 66.4964   8
 -12  12  13-33.8970 43.3532   6
 -12 -12  12 1466.55 170.771   8
  12  12 -12 1361.25 138.606  11
 -12 -12  11-64.5227 74.2611   8
  12  12 -11 27.6271 47.9326  11
 -12 -12  10 5061.20 311.449   8
  12  12 -10 4304.60 263.075  11
 -12 -12   9 443.696 113.206   8
  12  12  -9 412.256 102.855  11
 -12 -12   9 276.522 74.8506  13
 -12 -12   8 1190.81 136.745  13
 -12  12   8 1130.44 163.122  12
 -12 -12   8 1175.30 155.972   8
  12  12  -8 1190.40 137.415  11
 -12 -12   7 3534.81 219.070  13
 -12  12   7 4489.64 332.057  12
  12  12  -7 4367.86 288.954  11
 -12  12   6 14440.1 537.094  12
 -12 -12   6 13943.2 443.174  13
  12  12  -6 14449.5 497.165  11
 -12  12   5 5205.90 319.397  12
  12  12  -5 4975.83 296.376  11
 -12 -12   4 1157.42 142.568   5
 -12  12   4 1021.93 149.021  12
  12  12  -4 1118.94 138.587  11
 -12 -12   3 1593.63 160.617   5
 -12  12   3 1532.35 191.880  12
 -12 -12   2 1532.33 154.791   5
 -12  12   2 1057.66 164.952  12
 -12 -12   1 11.2951 57.2992   5
 -12  12   1 33.4608 47.3746  12
 -12 -12   0 3260.51 211.551   5
 -12  12   0 3591.61 269.705  12
 -12 -12  -1 1255.01 137.903   5
 -12  12  -1 1777.03 207.648  12
 -12 -12  -2 6617.01 292.985   5
 -12  12  -2 6610.19 351.906  12
 -12 -12  -3 2227.11 165.275   5
 -12  12  -3 2523.12 215.096  12
 -12 -12  -4 297.982 64.3268   5
 -12  12  -4 564.648 103.949  12
 -12  12  -5 1112.84 128.810  12
 -12  12  -6 11835.5 371.984  12
 -12  12  -7 313.992 61.3125  12
 -12 -14  14-7.62844 38.2805   8
 -12 -14  13 592.883 88.1323   8
 -12 -14  12 105.290 54.7172   8
  12  14 -12-25.6426 38.7441  11
 -12 -14  11 4904.59 269.659   8
  12  14 -11 4766.42 242.996  11
 -12 -14  10 393.442 95.0125   8
  12  14 -10 376.128 78.5311  11
 -12 -14   9 14043.6 477.811   8
  12  14  -9 13708.4 447.050  11
 -12 -14   8 237.723 79.0384   8
  12  14  -8 250.232 72.1391  11
  12  14  -7 1995.59 182.053  11
 -12  14   6 316.528 94.1379  12
  12  14  -6 424.015 105.846  11
 -12  14   5 924.727 134.827  12
  12  14  -5 600.170 109.256  11
 -12 -14   4 310.921 69.3093  13
 -12  14   4 260.327 77.6853  12
  12  14  -4 295.591 92.3158  11
 -12  14   3 2100.70 198.182  12
  12  14  -3 1933.35 185.210  11
 -12  14   2 2346.19 205.684  12
  12  14  -2 2100.49 186.128  11
 -12  14   1 4779.13 296.192  12
 -12  14   0 1127.95 145.698  12
 -12  14  -1 1550.68 169.464  12
 -12  14  -2 423.295 84.2528  12
 -12  14  -3 2397.57 185.755  12
 -12  14  -4 3056.93 190.382  12
 -12  14  -5 275.406 65.4634  12
 -12  14  -6 826.544 84.0619  12
 -12 -16  12 3723.90 177.057   8
  12  16 -12 3509.63 159.299  11
 -12 -16  11 156.507 56.3230   8
  12  16 -11 4.85109 33.7988  11
 -12 -16  10 2918.69 178.794   8
  12  16 -10 2597.11 167.604  11
 -12 -16   9 63.8078 42.5499   8
  12  16  -9 19.3123 37.5037  11
 -12 -16   8 242.036 84.6863   8
  12  16  -8 390.474 78.1235  11
 -12 -16   7 707.425 104.652   8
  12  16  -7 555.954 89.5075  11
 -12 -16   6 7530.06 321.863   8
  12  16  -6 6950.33 307.260  11
  12  16  -5 1340.56 138.068  11
 -12  16   4 247.240 70.7395  12
  12  16  -4 172.673 73.6489  11
 -12  16   3 3377.47 210.283  12
  12  16  -3 2561.83 192.837  11
 -12  16   2 1243.57 133.809  12
  12  16  -2 998.819 123.325  11
 -12  16   1 991.337 113.802  12
  12  16  -1 792.052 107.219  11
 -12  16   0 2743.15 183.234  12
  12  16   0 2369.32 169.217  11
 -12  16  -1 1389.71 130.887  12
  12  16   1 1415.92 130.233  11
 -12  16  -2 2071.72 148.627  12
  12  16   2 1825.40 140.330  11
 -12  16  -3 101.933 44.6318  12
  12  16   3 543.991 73.5866  11
 -12  16  -4 173.292 45.0203  12
 -12 -18   9 1116.69 89.4541   8
  12  18  -9 1296.05 101.302  11
 -12 -18   8 360.838 62.0905   8
  12  18  -8 474.309 68.3356  11
 -12 -18   7 4615.17 197.222   8
  12  18  -7 3875.58 188.936  11
 -12 -18   6 259.207 59.4781   8
  12  18  -6 235.193 59.4863  11
 -12 -18   5 2884.91 166.304   8
  12  18  -5 2884.38 167.861  11
 -12 -18   4 445.498 71.5327   8
  12  18  -4 284.254 59.8444  11
  12  18  -3 6835.92 254.016  11
  12  18  -2 1476.10 117.850  11
  12  18  -1 338.335 66.6430  11
  12  18   0 129.314 42.4609  11
  13  -1 -20 136.637 41.6683   7
 -13  -1  19 2238.81 145.011   9
  13   1 -19 1151.45 119.717   7
 -13   1  18 58.1866 52.0944   9
 -13  -1  18 111.549 51.5413   9
 -13   1  17 416.914 86.4485   9
 -13  -1  17 390.222 95.2014   9
 -13   1  16 279.386 77.8375   9
 -13  -1  16 323.616 81.7593   9
 -13   1  15 314.599 101.755  10
 -13  -1  15 259.251 109.631  10
 -13   1  15 359.596 82.6291   9
 -13  -1  15 485.963 114.947   9
 -13   1  14 1531.90 174.605   9
 -13  -1  14 1628.54 179.514   8
 -13   1  14 1363.40 171.328  10
 -13  -1  14 1765.67 183.364  10
 -13  -1  13 7671.23 377.329   8
 -13   1  13 7540.17 378.580  10
 -13  -1  13 7836.47 373.927  10
 -13   1  12 5694.23 317.010   8
 -13  -1  12 5569.18 317.098   8
 -13   1  12 5388.85 312.218  10
 -13  -1  12 5479.52 313.240  10
 -13  -1  11 1282.70 165.712  10
 -13  -1  11 1156.87 150.239  13
 -13   1  11 1253.36 153.533  10
 -13   1  11 1457.68 159.434   8
 -13  -1  11 1333.24 174.100   8
 -13   1  10 12540.6 465.713  10
 -13  -1  10 12277.7 457.931  10
 -13  -1  10 13297.4 470.095   8
 -13   1  10 12056.0 437.312  13
 -13  -1  10 12597.5 456.131  13
 -13   1   9 259.095 90.2947  10
 -13  -1   9 405.450 106.789  13
 -13  -1   9 221.095 85.5877  10
 -13  -1   9 350.222 90.7577   8
 -13   1   9 188.433 58.8815  13
 -13   1   8 7539.49 356.683  10
 -13  -1   8 8170.93 368.178  10
 -13   1   8 7964.88 347.799  13
 -13   1   8 8979.62 364.203   5
 -13  -1   8 8471.03 381.927   5
 -13  -1   8 8550.53 363.256  13
 -13   1   7 11838.4 457.116  10
 -13  -1   7 10559.4 428.864  10
 -13   1   7 12264.9 422.745   5
 -13  -1   7 11712.5 438.643   5
 -13   1   7 11929.9 417.232  13
 -13   1   7 11649.5 551.187  12
 -13   1   6 5953.27 309.681  10
 -13  -1   6 4604.93 776.072   2
 -13   1   6 5772.18 302.102   5
 -13  -1   6 5299.74 306.809   5
 -13   1   6 6527.91 403.020  12
 -13  -1   5 2423.15 596.922   2
 -13  -1   5 3143.76 333.848  12
 -13   1   5 2508.09 204.302   5
 -13  -1   5 2790.90 226.373   5
 -13   1   5 3491.24 325.338  12
 -13  -1   4 803.934 177.922   7
 -13   1   4 650.090 125.327   5
 -13  -1   4 1151.36 178.822  12
 -13   1   4 808.419 149.212  12
 -13  -1   4 631.178 123.592   5
 -13  -1   4 820.606 357.593   2
 -13   1   4 470.035 292.859   2
 -13  -1   3 1019.06 160.077  12
 -13  -1   3 1393.26 233.143   7
 -13   1   3 1038.92 156.672  12
 -13   1   3 959.144 204.842   7
 -13  -1   3 765.475 335.181   2
 -13   1   3 567.953 289.212   2
 -13  -1   2 22406.6 1823.15   2
 -13   1   2 21760.0 1697.03   2
 -13   1   2 22612.5 864.599   7
 -13  -1   2 24698.6 874.529   7
 -13  -1   2 22779.4 638.560  12
 -13   1   2 22274.4 637.903  12
 -13  -1   1 6879.52 1020.68   2
 -13   1   1 7100.19 1016.28   2
 -13   1   1 7403.99 499.433   7
 -13  -1   1 7760.64 485.872   7
 -13   1   1 7467.16 365.407  12
 -13   1   0 364.938 132.073   7
 -13  -1   0 321.228 127.066   7
 -13   1   0 477.358 100.737  12
 -13  -1   0 417.316 275.695   2
 -13   1   0 133.108 173.991   2
 -13   1  -1 9863.41 553.942   7
 -13  -1  -1 10217.4 539.303   7
 -13   1  -1 9324.29 403.693  12
 -13   1  -2 6660.06 454.995   7
 -13  -1  -2 6777.00 451.805   7
 -13   1  -3 2847.49 274.939   7
 -13  -1  -3 2556.41 261.304   7
 -13   1  -4 12669.5 595.900   7
 -13  -1  -4 13344.3 616.576   7
 -13   1  -5 26328.9 829.301   7
 -13  -1  -5 26182.5 829.642   7
 -13   1  -6 144.090 76.6962   7
 -13  -1  -6 161.578 80.6267   7
 -13   1  -7 2852.35 245.036   7
 -13  -1  -7 2705.17 244.033   7
 -13   1  -8 2441.01 208.712   7
 -13  -1  -8 2729.11 221.875   7
 -13  -1  -9 1025.32 128.128   7
 -13   1  -9 987.685 116.695   7
 -13  -1 -10 4099.98 202.964   7
  13  -3 -20 620.920 80.0188   7
 -13  -3  19 1033.94 98.8162   9
  13  -3 -19 393.763 83.4910   7
 -13  -3  18 1740.73 144.048   9
 -13   3  17 60.5608 43.9744   9
 -13  -3  17 261.848 78.3911   9
 -13   3  16 370.896 81.6786   9
 -13  -3  16 533.956 105.017   9
 -13  -3  15 37.9978 75.0153  10
 -13   3  15 68.8417 70.5492   9
 -13  -3  15 138.103 77.4221   8
 -13   3  15 185.709 75.8685  10
 -13   3  14 3341.77 257.385   9
 -13  -3  14 3774.05 276.201   8
 -13   3  14 3478.01 259.976  10
 -13  -3  14 4109.41 270.743  10
 -13   3  13 3911.91 259.059   9
 -13  -3  13 3309.62 263.096   8
 -13   3  13 3292.61 255.693  10
 -13  -3  13 3848.62 273.262  10
 -13   3  12 201.374 70.9719  10
 -13  -3  12 240.291 92.0402  10
 -13  -3  12 277.297 92.0785   8
 -13  -3  12 119.649 78.5389  13
 -13  -3  11 5180.53 302.232  10
 -13  -3  11 4797.86 304.745   8
 -13  -3  11 4807.09 290.806  13
 -13   3  11 4665.25 297.878  10
 -13   3  10 2132.83 196.432  10
 -13  -3  10 1650.81 179.356  10
 -13  -3  10 2046.88 228.595   8
 -13  -3  10 1768.78 181.853  13
 -13   3   9 7306.82 348.591  10
 -13  -3   9 8212.00 368.841  10
 -13  -3   9 8042.08 379.042   8
 -13   3   9 8144.19 332.314  13
 -13  -3   9 7724.01 362.918  13
 -13  -3   8 1163.52 163.052  10
 -13   3   8 1184.62 139.202  10
 -13  -3   8 1138.76 143.898   8
 -13  -3   8 970.356 145.685   5
 -13   3   8 1461.99 183.408  13
 -13  -3   8 1253.58 209.834  13
 -13  -3   8 840.520 376.589   2
 -13   3   8 672.035 139.096  12
 -13   3   7 11536.1 422.370  10
 -13  -3   7 12007.1 445.290  10
 -13   3   7 12310.3 563.253  12
 -13  -3   7 12554.8 435.987   8
 -13   3   6 866.680 128.950  10
 -13  -3   6 1078.49 128.302   8
 -13   3   6 1066.72 174.378  12
 -13  -3   6 691.960 121.306   5
 -13  -3   5 639.651 123.905   5
 -13  -3   5 602.700 361.952   2
 -13   3   5 301.248 96.1199  12
 -13  -3   4 3929.74 764.108   2
 -13  -3   4 3718.00 349.141   7
 -13  -3   4 3451.82 261.236   5
 -13   3   4 3714.92 296.359  12
 -13  -3   3 1879.38 264.835   7
 -13   3   3 2097.44 242.626  12
 -13  -3   3 1246.12 444.215   2
 -13  -3   2 14055.3 1476.72   2
 -13   3   2 12217.5 672.278   7
 -13  -3   2 14715.2 670.032   7
 -13   3   2 13028.1 512.417  12
 -13  -3   1 12447.8 1428.18   2
 -13   3   1 11966.8 642.304   7
 -13   3   1 11346.8 1212.93   2
 -13  -3   1 15043.7 668.016   7
 -13   3   1 14580.3 531.352  12
 -13   3   0 40.0267 46.2017  12
 -13   3   0 63.1103 67.5481   7
 -13  -3   0 27.4743 63.7133   7
 -13  -3   0-28.8143 144.869   2
 -13   3   0 144.285 200.353   2
 -13   3  -1 2463.88 297.312   7
 -13  -3  -1 2835.66 309.135   7
 -13   3  -1 2376.38 229.076  12
 -13   3  -2 23142.0 808.622   7
 -13  -3  -2 22628.5 792.638   7
 -13   3  -2 21395.0 631.090  12
 -13   3  -3 349.040 106.724   7
 -13  -3  -3 183.796 84.7709   7
 -13   3  -3 325.494 82.8844  12
 -13   3  -4 384.224 145.160   7
 -13  -3  -4 416.986 136.273   7
 -13   3  -4 271.173 88.6465  12
 -13   3  -5 8951.20 478.422   7
 -13  -3  -5 9819.87 495.438   7
 -13   3  -6 1626.13 201.672   7
 -13  -3  -6 1403.45 198.168   7
 -13   3  -7 5847.87 336.218   7
 -13  -3  -7 6159.04 361.840   7
 -13   3  -8 3157.83 223.141   7
 -13  -3  -8 3108.95 238.858   7
 -13  -3  -9 304.200 85.0080   7
 -13  -3 -10 6668.48 260.778   7
 -13  -5  19 497.722 65.7573   9
  13  -5 -19 234.908 65.2025   7
 -13  -5  18 116.698 52.4951   9
 -13  -5  17 4206.89 237.026   9
 -13   5  16 3073.76 188.619   9
 -13  -5  16 3569.74 236.624   9
 -13  -5  16 3056.77 238.885   8
 -13  -5  15 558.142 102.861  10
 -13   5  15 427.084 87.0204   9
 -13  -5  15 517.105 116.482   8
 -13   5  14 2192.12 179.589   9
 -13  -5  14 2269.77 222.157   8
 -13   5  14 2171.12 185.457  10
 -13  -5  14 2507.04 204.562  10
 -13   5  13 534.564 115.198  10
 -13  -5  13 680.582 125.850  10
 -13   5  13 482.079 94.4838   9
 -13  -5  13 508.199 124.447   8
 -13  -5  12 2198.99 202.176  13
 -13   5  12 2185.29 185.012   9
 -13  -5  12 2126.63 213.953   8
 -13   5  12 2190.18 197.178  10
 -13  -5  12 2018.19 200.837  10
 -13  -5  11 5342.06 302.893  10
 -13  -5  11 4969.49 334.108   8
 -13  -5  11 5116.06 302.763  13
 -13   5  11 5016.16 288.989  10
 -13  -5  10 5997.20 329.120  10
 -13  -5  10 6091.72 345.969   8
 -13  -5  10 6664.19 385.239  13
 -13   5  10 5976.85 308.959  10
 -13   5   9 5411.88 288.662  10
 -13  -5   9 6056.48 316.519  10
 -13  -5   9 5949.12 335.472   8
 -13  -5   9 5589.49 313.094  13
 -13   5   9 5023.44 783.483   4
 -13   5   8 4949.57 276.008  10
 -13  -5   8 4946.91 288.233  10
 -13  -5   8 5306.50 312.517   8
 -13  -5   8 5502.34 307.748   5
 -13  -5   8 4933.46 295.084  13
 -13   5   7 4630.99 262.413  10
 -13  -5   7 3812.20 268.757  10
 -13  -5   7 3990.14 266.813   8
 -13  -5   7 4040.57 257.064   5
 -13   5   7 4327.91 350.243  12
 -13   5   6 6425.07 302.290  10
 -13  -5   6 5553.24 310.388   5
 -13   5   6 6014.11 375.094  12
 -13   5   5 627.840 123.734  10
 -13  -5   5 885.483 388.235   2
 -13   5   5 484.084 126.557  12
 -13  -5   5 409.715 115.848   5
 -13   5   4 9969.77 380.589  10
 -13  -5   4 8711.71 1159.85   2
 -13  -5   4 10251.8 427.204   5
 -13   5   4 10301.3 486.467  12
 -13  -5   3 1235.60 205.319   7
 -13   5   3 1593.57 231.945  12
 -13  -5   3 923.582 407.087   2
 -13  -5   2 4808.12 906.951   2
 -13  -5   2 6116.89 439.462   7
 -13   5   2 5207.27 344.458  12
 -13   5   1 3332.35 369.991   7
 -13  -5   1 4536.03 380.593   7
 -13   5   1 4106.92 305.323  12
 -13   5   0 1622.69 232.171   7
 -13  -5   0 1961.88 246.753   7
 -13   5   0 1412.90 171.188  12
 -13   5  -1 12062.8 601.147   7
 -13  -5  -1 11524.9 584.217   7
 -13   5  -1 10726.6 479.392  12
 -13   5  -2 6925.57 461.993   7
 -13  -5  -2 8012.72 461.319   7
 -13   5  -2 7879.95 389.418  12
 -13   5  -3 576.296 148.596   7
 -13  -5  -3 740.509 148.563   7
 -13   5  -3 677.327 114.918  12
 -13   5  -4 10291.4 509.180   7
 -13   5  -4 9346.91 420.487  12
 -13   5  -5 12222.7 530.740   7
 -13  -5  -5 12220.3 533.155   7
 -13   5  -5 11295.1 421.093  12
 -13   5  -6 495.764 90.8115  12
 -13   5  -6 367.199 94.1440   7
 -13  -5  -6 349.387 103.698   7
 -13  -5  -7 10025.1 439.729   7
 -13  -5  -8 2669.53 209.751   7
 -13  -5  -9 174.546 56.5046   7
  13  -7 -19 1376.92 113.231   7
 -13  -7  18 128.980 45.5540   9
  13  -7 -18 63.1867 44.5655   7
 -13  -7  17 323.740 73.5437   9
 -13  -7  16 250.283 64.9111   9
 -13  -7  16 175.999 79.1587   8
 -13  -7  15 852.716 140.340   8
 -13  -7  14 734.113 110.160  10
 -13  -7  14 705.390 139.439   8
 -13  -7  13 530.915 102.957  10
 -13  -7  13 435.644 116.306   8
 -13   7  12 1032.25 130.192  10
 -13  -7  12 1183.50 142.859  10
 -13  -7  12 1294.54 180.487   8
 -13  -7  11 3315.35 236.589  10
 -13  -7  11 3172.26 264.219   8
 -13  -7  11 3141.10 229.778  13
 -13  -7  10 19357.4 542.036  10
 -13  -7  10 19409.7 617.174   8
 -13  -7  10 18479.5 567.908  13
 -13  -7   9 47.3670 53.3576  10
 -13  -7   9-22.5949 75.9951   8
 -13  -7   9 31.1800 64.3728  13
 -13   7   9 93.0297 106.618  12
 -13   7   9 4.37388 276.716   4
 -13  -7   8 1875.52 198.109  10
 -13  -7   8 1957.22 208.680   8
 -13  -7   8 1670.29 185.441  13
 -13   7   8 1314.76 224.532  12
 -13  -7   7 1910.43 189.283  10
 -13  -7   7 1725.36 199.378   5
 -13  -7   6 1294.79 166.319  10
 -13  -7   6 1602.12 188.930   5
 -13   7   6 1079.37 183.094  12
 -13  -7   5 82.0635 79.8252   5
 -13  -7   5 387.108 332.827   2
 -13   7   5 104.158 60.5601  12
 -13  -7   4 1946.54 189.439   5
 -13   7   4 1783.29 199.493  12
 -13  -7   3 3063.93 249.591   5
 -13   7   3 3853.97 296.402  12
 -13  -7   2 3346.25 308.955   7
 -13  -7   2 3351.19 259.710   5
 -13   7   2 2908.15 260.303  12
 -13  -7   1 6170.58 418.978   7
 -13   7   1 6543.10 374.640  12
 -13  -7   0 503.778 138.931   7
 -13   7   0 522.153 121.205  12
 -13  -7  -1 14428.7 629.657   7
 -13   7  -1 13908.3 540.696  12
 -13  -7  -2 289.222 106.021   7
 -13   7  -2 291.435 133.383  12
 -13  -7  -3 14597.6 610.674   7
 -13   7  -3 15393.9 548.703  12
 -13  -7  -4 6174.10 377.741   7
 -13   7  -4 6061.34 326.483  12
 -13  -7  -5 10402.2 473.592   7
 -13   7  -5 9691.95 396.233  12
 -13  -7  -6 497.441 127.105   7
 -13   7  -6 329.493 77.3676  12
 -13  -7  -7 3932.45 252.031   7
 -13   7  -7 3154.65 187.668  12
 -13  -7  -8 2383.70 180.669   7
 -13  -9  17 447.937 64.8802   9
  13  -9 -17 371.512 72.1033   7
 -13  -9  16 240.687 63.2306   9
 -13  -9  16 75.3085 47.8759   8
 -13  -9  15 152.910 52.6098   9
 -13  -9  15-52.7657 62.3675   8
 -13  -9  14 4110.77 279.210   8
 -13  -9  13 3513.16 270.348   8
 -13  -9  13 3356.97 204.490  10
 -13  -9  12 527.722 90.3368  10
 -13  -9  12 706.322 130.911   8
 -13  -9  11 523.804 106.365  10
 -13  -9  11 511.884 132.468   8
 -13  -9  11 356.310 92.7574  13
 -13  -9  10 1117.44 132.125  10
 -13  -9  10 1056.68 158.741   8
 -13  -9  10 1177.80 144.114  13
 -13  -9   9 716.481 104.931  10
 -13  -9   9 1046.49 166.952   8
 -13  -9   9 711.049 129.485  13
 -13  -9   8 198.885 72.8091  10
 -13  -9   8 102.668 59.7881  13
 -13  -9   8-0.47982 82.7344   8
 -13   9   8 83.4582 91.5764  12
 -13  -9   7 3681.17 237.049  10
 -13  -9   7 3755.84 267.542   5
 -13  -9   7 3673.61 247.132  13
 -13   9   7 3424.93 300.169  12
 -13  -9   6 4501.80 254.620  10
 -13   9   6 3834.27 305.550  12
 -13  -9   5 3350.08 225.980  10
 -13   9   5 3315.59 277.471  12
 -13  -9   4 4836.66 292.312   5
 -13   9   4 4575.01 342.297  12
 -13  -9   3 182.311 90.1256   5
 -13   9   3 2.13428 65.0895  12
 -13  -9   2 566.084 119.690   5
 -13   9   2 509.600 119.068  12
 -13  -9   1 1267.35 189.917   7
 -13  -9   1 1299.17 183.185   5
 -13   9   1 1652.73 216.258  12
 -13  -9   0 2029.57 233.071   7
 -13  -9   0 2159.71 197.899   5
 -13   9   0 2364.88 219.848  12
 -13  -9  -1 8946.10 471.290   7
 -13   9  -1 8790.85 427.395  12
 -13  -9  -2 10634.1 491.983   7
 -13   9  -2 12043.8 485.995  12
 -13  -9  -3 87.9900 54.2755   7
 -13   9  -3 25.3899 45.7702  12
 -13  -9  -4 10040.6 447.459   7
 -13   9  -4 8482.69 389.571  12
 -13  -9  -5 2358.05 210.139   7
 -13   9  -5 2406.64 195.052  12
 -13  -9  -6 2830.84 206.818   7
 -13   9  -6 3656.53 211.573  12
 -13  -9  -7 6137.01 273.776   7
 -13   9  -7 5697.78 226.878  12
 -13 -11  16 668.800 67.5765   9
 -13 -11  16 731.031 91.3485   8
 -13 -11  15 54.4290 41.3325   9
 -13 -11  15 124.747 56.7640   8
 -13 -11  14 237.754 72.0178   8
 -13 -11  13 966.807 144.786   8
 -13 -11  12 97.6221 67.6831   8
 -13 -11  11 5166.83 304.163   8
 -13 -11  10 6794.98 363.425   8
 -13 -11  10 7174.62 318.048  13
 -13 -11   9 137.743 94.8305   8
 -13 -11   9-1.50557 50.1496  13
 -13 -11   8 5235.69 280.430  13
 -13 -11   8 5792.34 328.064   8
 -13  11   8 5178.59 348.106  12
 -13  11   7 8082.58 433.644  12
 -13 -11   7 8428.43 359.020  13
 -13 -11   6 86.8491 56.2260  13
 -13  11   6 165.297 108.602  12
 -13 -11   5 1514.22 158.952   5
 -13  11   5 1041.40 166.528  12
 -13 -11   4 3790.16 254.371   5
 -13  11   4 3944.12 302.473  12
  13  11  -4 3998.57 249.725  11
 -13 -11   3 5750.82 300.050   5
 -13  11   3 5601.97 336.401  12
 -13 -11   2 16156.0 497.696   5
 -13  11   2 15681.8 567.897  12
 -13 -11   1 5103.34 278.158   5
 -13  11   1 5924.54 345.441  12
 -13 -11   0 4582.40 255.702   5
 -13  11   0 4681.17 308.109  12
 -13 -11  -1 7159.83 325.464   5
 -13  11  -1 7687.71 384.232  12
 -13 -11  -2 1087.38 126.773   5
 -13  11  -2 1192.49 154.014  12
 -13 -11  -3 548.443 99.9100   5
 -13  11  -3 377.616 94.8974  12
 -13 -11  -4 5963.93 255.105   5
 -13  11  -4 6447.37 311.059  12
 -13 -11  -5 11302.9 316.862   5
 -13  11  -5 12893.5 399.789  12
 -13  11  -6-22.0987 40.2825  12
 -13 -13  15-80.3948 38.7986   8
 -13 -13  14 1781.56 146.406   8
 -13 -13  13 1769.74 154.745   8
 -13 -13  12 1970.06 165.320   8
 -13 -13  11 435.886 97.0810   8
 -13 -13  10 1240.87 150.269   8
 -13 -13   9 622.829 86.0263  13
  13  13  -9 591.412 101.400  11
 -13 -13   8 645.393 102.858   8
 -13 -13   8 781.263 101.929  13
  13  13  -8 603.887 102.691  11
 -13 -13   7 4022.83 265.944   8
 -13 -13   7 3445.25 202.867  13
 -13  13   7 3849.32 282.051  12
  13  13  -7 3557.31 227.315  11
 -13 -13   6 2395.16 173.872  13
 -13  13   6 2547.87 235.196  12
  13  13  -6 2472.29 198.693  11
 -13 -13   5 3438.01 211.843  13
 -13  13   5 3477.27 268.569  12
  13  13  -5 3716.84 236.555  11
 -13  13   4 490.070 108.230  12
  13  13  -4 532.000 99.6891  11
 -13 -13   3 1029.02 119.086   5
 -13  13   3 714.804 128.624  12
  13  13  -3 641.067 109.450  11
 -13 -13   2 6274.86 275.950   5
  13  13  -2 6381.30 318.071  11
 -13 -13   1 1974.68 159.197   5
 -13  13   1 2582.32 216.242  12
 -13 -13   0 601.784 88.6863   5
 -13  13   0 615.054 119.420  12
 -13  13  -1 11616.9 431.655  12
 -13  13  -2 169.702 66.3961  12
 -13  13  -3 189.452 68.6750  12
 -13  13  -4 2608.43 170.398  12
 -13  13  -5 264.896 54.4438  12
 -13 -15  13 1181.36 100.387   8
 -13 -15  12 272.787 58.9589   8
 -13 -15  11 3060.97 185.142   8
 -13 -15  10 1999.49 153.408   8
  13  15 -10 1576.49 128.689  11
 -13 -15   9 52.9919 52.0179   8
  13  15  -9 41.5905 43.0198  11
 -13 -15   8 4317.92 239.398   8
  13  15  -8 3464.13 203.259  11
 -13 -15   7 11200.7 395.558   8
  13  15  -7 9732.99 354.258  11
 -13 -15   6 901.655 123.676   8
 -13  15   6 563.518 95.7981  12
  13  15  -6 783.048 103.136  11
 -13  15   5 476.128 94.1066  12
  13  15  -5 441.438 77.9265  11
 -13  15   4 2482.91 203.209  12
  13  15  -4 2088.76 168.765  11
 -13  15   3 780.365 108.509  12
  13  15  -3 782.538 107.512  11
 -13  15   2 6679.62 308.882  12
  13  15  -2 6179.76 279.725  11
 -13  15   1 497.222 89.5245  12
  13  15  -1 356.195 67.7647  11
 -13  15   0 170.242 56.9736  12
  13  15   0 9.65385 35.8867  11
 -13  15  -1 8966.91 322.703  12
  13  15   1 7822.83 274.978  11
 -13  15  -2 785.974 93.7104  12
  13  15   2 587.448 77.2379  11
 -13  15  -3 2532.18 150.433  12
 -13 -17  10 1670.67 111.545   8
 -13 -17   9 214.720 52.8294   8
 -13 -17   8 4039.03 193.286   8
  13  17  -8 3311.94 159.122  11
 -13 -17   7 569.068 84.7098   8
  13  17  -7 356.127 55.9119  11
 -13 -17   6 187.775 54.3943   8
  13  17  -6 150.970 48.2259  11
 -13 -17   5 1977.32 145.338   8
  13  17  -5 1359.77 113.076  11
 -13 -17   4 1702.83 132.717   8
  13  17  -4 1743.05 127.420  11
  13  17  -3 84.4700 38.1563  11
  13  17  -2 1251.66 103.611  11
  13  17  -1 1103.83 97.5524  11
 -14   0  19-22.5823 28.9564   9
 -14   0  18 1073.56 110.493   9
 -14   0  17 11.3806 45.4536   9
 -14   0  16 8601.14 361.344   9
 -14   0  15 11.8509 68.6748  10
 -14   0  15-7.02263 48.8624   9
 -14   0  14 7719.10 377.491  10
 -14   0  13-81.0700 71.0117  10
 -14   0  13-105.895 72.8924   8
 -14   0  12 387.389 115.419  10
 -14   0  12 170.536 79.2817   8
 -14   0  11-4.62185 77.8629  10
 -14   0  11 19.3964 65.8903   8
 -14   0  11 16.2447 59.9844  13
 -14   0  10 302.169 100.593  10
 -14   0  10 398.010 103.827  13
 -14   0   9-21.9992 56.1704  10
 -14   0   9 18.4835 53.4334  13
 -14   0   8 13482.7 476.938  10
 -14   0   8 12361.9 451.239   5
 -14   0   8 13767.1 470.738  13
 -14   0   7-0.27771 70.7547  10
 -14   0   7-21.1369 71.1356   5
 -14   0   7 20.7703 56.6738  13
 -14   0   6 654.438 136.313  10
 -14   0   6 903.991 149.795   5
 -14   0   6 471.985 127.271  12
 -14   0   5-20.4224 58.1986   5
 -14   0   5-128.128 78.9123  12
 -14   0   4 9964.12 1178.04   2
 -14   0   4 11924.0 450.023   5
 -14   0   4 10405.8 482.176  12
 -14   0   3-125.336 116.533   7
 -14   0   3-29.8514 57.3201  12
 -14   0   3 83.3524 218.959   2
 -14   0   2 12161.4 655.424   7
 -14   0   2 13072.0 514.560  12
 -14   0   1-137.701 114.648   7
 -14   0   1 18.2110 51.8343  12
 -14   0   0 12761.5 674.561   7
 -14   0  -1-144.352 88.5455   7
 -14   0  -2 2727.21 322.681   7
 -14   0  -3 102.230 90.3737   7
 -14   0  -4 9855.99 526.804   7
 -14   0  -5-0.97258 64.9924   7
 -14   0  -6 14534.0 568.064   7
 -14   0  -7 9.84539 56.8883   7
 -14   0  -8 11233.6 407.103   7
 -14  -2  19 49.9639 37.3851   9
  14   2 -19 45.8958 33.6693   7
 -14   2  18 100.299 44.3705   9
 -14  -2  18 77.1257 54.8426   9
 -14   2  17 75.2552 54.7229   9
 -14  -2  17 6.37333 51.9463   9
 -14   2  16 415.275 84.6813   9
 -14  -2  16 290.546 80.8102   9
 -14  -2  16 377.744 97.9583  10
 -14   2  15 2912.01 220.518   9
 -14   2  15 2721.59 220.974  10
 -14  -2  15 2615.04 228.295  10
 -14   2  14 1249.90 158.246   9
 -14  -2  14 1217.68 158.685   8
 -14   2  14 1387.72 161.648  10
 -14  -2  14 1276.50 164.087  10
 -14  -2  13 434.634 114.737  10
 -14  -2  13 441.709 112.060   8
 -14   2  13 577.323 166.883  10
 -14   2  12 664.884 116.752  10
 -14  -2  12 770.902 137.321  10
 -14  -2  12 784.908 136.204   8
 -14  -2  12 568.814 113.211  13
 -14   2  11 4824.20 288.494  10
 -14  -2  11 4689.67 304.736  10
 -14  -2  11 4433.23 281.525   8
 -14  -2  11 4741.64 279.916  13
 -14   2  10 4375.06 282.809  10
 -14  -2  10 4698.00 291.030   8
 -14   2  10 4601.71 259.155  13
 -14  -2  10 4527.99 281.526  13
 -14   2   9 3871.44 262.038  10
 -14  -2   9 4612.15 319.926  10
 -14   2   9 4266.89 246.091  13
 -14  -2   9 4123.01 273.862   8
 -14  -2   9 3748.06 269.589  13
 -14   2   8 581.446 107.673  10
 -14  -2   8 784.853 129.128  10
 -14  -2   8 655.749 134.827   5
 -14   2   8 821.860 117.872  13
 -14  -2   8 678.971 132.605  13
 -14   2   7 222.185 89.9964  10
 -14  -2   7 342.539 102.393  10
 -14  -2   7 470.169 112.951   5
 -14   2   7 587.392 112.650   5
 -14   2   7 256.867 68.3395  13
 -14   2   7 82.3831 71.5315  12
 -14   2   6 1105.05 142.442  10
 -14   2   6 764.800 137.488   5
 -14   2   6 1087.85 138.212  13
 -14  -2   6 820.774 132.702   5
 -14   2   6 757.535 152.502  12
 -14  -2   6 477.373 295.582   2
 -14   2   5 2373.91 193.682   5
 -14  -2   5 2466.42 227.227   5
 -14   2   5 2774.27 272.748  12
 -14   2   4 1097.24 156.290   5
 -14  -2   4 1301.59 167.329   5
 -14   2   4 898.736 156.946  12
 -14  -2   4 896.983 418.033   2
 -14  -2   3 20537.8 824.107   7
 -14   2   3 18551.8 549.980   5
 -14   2   3 20622.1 645.627  12
 -14   2   2 327.308 133.832   7
 -14  -2   2 387.889 133.572   7
 -14   2   2 299.999 81.6047  12
 -14   2   1 616.075 191.855   7
 -14  -2   1 907.584 191.649   7
 -14   2   1 618.882 120.315  12
 -14   2   0 1052.66 152.453  12
 -14   2   0 998.156 215.441   7
 -14  -2   0 961.361 210.586   7
 -14   2  -1 1772.12 271.560   7
 -14  -2  -1 1898.10 252.296   7
 -14   2  -1 1798.44 209.176  12
 -14   2  -2 5319.42 405.958   7
 -14  -2  -2 5473.95 420.171   7
 -14   2  -2 4442.94 286.038  12
 -14   2  -3 27731.6 909.281   7
 -14  -2  -3 29620.3 935.089   7
 -14   2  -4 8240.12 470.519   7
 -14  -2  -4 8380.44 469.969   7
 -14   2  -5 304.201 115.515   7
 -14  -2  -5 263.644 125.263   7
 -14   2  -6 2184.66 207.043   7
 -14  -2  -6 2242.84 223.558   7
 -14   2  -7 524.337 108.033   7
 -14  -2  -7 565.483 121.406   7
 -14   2  -8 32.4247 38.2021   7
 -14  -2  -8 93.5765 54.0107   7
 -14  -4  19 194.151 44.9905   9
  14  -4 -19 177.495 57.9657   7
 -14  -4  18 3331.38 183.817   9
 -14   4  17 76.8631 44.8804   9
 -14  -4  17 66.8706 49.3728   9
 -14   4  16 93.5487 41.5598   9
 -14  -4  16 169.444 62.4333   9
 -14  -4  15 16.5698 61.8948  10
 -14   4  15 55.5826 43.7207   9
 -14  -4  15 54.7340 62.7921   8
 -14   4  14 3085.10 213.670   9
 -14  -4  14 3293.74 254.625   8
 -14   4  14 3294.18 238.713  10
 -14  -4  14 3611.81 248.919  10
 -14   4  13 126.557 75.5989  10
 -14  -4  13 242.755 80.4228  10
 -14   4  13 143.811 68.7972   9
 -14  -4  13 335.076 108.530   8
 -14   4  12 9298.60 376.972   9
 -14  -4  12 8989.91 419.732   8
 -14  -4  12 9442.15 400.940  13
 -14   4  12 9457.41 390.429  10
 -14  -4  12 10203.2 423.055  10
 -14   4  11-22.1822 64.8050  10
 -14  -4  11 20.8393 64.4240  10
 -14  -4  11 46.0231 64.7246   8
 -14  -4  11 38.1142 60.6400  13
 -14   4  10 5928.23 319.252  10
 -14  -4  10 5900.24 328.876  10
 -14  -4  10 6454.55 351.713   8
 -14  -4  10 5551.89 319.884  13
 -14   4   9 36.0263 56.8667  10
 -14  -4   9 61.5403 64.0159  10
 -14  -4   9 87.1078 86.0482   8
 -14  -4   9 55.9702 56.5060  13
 -14   4   8 951.474 142.248  10
 -14  -4   8 759.337 141.814  10
 -14  -4   8 884.439 128.121   8
 -14  -4   8 658.550 128.716   5
 -14  -4   8 981.225 140.427  13
 -14   4   8 884.976 176.098  12
 -14   4   7 5173.48 286.072  10
 -14  -4   7 4465.53 290.414  10
 -14  -4   7 5327.73 296.146   8
 -14  -4   7 4937.70 302.318   5
 -14   4   7 5198.75 379.139  12
 -14   4   6 2375.67 201.203  10
 -14  -4   6 2614.32 222.795  10
 -14  -4   6 2540.14 213.754   8
 -14  -4   6 2217.63 217.429   5
 -14   4   6 2075.33 247.353  12
 -14   4   5 1515.48 160.952  10
 -14  -4   5 1554.34 177.389   5
 -14  -4   5 1261.15 499.323   2
 -14  -4   4 739.503 144.748   5
 -14   4   4 264.853 122.192  12
 -14  -4   3 1009.77 161.837   5
 -14   4   3 1013.38 161.655  12
 -14  -4   3 986.405 203.291   7
 -14  -4   2 1928.64 280.360   7
 -14   4   2 2480.97 237.263  12
 -14   4   1 301.707 122.545   7
 -14  -4   1 57.3332 89.4877   7
 -14   4   1 251.300 87.3131  12
 -14   4   0 24555.9 879.341   7
 -14   4   0 25872.7 700.338  12
 -14   4  -1 103.394 98.5571   7
 -14  -4  -1 63.1890 66.8470   7
 -14   4  -1 104.430 67.7163  12
 -14   4  -2 1160.96 155.280  12
 -14   4  -2 1213.59 197.030   7
 -14  -4  -2 1184.66 201.616   7
 -14   4  -3 2877.37 285.099   7
 -14   4  -3 2799.50 222.846  12
 -14   4  -4 5167.46 355.026   7
 -14  -4  -4 4556.17 357.307   7
 -14   4  -4 4393.02 257.882  12
 -14   4  -5 202.657 86.5329   7
 -14  -4  -5 220.529 98.7117   7
 -14   4  -6 9590.43 420.427   7
 -14  -4  -6 10262.1 458.332   7
 -14  -4  -7 43.5646 63.3860   7
 -14  -4  -8 7629.16 323.350   7
  14  -6 -19 44.7297 29.7085   7
 -14  -6  18 297.684 55.5458   9
 -14  -6  17 1474.47 134.577   9
 -14  -6  16 7.23620 45.7040   9
 -14  -6  16 35.8571 66.5232   8
 -14  -6  15 3261.48 234.844   8
 -14  -6  15 3202.80 205.004  10
 -14  -6  14-60.2818 68.8620  10
 -14  -6  14 64.1648 67.7794   8
 -14  -6  13 3649.00 270.772   8
 -14   6  13 3517.67 227.822  10
 -14  -6  13 3652.53 252.813  10
 -14   6  12 62.7471 51.2284  10
 -14  -6  12 108.729 77.3532  10
 -14  -6  12 144.430 88.2232   8
 -14  -6  12 21.0091 69.7406  13
 -14  -6  11 8614.94 376.000  10
 -14  -6  11 9768.60 401.911  13
 -14  -6  11 8611.48 413.913   8
 -14   6  11 9183.21 367.749  10
 -14  -6  10 1447.04 170.399  10
 -14  -6  10 1488.85 177.804   8
 -14  -6  10 1272.32 156.368  13
 -14   6  10 1502.43 152.836  10
 -14   6   9 16324.4 478.686  10
 -14  -6   9 15420.3 501.705  10
 -14  -6   9 15670.6 532.161   8
 -14  -6   9 16768.6 532.446  13
 -14   6   8 2139.55 183.780  10
 -14  -6   8 2306.40 201.314  10
 -14  -6   8 2460.46 214.138   8
 -14  -6   8 2164.95 227.604   5
 -14  -6   8 2352.32 199.990  13
 -14   6   8 1815.01 245.517  12
 -14  -6   7 4988.53 298.216  10
 -14  -6   7 5112.70 312.444   8
 -14   6   7 4866.66 378.275  12
 -14  -6   6 2834.74 220.714  10
 -14  -6   6 2373.18 237.944   5
 -14   6   6 3013.21 297.655  12
 -14   6   5 2923.42 274.229  12
 -14  -6   5 3060.65 258.243   5
 -14  -6   4 1381.37 185.862   5
 -14   6   4 1447.73 196.079  12
 -14  -6   3 9780.24 440.651   5
 -14   6   3 10160.0 472.020  12
 -14  -6   2 136.524 83.4620   5
 -14  -6   2 176.204 93.3994   7
 -14   6   2 153.053 66.7588  12
 -14  -6   1 10115.4 560.501   7
 -14   6   1 9879.68 448.447  12
 -14  -6   0 30.9277 77.9580   7
 -14   6   0-27.6146 56.8090  12
 -14  -6  -1 3641.13 322.250   7
 -14   6  -1 3562.71 267.569  12
 -14  -6  -2 4468.54 354.853   7
 -14   6  -2 4033.60 284.325  12
 -14  -6  -3 11746.7 544.330   7
 -14   6  -3 9588.34 404.810  12
 -14  -6  -4 136.085 61.0518   7
 -14   6  -4 220.658 61.4422  12
 -14  -6  -5 1288.61 171.845   7
 -14   6  -5 961.271 118.747  12
 -14  -6  -6 408.924 91.6798   7
 -14  -6  -7 1431.79 149.297   7
 -14  -6  -8 49.0235 34.1092   7
 -14  -8  18 1591.41 96.6083   9
  14  -8 -18 1125.69 102.349   7
 -14  -8  17 163.522 50.0432   9
 -14  -8  16 778.215 99.7170   9
 -14  -8  16 756.239 110.188   8
 -14  -8  15 252.440 81.8372   8
 -14  -8  14 843.099 109.098  10
 -14  -8  14 670.724 115.791   8
 -14  -8  13 231.517 70.9720  10
 -14  -8  13 315.787 95.2528   8
 -14  -8  12 11650.5 458.322   8
 -14  -8  12 10303.2 381.655  10
 -14  -8  11 1480.19 178.719   8
 -14  -8  11 1724.67 174.604  13
 -14  -8  11 1312.81 146.137  10
 -14  -8  10 200.242 87.9394  10
 -14  -8  10 119.338 63.5236  13
 -14  -8   9 485.262 102.289  10
 -14  -8   9 408.603 98.3280   8
 -14  -8   9 695.378 112.385  13
 -14  -8   8 350.018 94.2837  10
 -14  -8   8 447.155 107.780   8
 -14  -8   8 340.837 107.384  13
 -14   8   8 58.2757 84.2379  12
 -14  -8   7 2526.72 212.411  10
 -14  -8   7 2070.73 212.369   8
 -14  -8   7 2108.82 207.009   5
 -14   8   7 2006.78 252.927  12
 -14  -8   6 18946.9 577.975   5
 -14   8   6 18364.2 645.052  12
 -14  -8   5 189.155 122.182  10
 -14  -8   5 227.911 93.8051   5
 -14   8   5 1.14173 60.1551  12
 -14  -8   4 3129.23 245.526   5
 -14   8   4 2265.52 240.143  12
 -14  -8   3 4480.28 290.484   5
 -14   8   3 4400.68 332.723  12
 -14  -8   2 778.276 130.057   5
 -14   8   2 966.479 158.686  12
 -14  -8   1 76.1661 80.3632   7
 -14  -8   1 267.412 107.285   5
 -14   8   1 418.319 134.706  12
 -14  -8   0 13517.9 595.319   7
 -14  -8   0 12849.8 475.838   5
 -14   8   0 13505.4 520.050  12
 -14  -8  -1 1453.97 192.441   7
 -14   8  -1 1472.83 187.971  12
 -14  -8  -2 99.9239 83.3255   7
 -14   8  -2 4.75238 55.8676  12
 -14  -8  -3 1856.43 201.710   7
 -14   8  -3 1408.54 165.054  12
 -14  -8  -4 5071.66 312.850   7
 -14   8  -4 4799.03 269.518  12
 -14  -8  -5 4384.17 272.696   7
 -14   8  -5 4461.59 232.179  12
 -14  -8  -6 7339.12 318.903   7
 -14   8  -6 5954.46 233.738  12
 -14  -8  -7 57.8139 38.6032   5
 -14 -10  16-36.0909 38.6771   9
 -14 -10  16-11.4799 40.3084   8
  14 -10 -16-0.88864 30.5338   7
 -14 -10  15 3384.28 179.762   9
 -14 -10  15 3642.13 224.175   8
 -14 -10  14-3.55266 47.2710   8
 -14 -10  13 268.852 92.8718   8
 -14 -10  12 839.996 135.960   8
 -14 -10  11 4763.26 294.431   8
 -14 -10  11 4801.24 260.360  13
 -14 -10  11 4342.02 221.752  10
 -14 -10  10 330.745 70.1673  10
 -14 -10  10 516.600 110.519   8
 -14 -10  10 341.578 90.0984  13
 -14 -10   9 6092.79 275.373  10
 -14 -10   9 6410.79 350.841   8
 -14 -10   9 7037.76 333.556  13
 -14 -10   8 608.958 99.5663  10
 -14 -10   8 517.194 111.306   8
 -14 -10   8 676.163 112.976  13
 -14  10   8 317.385 102.807  12
 -14 -10   7 146.445 70.7443  10
 -14 -10   7 101.968 79.0917   8
 -14 -10   7 135.856 77.5542  13
 -14  10   7 44.0448 55.7188  12
 -14 -10   6 5485.06 270.774  10
 -14  10   6 5308.77 355.817  12
 -14 -10   5 333.212 84.6000  10
 -14 -10   5 244.009 92.3565   5
 -14  10   5 388.319 106.835  12
 -14 -10   4 8975.64 345.330  10
 -14 -10   4 8553.81 378.874   5
 -14  10   4 9426.03 441.400  12
 -14 -10   3 22144.8 603.838   5
 -14  10   3 22302.5 688.276  12
 -14 -10   2 415.531 111.517   5
 -14  10   2 216.673 88.1989  12
 -14 -10   1 4833.95 283.382   5
 -14  10   1 4761.57 327.865  12
 -14 -10   0 668.900 105.475   5
 -14  10   0 595.761 112.560  12
 -14 -10  -1 59.1916 62.0158   5
 -14  10  -1 150.076 85.9898  12
 -14 -10  -2-40.3553 55.3702   5
 -14  10  -2-6.72916 50.8435  12
 -14 -10  -3 10003.7 399.207   7
 -14 -10  -3 8863.70 331.169   5
 -14  10  -3 9865.68 387.371  12
 -14 -10  -4 1908.16 146.132   5
 -14  10  -4 2369.88 180.712  12
 -14 -10  -5 1527.93 116.152   5
 -14  10  -5 1420.13 121.766  12
 -14 -12  15 451.848 72.8080   8
 -14 -12  14 2738.81 146.283   9
 -14 -12  14 3188.72 191.515   8
 -14 -12  13 165.216 57.8055   8
 -14 -12  12 2137.69 186.456   8
 -14 -12  11 778.129 121.399   8
 -14 -12  10 4390.43 267.217   8
 -14 -12   9 354.399 100.455   8
 -14 -12   9 217.822 65.9030  13
 -14 -12   8 8838.90 380.778   8
 -14 -12   8 8213.41 318.583  13
 -14 -12   7 636.822 117.920   8
 -14 -12   7 499.089 84.8075  13
 -14  12   7 510.333 106.797  12
 -14 -12   6 1427.54 141.334  13
 -14  12   6 1422.34 179.677  12
 -14 -12   5 567.141 94.4642  13
 -14  12   5 770.350 129.342  12
 -14 -12   4 4151.08 246.440   5
 -14  12   4 3686.80 273.440  12
 -14 -12   3 1178.21 126.118   5
 -14  12   3 1078.46 147.773  12
 -14 -12   2 3206.32 206.821   5
 -14  12   2 4319.20 279.373  12
 -14 -12   1 1484.74 138.171   5
 -14  12   1 1726.48 174.020  12
  14  12  -1 1357.39 128.984  11
 -14 -12   0 14974.1 413.322   5
 -14  12   0 17554.6 535.513  12
 -14 -12  -1 42.9342 40.2633   5
 -14  12  -1 55.9428 42.9467  12
 -14 -12  -2 8029.94 267.751   5
 -14  12  -2 8679.10 344.969  12
 -14 -12  -3 2854.26 147.632   5
 -14  12  -3 3046.00 194.957  12
 -14  12  -4 5806.18 241.993  12
 -14  12  -5 53.1243 36.0532  12
 -14 -14  14 40.3079 33.7067   8
 -14 -14  13 80.1333 35.3885   8
 -14 -14  12 660.764 91.5241   8
 -14 -14  11 1358.07 129.602   8
 -14 -14  10 111.663 59.2504   8
 -14 -14   9 5365.09 270.014   8
 -14 -14   8 1145.06 128.931   8
 -14 -14   7 116.511 66.7348   8
 -14 -14   7 51.7940 41.6034  13
 -14 -14   6 1009.80 124.955   8
 -14 -14   6 823.981 87.7570  13
 -14  14   6 897.938 120.811  12
 -14 -14   5 801.336 90.7942  13
 -14  14   5 863.288 132.113  12
  14  14  -5 816.597 106.257  11
 -14 -14   4 73.8006 38.3254  13
 -14  14   4 1.52726 45.5237  12
  14  14  -4 70.3326 49.1307  11
 -14 -14   3 12144.4 331.004  13
  14  14  -3 11352.7 353.159  11
 -14 -14   2-4.98471 41.0493  13
 -14  14   2-32.7213 55.8359  12
  14  14  -2-86.7485 47.2998  11
 -14  14   1 1340.14 143.272  12
  14  14  -1 1324.77 119.013  11
 -14  14   0 90.0210 41.5218  12
  14  14   0 190.698 56.0617  11
 -14  14  -1 2031.05 153.143  12
  14  14   1 1390.59 105.477  11
 -14  14  -2 518.371 88.5274  12
 -14  14  -3 5980.43 221.839  12
 -14 -16  11 32.5392 26.5265   8
 -14 -16  10 1437.27 113.512   8
 -14 -16   9 42.9143 38.2661   8
 -14 -16   8 2936.26 166.626   8
 -14 -16   7 528.953 78.3401   8
 -14 -16   6 7166.29 270.846   8
  14  16  -6 5726.71 211.329  11
 -14 -16   5 52.0411 49.2507   8
  14  16  -5 174.737 63.7646  11
 -14 -16   4 2063.06 146.138   8
  14  16  -4 1507.63 111.587  11
 -14  16   3 829.856 93.2554  12
  14  16  -3 532.978 70.9708  11
 -14  16   2 1319.06 111.166  12
 -14  16   1 351.129 61.0824  12
 -15  -1  19 307.726 51.8589   9
  15   1 -19 133.964 41.2188   7
 -15   1  18 95.9277 50.8997   9
 -15  -1  18 56.6667 39.6443   9
 -15   1  17 2065.55 154.846   9
 -15  -1  17 2239.38 170.137   9
 -15   1  16 2905.00 197.112   9
 -15  -1  16 2755.41 203.199   9
 -15  -1  16 3013.52 204.753  10
 -15   1  15 741.253 126.313  10
 -15  -1  15 683.898 119.799  10
 -15   1  15 908.612 122.764   9
 -15  -1  15 672.858 114.228   9
 -15   1  14 6274.49 316.977   9
 -15   1  14 6554.90 327.249  10
 -15  -1  14 6278.75 317.560  10
 -15  -1  13 2028.15 185.118   8
 -15   1  13 2205.20 206.676  10
 -15  -1  13 2059.46 204.714  10
 -15   1  12 208.209 93.5526  10
 -15  -1  12 150.647 75.4983  10
 -15  -1  12 143.381 71.9299   8
 -15  -1  11 1431.18 185.071  10
 -15   1  11 1359.02 158.267  10
 -15  -1  11 1388.22 150.154   8
 -15  -1  11 1776.77 193.640  13
 -15   1  10 122.676 83.5130  10
 -15  -1  10 159.236 82.8955  10
 -15   1  10 112.093 51.2506  13
 -15  -1  10 89.1927 74.1172  13
 -15   1   9 56.5921 63.6690  10
 -15  -1   9 114.664 97.3865  10
 -15   1   9 28.1424 52.6039  13
 -15  -1   9-9.38749 55.4642  13
 -15   1   8 154.191 80.9904  10
 -15  -1   8 169.107 75.2421  10
 -15  -1   8 194.385 80.7114   5
 -15   1   8 66.6043 51.9295  13
 -15  -1   8 123.283 70.8559  13
 -15   1   7 1523.62 184.957  10
 -15  -1   7 1643.46 185.257  10
 -15   1   7 1541.44 193.805   5
 -15  -1   7 1895.86 197.403   5
 -15   1   7 1877.38 179.602  13
 -15  -1   7 1549.72 171.541  13
 -15   1   6 314.060 101.968  10
 -15  -1   6 513.171 118.851  10
 -15   1   6 163.837 112.200  12
 -15   1   6 341.537 110.996   5
 -15  -1   6 359.996 110.721   5
 -15   1   5 8907.69 375.217   5
 -15  -1   5 8378.42 392.749   5
 -15   1   5 8787.02 485.091  12
 -15   1   4 1088.65 161.569   5
 -15  -1   4 967.686 158.471   5
 -15   1   4 1315.76 202.200  12
 -15  -1   3 186.981 78.2838  12
 -15   1   3 382.935 103.546   5
 -15  -1   3 232.656 106.895   5
 -15   1   3 223.882 78.6233  12
 -15  -1   2 1449.64 266.790   7
 -15   1   2 1214.15 167.705   5
 -15   1   2 1121.76 172.705  12
 -15   1   1 4261.42 396.811   7
 -15  -1   1 4346.25 405.649   7
 -15   1   1 3867.34 294.683  12
 -15   1   0 347.212 135.172   7
 -15  -1   0 403.000 138.742   7
 -15   1  -1 1688.33 248.611   7
 -15  -1  -1 1654.48 255.086   7
 -15   1  -2 5701.03 443.501   7
 -15  -1  -2 5453.43 426.226   7
 -15   1  -3 177.374 85.7784   7
 -15  -1  -3 280.747 109.884   7
 -15   1  -4 1507.38 204.188   7
 -15  -1  -4 1508.45 199.738   7
 -15   1  -5 6361.35 360.252   7
 -15  -1  -5 6046.33 362.332   7
 -15   1  -6 763.092 124.516   7
 -15  -1  -6 705.397 128.014   7
 -15   1  -7 7468.91 306.033   7
 -15  -1  -7 7483.54 321.393   7
 -15  -3  19 1669.29 105.256   9
 -15  -3  18 94.8334 44.1808   9
 -15   3  17 1246.83 108.025   9
 -15  -3  17 1328.07 132.058   9
 -15   3  16 73.6283 43.9572   9
 -15  -3  16 55.4066 52.7034   9
 -15  -3  16 147.620 54.3221  10
 -15   3  15 75.4365 60.9594  10
 -15  -3  15 45.4340 60.4628  10
 -15   3  15 116.404 56.9843   9
 -15  -3  15 76.3576 51.6354   8
 -15   3  14 116.374 64.3704  10
 -15  -3  14 86.5003 66.6636  10
 -15   3  14 36.0926 54.3728   9
 -15  -3  14-9.14888 63.2677   8
 -15   3  13 400.227 98.8443  10
 -15  -3  13 429.573 103.134  10
 -15   3  13 429.149 89.1970   9
 -15  -3  13 450.133 120.225   8
 -15  -3  12 567.351 114.408  13
 -15   3  12 539.071 125.613  10
 -15  -3  12 566.712 110.069  10
 -15  -3  12 656.668 129.969   8
 -15  -3  11 4443.40 286.287  10
 -15  -3  11 4289.05 275.747   8
 -15  -3  11 4490.90 281.135  13
 -15   3  11 4675.92 286.200  10
 -15   3  10 244.649 98.7216  10
 -15  -3  10 215.240 95.8726  10
 -15  -3  10 199.447 81.4430   8
 -15  -3  10 326.821 94.5776  13
 -15   3   9 1454.63 162.694  10
 -15  -3   9 1326.72 165.215  10
 -15  -3   9 1693.35 177.890   8
 -15  -3   9 1082.23 140.529  13
 -15   3   8 7168.53 341.791  10
 -15  -3   8 7920.01 364.645  10
 -15  -3   8 7400.20 356.314  13
 -15  -3   8 6762.50 366.377   5
 -15   3   7 6.41980 60.6032  10
 -15  -3   7-94.6965 84.9336  10
 -15  -3   7-2.75034 74.1018   5
 -15   3   7-82.5515 99.0493  12
 -15   3   6 520.558 118.331  10
 -15  -3   6 741.806 131.500  10
 -15  -3   6 467.875 117.415   5
 -15   3   6 421.293 137.774  12
 -15   3   5 490.697 108.577  10
 -15  -3   5 497.371 116.056   5
 -15   3   5 496.024 134.700  12
 -15  -3   4 5130.51 325.068   5
 -15   3   4 5973.20 392.396  12
 -15  -3   3 264.744 96.8432   5
 -15   3   3 277.025 96.8127  12
 -15  -3   2 3630.91 362.105   7
 -15   3   2 3948.78 249.370   5
 -15   3   2 3939.39 289.358  12
 -15   3   1 1154.42 143.686   5
 -15   3   1 1090.80 157.393  12
 -15  -3   1 1184.00 212.981   7
 -15   3   0 5017.58 317.011  12
 -15   3   0 5761.41 428.943   7
 -15  -3   0 6245.43 472.103   7
 -15   3  -1 3079.56 319.759   7
 -15  -3  -1 3092.25 319.527   7
 -15   3  -1 2788.21 226.446  12
 -15   3  -2 12631.8 601.905   7
 -15  -3  -2 13192.2 612.050   7
 -15   3  -3 3527.75 303.249   7
 -15  -3  -3 3069.64 302.231   7
 -15   3  -4 312.860 99.6328   7
 -15  -3  -4 207.098 97.1609   7
 -15   3  -5 3319.56 254.465   7
 -15  -3  -5 3563.68 287.624   7
 -15  -3  -6 502.760 100.604   7
 -15  -3  -7 7752.38 322.822   7
 -15  -5  18 3.51278 29.7319   9
 -15  -5  17 50.9219 45.4502   9
 -15  -5  16 1091.88 120.502   9
 -15  -5  15 648.633 101.818  10
 -15  -5  15 553.959 104.184   8
 -15  -5  14 1458.54 163.105   8
 -15   5  14 1300.32 138.758  10
 -15  -5  14 1514.38 148.884  10
 -15  -5  13 2601.01 229.349   8
 -15   5  13 2833.83 196.680  10
 -15  -5  13 2648.12 217.965  10
 -15  -5  12 1576.65 171.640   8
 -15  -5  12 1608.86 161.640  13
 -15   5  12 1347.02 154.387  10
 -15  -5  12 1754.63 174.794  10
 -15  -5  11 2052.96 199.898  10
 -15  -5  11 1892.14 189.524   8
 -15  -5  11 2334.87 201.267  13
 -15   5  11 1864.15 175.558  10
 -15  -5  10 2780.55 225.873  10
 -15  -5  10 2610.83 224.576   8
 -15   5  10 2592.08 202.322  10
 -15   5   9 234.107 71.3710  10
 -15  -5   9 327.955 125.055  10
 -15  -5   9 101.560 74.0426   8
 -15  -5   9 474.923 159.751  13
 -15   5   8 2202.81 202.141  10
 -15  -5   8 2862.80 230.219  10
 -15  -5   8 2581.11 220.310   8
 -15  -5   8 2400.32 235.743   5
 -15  -5   8 2423.52 221.891  13
 -15   5   8 2616.83 284.270  12
 -15   5   7 5096.87 269.535  10
 -15  -5   7 4966.60 300.785  10
 -15  -5   7 5254.57 300.341   8
 -15  -5   7 4480.85 290.233   5
 -15   5   7 5160.51 394.202  12
 -15   5   6 186.801 83.1730  10
 -15  -5   6 170.007 80.2880  10
 -15  -5   6 345.935 108.392   8
 -15  -5   6 202.385 87.0664   5
 -15   5   6 100.919 92.5574  12
 -15   5   5 9945.45 374.552  10
 -15  -5   5 9333.96 429.031   5
 -15   5   5 9614.83 503.339  12
 -15   5   4 1897.57 167.878  10
 -15  -5   4 1540.92 184.481   5
 -15   5   4 1899.89 212.752  12
 -15   5   3 1032.24 128.616  10
 -15  -5   3 1155.48 166.630   5
 -15   5   3 957.967 164.999  12
 -15  -5   2 10303.0 587.631   7
 -15  -5   2 10243.3 442.724   5
 -15   5   2 10214.2 467.201  12
 -15  -5   1 14149.1 662.044   7
 -15   5   1 12795.8 538.762  12
 -15  -5   0 2184.03 269.728   7
 -15   5   0 1758.07 196.352  12
 -15  -5  -1 1870.02 249.281   7
 -15   5  -1 1702.96 195.109  12
 -15  -5  -2 5078.65 382.604   7
 -15   5  -2 4543.60 279.655  12
 -15  -5  -3 155.435 78.6418   7
 -15   5  -3 332.674 84.2911  12
 -15  -5  -4 607.380 122.314   7
 -15   5  -4 493.588 84.8747  12
 -15  -5  -5 3338.08 249.524   7
 -15  -5  -6 41.7761 60.5627   7
 -15  -5  -7 9656.95 326.436   7
 -15  -5  -7 8666.24 247.736   5
 -15  -7  18 110.065 37.7091   9
  15  -7 -18 68.9170 30.2133   7
 -15  -7  17 96.4913 41.4904   9
 -15  -7  16 804.199 101.309   9
 -15  -7  16 641.716 100.687   8
 -15  -7  15 351.809 85.0436   8
 -15  -7  15 472.828 83.0513  10
 -15  -7  14 546.546 92.4704  10
 -15  -7  14 443.386 103.442   8
 -15  -7  13 1280.55 148.974   8
 -15  -7  13 1333.78 136.713  10
 -15  -7  12 623.825 109.980  10
 -15  -7  12 737.274 129.152   8
 -15  -7  12 813.610 120.331  13
 -15  -7  11 39.4087 60.6742  10
 -15  -7  11 20.2185 57.3467   8
 -15  -7  11 16.2319 60.1125  13
 -15  -7  10 2976.81 215.474  10
 -15  -7  10 3044.17 232.647   8
 -15  -7  10 3290.12 241.171  13
 -15  -7   9 3863.27 254.190  10
 -15  -7   9 4228.67 282.812   8
 -15  -7   9 3774.43 266.490  13
 -15  -7   8 2168.68 199.909  10
 -15  -7   8 1845.10 205.529   8
 -15  -7   8 2135.62 199.366  13
 -15   7   8 2232.53 261.537  12
 -15  -7   7 5932.85 319.014  10
 -15  -7   7 5760.17 321.266   8
 -15  -7   7 5636.76 337.875   5
 -15   7   7 6475.39 408.945  12
 -15  -7   6 674.742 118.711  10
 -15  -7   6 630.269 119.476   8
 -15  -7   6 440.925 115.317   5
 -15   7   6 768.431 151.746  12
 -15  -7   5 3748.43 245.697  10
 -15  -7   5 3173.65 260.293   5
 -15   7   5 3317.60 320.026  12
 -15   7   4 13023.1 559.971  12
 -15  -7   4 12630.2 479.687   5
 -15  -7   3 627.330 129.659   5
 -15   7   3 388.011 108.027  12
 -15  -7   2 10580.7 442.395   5
 -15   7   2 8925.08 457.956  12
 -15  -7   1 1067.15 159.048   5
 -15   7   1 1234.20 165.434  12
 -15  -7   0 228.301 77.3023   5
 -15  -7   0 202.527 83.2930   7
 -15   7   0 164.430 72.3061  12
 -15  -7  -1 1482.57 206.782   7
 -15  -7  -1 1474.25 164.684   5
 -15   7  -1 1313.84 162.501  12
 -15  -7  -2 1479.40 191.851   7
 -15   7  -2 1579.58 170.502  12
 -15   7  -3 740.711 114.245  12
 -15  -7  -3 813.368 141.386   7
 -15  -7  -4 10792.2 453.659   7
 -15   7  -4 9096.09 325.007  12
 -15  -7  -5 514.167 91.0155   5
 -15  -7  -5 525.731 95.6144   7
 -15   7  -5 461.193 66.9807  12
 -15  -7  -6 544.763 85.8775   7
 -15  -7  -6 709.338 81.7897   5
 -15  -9  16 945.931 89.0846   9
 -15  -9  16 727.288 90.7835   8
 -15  -9  15 110.791 56.8294   8
 -15  -9  14 1371.51 141.790   8
 -15  -9  13 4186.30 256.449   8
 -15  -9  13 3226.22 188.767  10
 -15  -9  12 2229.08 204.190   8
 -15  -9  12 2088.20 160.444  10
 -15  -9  11 3242.80 239.844   8
 -15  -9  11 3073.14 212.747  13
 -15  -9  11 2902.34 192.928  10
 -15  -9  10 216.518 55.9575  10
 -15  -9  10 219.128 93.9526   8
 -15  -9  10 313.542 83.0222  13
 -15  -9   9 139.912 64.1015  10
 -15  -9   9 175.474 80.4513   8
 -15  -9   9 171.331 84.5146  13
 -15  -9   8-12.2765 50.1590  10
 -15  -9   8 90.3027 67.8660   8
 -15  -9   8 92.5479 70.8708  13
 -15   9   8 151.637 98.0907  12
 -15  -9   7 3519.54 226.032  10
 -15  -9   7 3558.22 255.709   8
 -15  -9   7 3667.56 250.028  13
 -15   9   7 3328.63 296.316  12
 -15  -9   6 6126.12 293.561  10
 -15  -9   6 6864.21 355.454   5
 -15   9   6 6290.19 383.032  12
 -15  -9   5 1731.87 168.535  10
 -15   9   5 1730.15 207.322  12
 -15  -9   4 13991.4 440.117  10
 -15  -9   4 14364.3 488.591   5
 -15   9   4 15133.2 560.005  12
 -15  -9   3 171.506 86.9919   5
 -15   9   3 424.511 178.721  12
 -15  -9   2 2975.85 224.574   5
 -15   9   2 3359.61 272.637  12
 -15  -9   1 5568.83 295.995   5
 -15   9   1 5765.38 351.007  12
 -15  -9   0 138.719 72.0456   5
 -15   9   0 81.1071 62.1016  12
 -15  -9  -1 1155.15 146.466   5
 -15   9  -1 1257.80 154.424  12
 -15  -9  -2 2879.24 192.247   5
 -15   9  -2 3521.64 238.689  12
 -15  -9  -3 640.607 90.5490   5
 -15   9  -3 382.200 86.9719  12
 -15  -9  -4 1931.72 135.667   5
 -15   9  -4 1826.43 139.938  12
 -15  -9  -5 3117.95 146.793   5
 -15 -11  15 1642.69 103.288   9
 -15 -11  15 1916.38 137.183   8
 -15 -11  14 323.246 71.1701   8
 -15 -11  13 1651.75 151.487   8
 -15 -11  12 201.463 67.9289   8
 -15 -11  11 1923.89 175.664   8
 -15 -11  10 1355.03 158.047   8
 -15 -11  10 1500.61 137.176  13
 -15 -11   9 998.751 138.801   8
 -15 -11   9 1103.03 120.642  13
 -15 -11   8 2421.55 205.497   8
 -15 -11   8 2329.78 181.965  13
 -15 -11   7 446.750 100.176   8
 -15 -11   7 362.777 78.7558  13
 -15  11   7 493.967 120.340  12
 -15 -11   6 767.220 118.999   8
 -15 -11   6 690.855 109.725  13
 -15  11   6 696.190 138.171  12
 -15 -11   5 2247.14 160.769  10
 -15 -11   5 2448.70 189.629  13
 -15  11   5 2348.77 226.936  12
 -15 -11   4 4896.13 226.494  10
 -15 -11   4 5080.51 272.704   5
 -15  11   4 5344.54 322.130  12
 -15 -11   3 123.674 47.6981  10
 -15 -11   3 45.3124 51.6758   5
 -15  11   3-11.8704 54.4227  12
 -15 -11   2 4493.08 212.773  10
 -15 -11   2 4784.73 250.317   5
 -15  11   2 4533.03 298.397  12
 -15 -11   1 6430.55 249.578  10
 -15 -11   1 5929.66 272.712   5
 -15  11   1 6693.73 345.545  12
 -15 -11   0 116.538 48.9274  10
 -15 -11   0 187.016 60.6286   5
 -15  11   0 133.907 57.1824  12
 -15 -11  -1 4679.29 222.100   5
 -15  11  -1 5359.97 278.786  12
 -15 -11  -2 3054.37 169.347   5
 -15  11  -2 3841.76 225.826  12
 -15 -11  -3 669.020 69.0930   5
 -15  11  -3 851.816 93.6524  12
 -15  11  -4 3582.67 170.062  12
 -15 -13  14 503.792 62.3513   8
 -15 -13  13 457.984 70.6368   8
 -15 -13  12 89.8908 52.6184   8
 -15 -13  11 2621.44 179.652   8
 -15 -13  10 1368.16 137.237   8
 -15 -13   9 5.70583 53.1510   8
 -15 -13   8 379.629 92.6121   8
 -15 -13   8 422.796 68.3687  13
 -15 -13   7 826.852 122.774   8
 -15 -13   7 891.419 101.855  13
 -15 -13   6 389.981 91.2131   8
 -15 -13   6 338.514 69.0141  13
 -15  13   6 396.343 93.0650  12
 -15 -13   5 3437.86 225.582   8
 -15 -13   5 2942.12 173.307  13
 -15  13   5 3358.77 248.305  12
 -15 -13   4 2163.90 151.528  13
 -15  13   4 2250.39 199.368  12
 -15 -13   3 219.921 55.4367  13
 -15  13   3 271.579 69.6086  12
 -15  13   2 393.650 128.102  12
 -15  13   1 1910.84 160.842  12
 -15  13   0 440.027 80.6913  12
 -15  13  -1 3854.66 204.024  12
 -15  13  -2 43.5345 32.4380  12
 -15 -15  11 1422.32 105.928   8
 -15 -15  10 739.998 81.3502   8
 -15 -15   9 255.085 56.0242   8
 -15 -15   8 2218.91 151.911   8
 -15 -15   7 3757.56 193.598   8
 -15 -15   6 32.0918 37.4601   8
 -15 -15   5 1542.70 127.160   8
 -15 -15   4 4434.84 205.059   8
 -15  15   4 4929.31 230.380  12
 -15 -15   3 148.115 47.8076   8
 -15  15   3 252.257 66.3746  12
 -15 -15   2 3781.06 172.334   8
 -15  15   2 4127.67 199.334  12
 -15 -15   1 2165.87 122.325   8
 -15  15   1 2359.94 142.939  12
 -16   0  18 1147.06 93.8763   9
 -16   0  17 4.75838 33.7493   9
 -16   0  16-1.49222 42.2296   9
 -16   0  15 32.1922 49.8788  10
 -16   0  15 55.1822 46.5019   9
 -16   0  14 10844.5 401.728  10
 -16   0  13 5.13575 53.5836  10
 -16   0  12 3700.12 252.780  10
 -16   0  11-31.2961 66.7489  10
 -16   0  11 23.7049 44.2198  13
 -16   0  10 3615.74 265.039  10
 -16   0  10 3720.85 252.310  13
 -16   0   9 14.6850 58.8386  10
 -16   0   9 73.8529 52.4828  13
 -16   0   8 75.9960 59.3839  10
 -16   0   8 32.3150 56.8401  13
 -16   0   7 44.7644 66.5324  10
 -16   0   7 112.154 80.9146   5
 -16   0   7 83.7713 47.9381  13
 -16   0   6 6576.55 344.605  10
 -16   0   6 6706.44 326.814  13
 -16   0   5-27.0623 66.1429  10
 -16   0   5-50.6844 67.3581   5
 -16   0   4 7790.94 367.667   5
 -16   0   3 74.1530 82.7635   5
 -16   0   3 159.666 96.3270  12
 -16   0   2 1008.38 158.616   5
 -16   0   1-48.3806 70.6333   5
 -16   0   0 322.403 140.015   7
 -16   0  -1-53.5632 72.0498   7
 -16   0  -2 2501.02 275.626   7
 -16   0  -3 21.0525 63.7372   7
 -16   0  -4 4700.37 307.843   7
 -16   0  -5-26.5847 48.8908   7
 -16  -2  18 11.0637 34.8707   9
 -16   2  17 1297.73 103.768   9
 -16  -2  17 1538.15 127.892   9
 -16   2  16 51.5522 46.9090   9
 -16  -2  16-31.4373 49.0129   9
 -16  -2  16 43.4700 46.9519  10
 -16   2  15 2519.21 171.781   9
 -16  -2  15 2677.87 206.998   9
 -16   2  15 2813.87 201.080  10
 -16  -2  15 2655.83 202.164  10
 -16   2  14 159.229 68.6244  10
 -16  -2  14 203.050 75.2851  10
 -16   2  14 75.6154 46.0000   9
 -16   2  13 484.087 106.102  10
 -16  -2  13 441.584 107.606  10
 -16   2  13 665.943 102.437   9
 -16  -2  13 470.600 90.6287   8
 -16  -2  12 2031.53 178.445   8
 -16   2  12 2302.05 206.783  10
 -16  -2  12 2529.46 222.456  10
 -16   2  11 1055.61 139.442  10
 -16  -2  11 798.630 140.236  10
 -16  -2  11 1001.95 137.378  13
 -16   2  10 1580.94 178.071  10
 -16  -2  10 1385.35 177.018  10
 -16   2  10 1488.90 147.589  13
 -16  -2  10 1543.06 176.561  13
 -16   2   9 8234.20 378.460  10
 -16  -2   9 7950.11 378.389  10
 -16   2   9 8479.84 345.201  13
 -16  -2   9 8051.31 368.191  13
 -16   2   8 118.005 74.0858  10
 -16  -2   8 80.5175 64.5986  10
 -16  -2   8 82.8816 63.8659   5
 -16   2   8 78.5464 51.7935  13
 -16  -2   8 110.239 60.5832  13
 -16   2   7 3671.98 256.332  10
 -16  -2   7 4406.15 283.643  10
 -16  -2   7 3296.48 270.418   5
 -16   2   7 3998.31 235.302  13
 -16  -2   7 3780.11 251.798  13
 -16   2   6 361.296 120.892  10
 -16  -2   6 265.472 96.2655  10
 -16   2   6 195.872 71.2947   5
 -16  -2   6 186.917 90.9975   5
 -16   2   6 291.651 72.5920  13
 -16   2   6 169.240 69.7462  12
 -16   2   5 2387.39 208.457  10
 -16   2   5 2006.82 183.289   5
 -16   2   5 2395.58 250.816  12
 -16   2   4 117.943 71.2698  10
 -16   2   4 209.152 75.5224   5
 -16  -2   4 179.769 80.2261   5
 -16   2   4 82.5645 68.0245  12
 -16   2   3 6447.93 324.018   5
 -16  -2   3 7303.18 361.671   5
 -16   2   3 6662.18 413.065  12
 -16   2   2 608.393 117.501   5
 -16  -2   2 504.790 120.979   5
 -16   2   2 623.098 132.626  12
 -16  -2   1 1971.50 280.751   7
 -16   2   1 2184.78 182.590   5
 -16  -2   1 2477.21 217.150   5
 -16  -2   0 3344.79 334.006   7
 -16   2   0 2930.20 215.795   5
 -16   2   0 2544.32 224.803  12
 -16  -2  -1 517.996 137.149   7
 -16  -2  -2-24.9645 80.9997   7
 -16  -2  -3 6186.91 395.136   7
 -16  -2  -4 1325.48 170.421   7
 -16  -2  -5 5498.35 309.888   7
 -16  -2  -6 587.363 74.3525   5
 -16  -4  18 2077.32 123.745   9
 -16  -4  17 169.373 44.8344   9
 -16  -4  16 72.8512 52.8607   9
 -16  -4  15 231.854 67.6807  10
 -16   4  14 563.048 96.1137  10
 -16  -4  14 443.559 97.2277  10
 -16  -4  14 379.385 87.0446   8
 -16   4  13 199.599 68.5541  10
 -16  -4  13 99.7163 51.6509   8
 -16  -4  12 2670.63 207.901   8
 -16  -4  12 3330.27 236.892  13
 -16   4  12 3228.14 231.140  10
 -16  -4  12 3153.16 229.853  10
 -16   4  11 209.315 90.2978  10
 -16  -4  11 271.020 97.3944  10
 -16  -4  11 230.162 82.4006   8
 -16  -4  11 229.067 71.7641  13
 -16   4  10 3744.05 241.140  10
 -16  -4  10 3735.48 255.741  10
 -16  -4  10 3693.67 243.009   8
 -16  -4  10 3480.76 245.874  13
 -16   4   9 6.11792 51.7995  10
 -16  -4   9 76.2001 60.4917   8
 -16  -4   9 19.5164 60.8076  13
 -16   4   8 718.498 113.993  10
 -16  -4   8 851.987 131.269  10
 -16  -4   8 437.247 107.474   5
 -16  -4   8 593.407 129.667  13
 -16   4   7 514.805 91.4077  10
 -16  -4   7 647.239 126.444  10
 -16  -4   7 595.614 115.682   5
 -16  -4   7 654.293 120.907  13
 -16   4   6 8012.24 344.335  10
 -16  -4   6 8131.19 382.187  10
 -16  -4   6 7527.35 380.848   5
 -16   4   6 8216.92 471.512  12
 -16   4   5 414.790 121.372  10
 -16  -4   5 349.318 104.090  10
 -16  -4   5 283.235 113.503   5
 -16   4   4 4203.80 242.547  10
 -16  -4   4 3944.07 276.692   5
 -16   4   4 3427.12 289.636  12
 -16   4   3 449.089 95.4786  10
 -16  -4   3 497.126 120.043   5
 -16   4   3 287.706 101.827  12
 -16  -4   2 1109.94 170.400   5
 -16   4   2 1644.22 190.282  12
 -16  -4   1 8394.34 390.646   5
 -16   4   1 8147.68 402.452  12
 -16  -4   0 3706.05 353.995   7
 -16  -4   0 3532.52 268.947   5
 -16   4   0 3115.31 244.646  12
 -16  -4  -1 1649.24 225.937   7
 -16   4  -1 1806.48 179.026  12
 -16  -4  -2 3274.41 286.441   7
 -16   4  -2 2420.98 192.994  12
 -16  -4  -3 71.9738 67.6725   7
 -16  -4  -4 352.843 89.9179   7
 -16  -4  -5 927.914 121.631   7
 -16  -4  -5 863.731 101.466   5
 -16  -6  17 516.927 70.0935   9
 -16  -6  16 132.102 57.4543   9
 -16  -6  15 617.746 92.5949  10
 -16  -6  15 535.996 93.6959   8
 -16  -6  14 248.253 65.4692  10
 -16  -6  14 154.808 63.0128   8
 -16   6  13-6.46772 40.0460  10
 -16  -6  13 72.9562 57.6929  10
 -16  -6  13 147.829 68.6709   8
 -16   6  12 290.118 71.8614  10
 -16  -6  12 268.309 78.5908  10
 -16  -6  12 272.245 81.1618   8
 -16  -6  12 335.827 86.8040  13
 -16   6  11 132.202 54.0005  10
 -16  -6  11 171.638 79.1836  10
 -16  -6  11 102.523 59.1569   8
 -16  -6  11 13.9241 55.5006  13
 -16  -6  10 2946.11 217.364  10
 -16  -6  10 2848.74 223.057   8
 -16  -6  10 2657.83 218.175  13
 -16   6  10 2642.94 184.710  10
 -16  -6   9 5465.03 302.509  10
 -16  -6   9 4534.56 280.235   8
 -16  -6   9 5629.11 305.587  13
 -16   6   9 4833.08 250.617  10
 -16  -6   8-31.5948 56.2606  10
 -16  -6   8 23.1317 63.9473   8
 -16  -6   8 30.8428 68.4908  13
 -16  -6   7 484.812 123.240  10
 -16  -6   7 638.794 101.689   8
 -16  -6   7 573.281 137.763   5
 -16  -6   7 632.610 123.939  13
 -16   6   7 452.303 130.383  12
 -16  -6   6 165.345 78.5881  10
 -16  -6   6 73.3016 54.0274   8
 -16  -6   6 104.618 82.9002   5
 -16   6   6 206.654 104.129  12
 -16  -6   5 7071.96 332.880  10
 -16   6   5 6617.38 416.297  12
 -16  -6   4 179.897 85.8865   5
 -16   6   4-54.2498 71.9906  12
 -16  -6   3 11411.5 448.694   5
 -16   6   3 12839.8 520.549  12
 -16  -6   2 4319.82 293.201   5
 -16   6   2 4594.47 314.008  12
 -16  -6   1 2390.10 220.274   5
 -16   6   1 2144.29 213.690  12
 -16  -6   0 1361.46 165.783   5
 -16   6   0 993.129 144.848  12
 -16  -6  -1 4032.31 308.994   7
 -16  -6  -1 3624.57 237.360   5
 -16   6  -1 3843.63 253.096  12
 -16  -6  -2 16.3894 66.7648   7
 -16  -6  -2 18.4980 50.8897   5
 -16   6  -2-49.9001 47.9571  12
 -16  -6  -3 6243.21 343.704   7
 -16  -6  -3 5987.12 266.228   5
 -16   6  -3 5575.34 245.481  12
 -16  -6  -4 1083.58 112.170   5
 -16  -6  -5 4854.64 194.402   5
 -16  -8  16 125.511 43.7774   9
 -16  -8  15 6.63293 45.1318   8
 -16  -8  14 528.808 74.3289  10
 -16  -8  14 593.442 98.3334   8
 -16  -8  13 56.5937 42.7159  10
 -16  -8  13 26.6922 50.2622   8
 -16  -8  12 6378.06 313.210   8
 -16  -8  12 6673.66 277.054  10
 -16  -8  11 857.095 119.074   8
 -16  -8  11 906.334 126.378  13
 -16  -8  11 1015.12 118.189  10
 -16  -8  10 203.044 77.9462  10
 -16  -8  10 130.044 67.1458  13
 -16  -8   9 995.552 128.943  10
 -16  -8   9 1145.00 148.192   8
 -16  -8   9 1093.58 131.783  13
 -16  -8   8 127.896 59.5004  10
 -16  -8   8 89.0982 66.7988   8
 -16  -8   8 63.9072 53.4110  13
 -16  -8   7 3539.76 230.783  10
 -16  -8   7 3470.03 240.615   8
 -16  -8   7 3836.34 242.695  13
 -16   8   7 3838.12 300.359  12
 -16  -8   6 12752.9 428.714  10
 -16  -8   6 12307.3 433.849   8
 -16  -8   6 12480.6 459.199   5
 -16   8   6 13924.2 571.170  12
 -16  -8   5 274.298 76.4760  10
 -16  -8   5 396.358 83.5253   8
 -16  -8   5 174.956 65.3816   5
 -16   8   5 210.754 79.9455  12
 -16  -8   4 1454.51 154.384  10
 -16  -8   4 1684.99 161.968   8
 -16  -8   4 1704.80 179.101   5
 -16   8   4 1174.14 181.860  12
 -16  -8   3 130.999 77.9638   5
 -16   8   3 39.6335 66.8234  12
 -16  -8   2 1582.70 166.161   5
 -16   8   2 1981.48 210.312  12
 -16  -8   1 235.116 90.5016   5
 -16   8   1 17.4731 50.1584  12
 -16  -8   0 1841.21 167.361   5
 -16   8   0 1743.71 180.505  12
 -16  -8  -1 250.330 71.7444   5
 -16   8  -1 244.759 74.1268  12
 -16  -8  -2 1754.23 144.316   5
 -16   8  -2 1405.41 136.015  12
 -16  -8  -3 24.3974 47.6981   5
 -16   8  -3 27.2017 39.9402  12
 -16  -8  -4 1829.31 119.329   5
 -16 -10  15 1036.55 88.4490   9
 -16 -10  15 1043.16 99.5491   8
 -16 -10  14 101.663 48.3447   8
 -16 -10  13 221.557 60.3750   8
 -16 -10  12 776.952 106.695   8
 -16 -10  11 426.973 67.8020  10
 -16 -10  11 497.594 92.8020   8
 -16 -10  10 182.094 57.3069  10
 -16 -10  10 189.605 80.4593   8
 -16 -10  10 171.649 59.7922  13
 -16 -10   9 3947.25 203.107  10
 -16 -10   9 4457.47 259.540   8
 -16 -10   9 4782.24 247.927  13
 -16 -10   8 374.061 73.8179  10
 -16 -10   8 148.561 62.7499   8
 -16 -10   8 243.882 85.5319  13
 -16 -10   7 792.996 108.517  10
 -16 -10   7 994.553 136.945   8
 -16 -10   7 870.768 114.269  13
 -16  10   7 839.988 153.511  12
 -16 -10   6 858.234 103.837  10
 -16 -10   6 865.240 122.802   8
 -16 -10   6 689.079 106.522  13
 -16  10   6 958.944 151.193  12
 -16 -10   5 3258.47 193.588  10
 -16 -10   5 3039.67 208.082   8
 -16 -10   5 2810.78 208.803   5
 -16 -10   5 3676.49 220.514  13
 -16  10   5 3760.45 285.880  12
 -16 -10   4 625.865 86.4473  10
 -16 -10   4 412.121 91.0358   5
 -16  10   4 575.440 113.862  12
 -16 -10   3 4323.73 216.134  10
 -16 -10   3 4821.05 254.596   5
 -16  10   3 4663.63 294.957  12
 -16 -10   2 73.8315 51.6876  10
 -16 -10   2 118.866 52.5687   5
 -16  10   2 20.0794 53.6793  12
 -16 -10   1 705.320 85.2088  10
 -16 -10   1 725.655 103.848   5
 -16  10   1 710.727 115.927  12
 -16 -10   0 338.039 66.8888  10
 -16 -10   0 160.210 58.3700   5
 -16  10   0 390.189 88.5463  12
 -16 -10  -1 1148.42 98.8410  10
 -16  10  -1 1331.57 137.125  12
 -16 -10  -2 703.167 66.9584  10
 -16 -10  -2 706.114 78.1685   5
 -16  10  -2 733.156 95.4536  12
 -16 -12  14 2212.12 125.875   8
 -16 -12  13 144.311 45.6996   8
 -16 -12  12 3509.50 189.603   8
 -16 -12  11 113.897 57.8774   8
 -16 -12  10 339.859 72.6746   8
 -16 -12   9 47.4980 52.3639   8
 -16 -12   9 116.495 50.6927  13
 -16 -12   8 2515.46 182.422   8
 -16 -12   8 2817.88 165.692  13
 -16 -12   7 700.030 105.946   8
 -16 -12   7 741.636 89.0535  13
 -16 -12   6 3561.80 210.672   8
 -16 -12   6 3715.18 197.600  13
 -16  12   6 3478.36 251.217  12
 -16 -12   5 358.671 75.3946   8
 -16 -12   5 286.824 66.4263  13
 -16  12   5 319.633 85.3215  12
 -16 -12   4 2405.71 169.043   8
 -16 -12   4 2250.90 150.888  13
 -16  12   4 2461.24 204.446  12
 -16 -12   3 558.932 84.6370   8
 -16 -12   3 539.237 78.8432  13
 -16  12   3 653.190 108.573  12
 -16  12   2 6011.29 298.695  12
 -16  12   1 1404.51 150.829  12
 -16  12   0 2366.20 170.147  12
 -16  12  -1 1630.71 128.710  12
 -16 -14  11 431.032 61.9125   8
 -16 -14  10 234.834 54.6840   8
 -16 -14   9 5694.31 226.328   8
 -16 -14   8 437.117 69.0661   8
 -16 -14   7 159.698 58.0809   8
 -16 -14   6 87.0841 48.5454   8
 -16 -14   5 2788.02 156.951   8
 -16 -14   4 686.974 81.5176   8
 -16  14   4 832.115 106.750  12
 -16 -14   3 4019.40 172.548   8
 -16  14   3 4366.11 210.180  12
 -16  14   2 66.1392 37.7519  12
 -17   1  17 237.942 46.5350   9
 -17  -1  17 292.057 55.0411   9
 -17   1  16 845.641 84.7718   9
 -17  -1  16 1014.88 104.858   9
 -17   1  15 1021.68 106.636   9
 -17  -1  15 1287.01 125.999   9
 -17   1  15 1241.26 129.616  10
 -17  -1  15 1381.99 134.282  10
 -17  -1  14 798.420 120.587  10
 -17   1  14 717.468 95.8350   9
 -17   1  14 949.885 121.956  10
 -17   1  13 259.597 79.2651  10
 -17  -1  13 210.160 81.8182  10
 -17   1  12 44.3350 60.9927  10
 -17  -1  12 110.429 70.8464  10
 -17   1  11 2599.73 222.477  10
 -17  -1  11 2460.29 223.326  10
 -17  -1  11 3052.55 210.531  13
 -17   1  10 6143.74 315.679  10
 -17   1  10 5465.33 277.957  13
 -17  -1  10 5632.10 300.420  13
 -17   1   9 1.12013 73.0466  10
 -17  -1   9 17.2294 58.1379  10
 -17   1   9 40.8784 60.0887  13
 -17  -1   9 2.84392 48.8895  13
 -17   1   8 1314.89 173.307  10
 -17  -1   8 1333.62 170.219  10
 -17   1   8 1458.48 148.901  13
 -17  -1   8 1595.13 164.485  13
 -17   1   7 1334.56 147.293  10
 -17  -1   7 1075.59 139.682  10
 -17  -1   7 993.137 136.643   5
 -17   1   7 1473.91 143.662  13
 -17  -1   7 1391.86 153.793  13
 -17   1   6 90.6711 68.6922  10
 -17  -1   6 169.816 85.4731  10
 -17   1   6 203.214 89.5419   5
 -17  -1   6 113.319 58.9307   5
 -17   1   6 206.803 57.7688  13
 -17  -1   6 286.884 83.1889  13
 -17   1   5 7920.50 356.359  10
 -17  -1   5 8447.07 362.343  10
 -17   1   5 7292.11 333.368   5
 -17  -1   5 7204.54 352.122   5
 -17   1   5 7379.90 310.380  13
 -17   1   4 6941.18 327.927  10
 -17  -1   4 7501.92 343.078  10
 -17   1   4 6100.32 303.482   5
 -17  -1   4 6650.48 326.338   5
 -17   1   3 342.739 73.4061   5
 -17  -1   3 130.164 77.7549   5
 -17   1   2 1812.00 174.284   5
 -17  -1   2 1957.15 183.928   5
 -17   1   1 21.5891 58.3812   5
 -17  -1   1 84.4159 59.4998   5
 -17   1   0 1158.39 131.393   5
 -17  -1   0 1285.50 147.951   5
 -17   1  -1 2707.37 192.855   5
 -17  -1  -1 3240.32 207.107   5
 -17   1  -2 729.183 100.669   5
 -17  -1  -2 879.405 111.379   5
 -17   1  -3 179.091 59.0910   5
 -17  -1  -3 213.204 59.9223   5
 -17  -1  -4 2241.80 133.880   5
 -17  -3  17 25.9670 28.3930   9
 -17  -3  16 1383.29 117.814   9
 -17  -3  15 3.26338 44.0039  10
 -17  -3  15-2.64715 46.2439   9
 -17   3  14 544.358 95.8613  10
 -17  -3  14 584.902 104.864  10
 -17  -3  13 1665.54 143.492   8
 -17   3  13 1992.33 164.661  10
 -17  -3  13 2056.17 181.130  10
 -17   3  12 307.651 73.9563  10
 -17  -3  12 238.452 84.3846  10
 -17  -3  11 6185.71 314.353  10
 -17  -3  11 7051.55 314.238  13
 -17   3  11 6569.78 312.208  10
 -17   3  10 1773.97 164.621  10
 -17  -3  10 1529.01 171.237  10
 -17  -3  10 1493.07 170.205  13
 -17   3   9 180.530 58.6016  10
 -17  -3   9 294.024 95.0651  10
 -17  -3   9 213.736 79.9229  13
 -17   3   8 2563.83 203.675  10
 -17  -3   8 2848.39 227.996  10
 -17  -3   8 2502.54 203.440  13
 -17   3   7 4941.93 274.456  10
 -17  -3   7 5588.67 314.864  10
 -17  -3   7 5185.93 303.197   5
 -17  -3   7 5443.58 301.160  13
 -17   3   6 34.2864 56.8812  10
 -17  -3   6 108.555 76.5131  10
 -17  -3   6 176.496 79.7743   5
 -17   3   5 6488.13 307.034  10
 -17  -3   5 6615.69 342.627  10
 -17  -3   5 6926.57 340.292   5
 -17   3   5 5952.96 401.656  12
 -17   3   4 344.090 86.7244  10
 -17  -3   4 264.997 98.7319   5
 -17   3   4 321.133 108.374  12
 -17   3   3 315.012 93.0190  10
 -17  -3   3 177.410 80.5395   5
 -17   3   3 134.423 80.0291  12
 -17   3   2 3675.24 224.086  10
 -17  -3   2 3653.64 248.933   5
 -17   3   2 3282.01 260.100  12
 -17  -3   1 110.553 70.9728   5
 -17   3   1 117.399 52.7167  12
 -17  -3   0 913.768 141.504   5
 -17   3   0 513.824 100.588  12
 -17  -3  -1 3227.62 219.025   5
 -17  -3  -2 11045.9 365.994   5
 -17  -3  -3 828.187 95.7939   5
 -17  -3  -4 5411.57 208.038   5
 -17  -5  17 124.048 38.7369   9
 -17  -5  16 271.500 55.7000   9
 -17  -5  15 98.6677 49.3430  10
 -17  -5  14 243.225 71.7983  10
 -17  -5  14 189.049 51.7621   8
 -17  -5  13 1040.66 125.443   8
 -17   5  13 1104.92 111.064  10
 -17  -5  13 1349.01 132.692  10
 -17   5  12 359.493 77.1064  10
 -17  -5  12 625.151 103.578  10
 -17  -5  12 497.848 91.9540   8
 -17  -5  11 1199.59 140.079  10
 -17  -5  11 1087.94 133.351   8
 -17  -5  11 1088.17 140.630  13
 -17   5  11 1273.65 132.547  10
 -17  -5  10 4110.07 250.976  10
 -17  -5  10 3085.46 206.433   8
 -17  -5  10 4362.22 254.119  13
 -17   5  10 3553.89 209.844  10
 -17   5   9 120.093 58.6785  10
 -17  -5   9 14.7334 60.5637  10
 -17  -5   9 165.246 68.1613   8
 -17  -5   9 167.753 78.2165  13
 -17   5   8 3286.16 204.889  10
 -17  -5   8 3161.26 236.964  10
 -17  -5   8 3633.27 243.242  13
 -17   5   7 1015.61 120.862  10
 -17  -5   7 828.472 126.055  10
 -17  -5   7 816.964 136.597   5
 -17  -5   7 1149.71 144.224  13
 -17   5   6 332.093 74.1583  10
 -17  -5   6 256.900 82.1927  10
 -17  -5   6 346.364 107.704   5
 -17   5   6 312.563 112.476  12
 -17   5   5 1230.67 127.554  10
 -17  -5   5 1335.16 161.356  10
 -17  -5   5 1186.74 155.798   5
 -17   5   5 1155.99 176.566  12
 -17  -5   4 939.778 130.349  10
 -17  -5   4 1046.03 144.748   5
 -17   5   4 1019.01 155.523  12
 -17  -5   3 169.601 85.5120   5
 -17   5   3-98.1825 69.8240  12
 -17  -5   2 1437.27 174.368   5
 -17   5   2 1416.02 179.772  12
 -17  -5   1 1890.10 175.181   5
 -17   5   1 1839.31 193.800  12
 -17  -5   0 970.556 122.270   5
 -17   5   0 956.461 128.335  12
 -17  -5  -1 878.508 125.805   5
 -17   5  -1 575.922 99.4436  12
 -17  -5  -2 1034.54 121.257   5
 -17  -5  -3 188.785 59.6530   5
 -17  -5  -4 4487.17 175.328   5
 -17  -7  16 56.8477 35.1748   9
 -17  -7  15 184.765 56.2703   9
 -17  -7  14 220.410 59.4735  10
 -17  -7  14 207.793 60.5095   8
 -17  -7  13 1680.38 144.418   8
 -17  -7  13 1737.12 137.157  10
 -17  -7  12 407.162 83.9854  10
 -17  -7  12 319.844 80.0161   8
 -17  -7  11 1004.24 123.632   8
 -17  -7  11 1080.48 128.471  13
 -17  -7  11 1283.76 136.159  10
 -17  -7  10 528.851 102.630  10
 -17  -7  10 640.993 100.115   8
 -17  -7  10 868.327 119.287  13
 -17  -7   9 3948.93 232.922  10
 -17  -7   9 3897.42 237.376   8
 -17  -7   9 4345.04 250.004  13
 -17  -7   8 544.935 103.763  10
 -17  -7   8 440.984 92.1089   8
 -17  -7   8 323.712 85.5717  13
 -17  -7   7 7945.70 330.402  10
 -17  -7   7 7484.43 307.579   8
 -17  -7   7 7809.54 348.471  13
 -17  -7   6 510.384 108.790  10
 -17  -7   6 544.547 112.353   5
 -17  -7   6 697.320 116.513  13
 -17   7   6 648.035 135.358  12
 -17  -7   5 530.047 107.759  10
 -17  -7   5 554.454 108.948   5
 -17   7   5 536.794 131.759  12
 -17  -7   4 2418.92 196.852  10
 -17  -7   4 2649.23 213.372   5
 -17   7   4 2846.35 254.111  12
 -17  -7   3 1055.13 126.979  10
 -17  -7   3 1064.43 133.740   5
 -17   7   3 900.543 155.308  12
 -17  -7   2 1899.41 175.021   5
 -17   7   2 1508.07 189.410  12
 -17  -7   1 554.687 103.934   5
 -17   7   1 1114.21 157.096  12
 -17  -7   0 39.3610 50.1634   5
 -17   7   0 13.1247 58.0046  12
 -17  -7  -1 7455.12 279.679   5
 -17   7  -1 6292.04 283.194  12
 -17  -7  -2 133.281 52.7614   5
 -17   7  -2 87.5277 41.8797  12
 -17  -7  -3 124.710 41.6413   5
 -17  -9  15-19.5897 28.1759   9
 -17  -9  14 965.742 94.7313   8
 -17  -9  13 3514.53 202.285   8
 -17  -9  13 3762.46 162.229  10
 -17  -9  12-46.8814 44.8112  10
 -17  -9  12 45.6503 46.5410   8
 -17  -9  11 223.891 59.6606  10
 -17  -9  11 237.393 65.3234   8
 -17  -9  10 1384.46 137.261   8
 -17  -9  10 1553.36 139.738  13
 -17  -9  10 1261.54 119.289  10
 -17  -9   9 131.474 55.9022  10
 -17  -9   9 115.785 59.8493   8
 -17  -9   9 189.670 62.0946  13
 -17  -9   8 348.681 70.0486  10
 -17  -9   8 361.723 80.9903   8
 -17  -9   8 430.467 78.3987  13
 -17  -9   7 4359.34 217.480  10
 -17  -9   7 4320.19 234.917   8
 -17  -9   7 4038.95 243.436  13
 -17  -9   6 462.176 77.1256  10
 -17  -9   6 475.774 85.6328   8
 -17  -9   6 548.020 97.9172  13
 -17   9   6 389.038 96.6381  12
 -17  -9   5 1877.79 146.102  10
 -17  -9   5 1712.25 140.063   8
 -17  -9   5 1649.50 168.520   5
 -17  -9   5 1814.01 155.438  13
 -17   9   5 1481.44 191.660  12
 -17  -9   4 1707.89 141.731  10
 -17  -9   4 1603.30 149.594   5
 -17   9   4 1727.67 192.412  12
 -17  -9   3 70.5034 49.4616  10
 -17  -9   3 223.650 73.3071   5
 -17   9   3 170.589 68.3783  12
 -17  -9   2 2731.85 159.771  10
 -17  -9   2 2608.58 175.850   5
 -17   9   2 2649.99 209.990  12
 -17  -9   1 136.940 58.6456  10
 -17  -9   1 178.867 59.7563   5
 -17   9   1 192.815 73.9331  12
 -17  -9   0 1001.99 97.1267  10
 -17  -9   0 1031.00 109.953   5
 -17   9   0 860.921 106.935  12
 -17  -9  -1 1315.05 96.9688  10
 -17  -9  -1 1232.70 111.334   5
 -17   9  -1 1306.37 119.746  12
 -17 -11  13 108.559 43.4661   8
 -17 -11  12-47.3390 36.0249   8
 -17 -11  11 1099.33 105.319   8
 -17 -11  10 759.957 93.8200   8
 -17 -11   9 266.901 63.0888   8
 -17 -11   9 312.948 56.7236  13
 -17 -11   8 311.790 70.4271   8
 -17 -11   8 224.293 60.6591  13
 -17 -11   7 1108.99 110.764   8
 -17 -11   7 1138.13 112.195  13
 -17 -11   6 475.733 71.4918   8
 -17 -11   6 812.148 92.9393  13
 -17 -11   5 2803.40 165.274   8
 -17 -11   5 3210.11 177.932  13
 -17  11   5 3481.65 231.443  12
 -17 -11   4 997.354 97.6340   8
 -17 -11   4 1104.31 110.368  13
 -17  11   4 1319.55 145.411  12
 -17 -11   3 1137.95 107.513  13
 -17  11   3 1362.37 148.778  12
 -17 -11   2 977.172 91.0417  13
 -17  11   2 1080.07 129.548  12
 -17  11   1 241.132 60.2495  12
 -17  11   0 568.251 76.9800  12
 -17 -13  10 5938.88 206.144   8
 -17 -13   9 164.340 44.3948   8
 -17 -13   8 345.649 58.8793   8
 -17 -13   7 396.641 58.3689   8
 -17 -13   7 517.320 61.5348  13
 -17 -13   6 56.0102 38.2311   8
 -17 -13   6 26.8309 25.4358  13
 -17 -13   5 1665.82 109.524   8
 -17  13   3 667.882 84.9744  12
 -18   0  16 66.6184 30.8898   9
 -18   0  15 28.1881 43.5495  10
 -18   0  15 0.95389 35.9584   9
 -18   0  14 1065.08 103.211   9
 -18   0  14 1188.19 122.999  10
 -18   0  13-25.0912 44.8601  10
 -18   0  12 7811.41 333.265  10
 -18   0  11 31.5295 50.9227  10
 -18   0  10 501.809 100.478  10
 -18   0  10 372.737 81.1125  13
 -18   0   9-2.53894 55.1193  10
 -18   0   9-20.0269 45.7608  13
 -18   0   8 1896.76 172.934  10
 -18   0   8 1751.82 152.327  13
 -18   0   7-12.9618 57.1515  10
 -18   0   7-45.7960 56.4676  13
 -18   0   6 10421.0 406.183  10
 -18   0   6 9434.15 365.545   5
 -18   0   6 10683.5 362.567  13
 -18   0   5 27.2958 62.3249  10
 -18   0   5-66.3035 54.5466  13
 -18   0   4 162.043 69.1646  10
 -18   0   4 265.321 68.5541   5
 -18   0   4 134.348 62.4248  13
 -18   0   3-14.2356 55.8969  10
 -18   0   3-40.1430 59.2152   5
 -18   0   2 431.444 77.6630  10
 -18   0   2 589.923 97.3110   5
 -18   0   1 76.5736 55.0362   5
 -18   0   0 11654.4 335.591   5
 -18   0  -1-21.8374 41.7051   5
 -18   0  -2 1679.19 113.250  10
 -18  -2  16 24.6304 34.4818   9
 -18  -2  15 1075.80 106.902   9
 -18  -2  15 934.226 107.406  10
 -18   2  14-29.1583 39.7337  10
 -18  -2  14 53.3055 43.8843  10
 -18   2  13 1660.38 154.562  10
 -18  -2  13 1935.49 160.574  10
 -18   2  12 728.425 112.183  10
 -18  -2  12 800.177 114.527  10
 -18  -2  11 6626.46 304.851  10
 -18   2  11 6644.65 292.018  10
 -18   2  10 9.62098 50.2255  10
 -18  -2  10-7.49666 56.8711  10
 -18  -2  10 89.9458 64.2004  13
 -18   2   9 2797.87 206.225  10
 -18  -2   9 2867.65 210.990  10
 -18  -2   9 2857.03 201.997  13
 -18   2   8 256.272 69.8481  10
 -18  -2   8 311.739 88.8239  10
 -18  -2   8 324.048 78.1932  13
 -18   2   7 1269.50 148.242  10
 -18  -2   7 1282.48 158.615  10
 -18  -2   7 1216.32 139.155  13
 -18   2   6 139.981 73.7090  10
 -18  -2   6 80.4709 62.8754  10
 -18  -2   6 111.680 64.8905   5
 -18  -2   6 183.246 76.9711  13
 -18   2   5 2541.11 202.317  10
 -18  -2   5 2748.19 211.618  10
 -18  -2   5 2226.36 195.214   5
 -18  -2   5 2852.74 209.096  13
 -18   2   4 111.596 54.9793  10
 -18  -2   4 134.939 66.9346  10
 -18  -2   4 39.0904 56.9288   5
 -18   2   3 5779.17 265.639  10
 -18  -2   3 6061.49 300.685  10
 -18  -2   3 5810.38 290.860   5
 -18   2   2 714.873 94.1286  10
 -18  -2   2 787.178 113.784   5
 -18   2   1 2168.21 152.346  10
 -18  -2   1 2237.93 173.299   5
 -18   2   0 78.9054 39.4456  10
 -18  -2   0 66.2235 49.1441   5
 -18   2  -1 2714.94 141.943  10
 -18  -2  -1 2470.26 153.833   5
 -18  -2  -2 18.7185 34.8815   5
 -18  -4  16 189.742 48.6710   9
 -18  -4  15-3.20693 41.5845  10
 -18  -4  15 17.1813 34.7202   9
 -18  -4  14 677.812 93.9804  10
 -18   4  13 113.311 46.7406  10
 -18  -4  13 446.685 115.959  10
 -18   4  12 4747.87 229.236  10
 -18  -4  12 5019.87 251.354  10
 -18   4  11 22.9349 55.9075  10
 -18  -4  11 88.6757 53.8933  10
 -18  -4  11 158.464 59.5752  13
 -18   4  10 483.741 87.7352  10
 -18  -4  10 577.802 101.948  10
 -18  -4  10 313.123 80.0985  13
 -18   4   9 64.5277 54.9528  10
 -18  -4   9 123.418 69.0456  10
 -18  -4   9-18.4450 53.0266  13
 -18   4   8 6435.48 280.546  10
 -18  -4   8 6628.93 313.996  10
 -18  -4   8 6467.73 304.232  13
 -18   4   7-1.53352 53.3399  10
 -18  -4   7 5.53247 57.4640  10
 -18  -4   7 1.91016 47.2912  13
 -18   4   6 6326.58 270.536  10
 -18  -4   6 5903.00 312.137  10
 -18  -4   6 6349.12 317.363   5
 -18   4   5 70.3692 52.9682  10
 -18  -4   5-67.4223 54.2377  10
 -18  -4   5 24.3205 50.8487   5
 -18  -4   5 42.4619 51.1350  13
 -18   4   4 4224.82 214.939  10
 -18  -4   4 4458.71 255.918  10
 -18  -4   4 4829.79 263.096   5
 -18   4   3-5.98928 41.0304  10
 -18  -4   3 23.2141 58.0542  10
 -18  -4   3 95.4768 68.3360   5
 -18  -4   2 284.984 75.3500  10
 -18  -4   2 334.258 80.4186   5
 -18   4   2 166.921 84.4440  12
 -18  -4   1 4008.43 226.476   5
 -18  -4   0 7572.03 289.786   5
 -18  -4  -1 4335.92 201.432   5
 -18  -4  -2 583.710 70.7575   5
 -18  -6  16 61.9150 32.2367   9
 -18  -6  15 769.205 80.8693   9
 -18  -6  14 36.9290 39.3186  10
 -18  -6  13 518.231 79.8587  10
 -18  -6  12 10.6311 46.7034  10
 -18  -6  11 275.938 76.7225  10
 -18  -6  11 331.830 72.2459  13
 -18  -6  10 761.717 107.728  10
 -18  -6  10 1086.20 121.042  13
 -18  -6   9 7561.37 307.358  10
 -18  -6   9 8335.17 321.908  13
 -18  -6   8 2305.95 177.843  10
 -18  -6   8 2189.96 175.979  13
 -18  -6   7 121.649 68.6904  10
 -18  -6   7 245.497 82.1805  13
 -18  -6   6-13.0215 52.5468  10
 -18  -6   6 53.6050 60.8428   5
 -18  -6   6 43.2547 55.4280  13
 -18  -6   5 38.9728 48.6177  10
 -18  -6   5 94.2075 62.4793   5
 -18  -6   5 104.438 56.3958  13
 -18  -6   4 470.549 93.5237  10
 -18  -6   4 384.115 86.1874   5
 -18   6   4 454.143 112.937  12
 -18  -6   3 5042.57 243.480  10
 -18  -6   3 4523.85 248.977   5
 -18   6   3 4449.22 285.657  12
 -18  -6   2 1654.93 146.579  10
 -18  -6   2 1614.10 149.041   5
 -18   6   2 1680.38 179.559  12
 -18  -6   1 448.704 84.2943  10
 -18  -6   1 562.838 99.8006   5
 -18   6   1 353.065 83.4009  12
 -18  -6   0 2895.01 159.214  10
 -18  -6   0 2595.76 165.185   5
 -18   6   0 2332.89 159.303  12
 -18  -6  -1 473.188 69.3044  10
 -18  -6  -1 429.133 69.4531   5
 -18  -8  13 227.222 48.7752  10
 -18  -8  13 176.175 48.6446   8
 -18  -8  12 2643.91 155.793   8
 -18  -8  12 2793.30 150.989  10
 -18  -8  11 424.812 69.5954  10
 -18  -8  11 427.266 67.3182   8
 -18  -8  10 117.038 52.8945  10
 -18  -8  10 163.967 57.1853   8
 -18  -8  10 70.4795 45.9697  13
 -18  -8   9 96.8274 46.8265  10
 -18  -8   9-2.87762 42.2160  13
 -18  -8   8 906.515 97.7332  10
 -18  -8   8 936.892 120.183  13
 -18  -8   7 1623.11 135.295  10
 -18  -8   7 1834.36 147.152  13
 -18  -8   6 4750.05 221.673  10
 -18  -8   6 5132.94 242.222  13
 -18  -8   5-40.1117 48.0093  10
 -18  -8   5-14.1336 44.8990  13
 -18   8   5 12.6014 54.3758  12
 -18  -8   4 716.348 93.0195  10
 -18  -8   4 790.936 117.505   5
 -18  -8   4 883.661 107.314  13
 -18   8   4 642.498 117.258  12
 -18  -8   3 45.0085 40.9897  10
 -18  -8   3 14.1921 47.0714   5
 -18   8   3 11.0011 50.5545  12
 -18  -8   2 264.543 58.1554  10
 -18  -8   2 210.117 63.6860   5
 -18   8   2 249.874 68.5193  12
 -18  -8   1 586.354 71.2291  10
 -18  -8   1 480.244 76.8831   5
 -18   8   1 578.202 90.9615  12
 -18  -8   0 7093.68 212.614  10
 -18  -8   0 6963.15 231.319   5
 -18   8   0 7413.68 254.567  12
 -18 -10  11 718.792 81.5882   8
 -18 -10  10-34.1305 33.3514   8
 -18 -10   9 829.501 87.6938   8
 -18 -10   9 927.820 93.6600  13
 -18 -10   8 12.5175 28.6443  10
 -18 -10   8 113.871 58.0410  13
 -18 -10   7 162.842 46.0647  10
 -18 -10   7 933.068 122.483  13
 -18 -10   6 233.771 49.1953  10
 -18 -10   6 181.021 57.4804  13
 -18 -10   5 1115.98 90.9095  10
 -18 -10   5 1352.04 115.940  13
 -18 -10   4 86.5598 36.4151  10
 -18 -10   4 146.890 48.8746  13
 -18 -10   3 2233.58 134.372  13
 -18  10   3 2418.84 174.938  12
 -18 -10   2 332.651 55.3833  13
 -18  10   2 308.486 61.3376  12
 -19  -1  15 134.684 38.9081  10
 -19   1  14 616.709 75.7093  10
 -19  -1  14 643.782 85.7189  10
 -19  -1  14 538.206 67.5612   9
 -19  -1  13 828.611 85.2345   9
 -19   1  13 1075.56 107.097  10
 -19  -1  13 864.222 109.648  10
 -19   1  12 1378.15 123.250  10
 -19  -1  12 1656.39 139.889  10
 -19   1  11 398.625 82.5430  10
 -19  -1  11 283.158 80.0215  10
 -19   1  10 1386.12 138.822  10
 -19  -1  10 1464.56 150.220  10
 -19   1   9 95.4536 59.8057  10
 -19  -1   9 84.7178 57.2998  10
 -19  -1   9 47.7976 49.1894  13
 -19   1   8 1632.07 151.504  10
 -19  -1   8 1934.27 162.283  10
 -19  -1   8 1777.04 137.129  13
 -19   1   7 1219.61 130.453  10
 -19  -1   7 1228.70 143.953  10
 -19  -1   7 1508.52 126.339  13
 -19   1   6 112.953 61.8941  10
 -19  -1   6 88.3920 51.8096  10
 -19  -1   6-10.4777 42.6376  13
 -19   1   5 1455.87 144.479  10
 -19  -1   5 1574.25 146.297  10
 -19  -1   5 1085.57 108.231  13
 -19   1   4 1280.85 129.694  10
 -19  -1   4 1654.04 139.716  10
 -19  -1   4 1188.00 119.786   5
 -19  -1   4 1530.45 119.680  13
 -19   1   3 2058.29 147.387  10
 -19  -1   3 1970.03 154.699  10
 -19  -1   3 1787.98 145.762   5
 -19   1   2 641.343 84.0643  10
 -19  -1   2 586.649 91.6790  10
 -19  -1   2 714.700 87.1502   5
 -19   1   1 2864.92 152.034  10
 -19  -1   1 2776.77 165.980  10
 -19   1   0 79.8923 31.5104  10
 -19  -1   0 44.5967 33.4854  10
 -19  -3  15 21.1943 27.1995   9
 -19  -3  15 89.3392 35.9934  10
 -19  -3  14 520.135 75.9633  10
 -19  -3  14 379.536 55.5334   9
 -19   3  13 2839.23 158.106  10
 -19  -3  13 3253.64 180.899  10
 -19   3  12 232.344 54.3826  10
 -19  -3  12 63.6131 39.4424  10
 -19   3  11 279.745 64.5020  10
 -19  -3  11 388.343 87.1214  10
 -19   3  10-14.9889 42.5748  10
 -19  -3  10 40.4347 57.1985  10
 -19  -3  10 3.92015 38.5110  13
 -19  -3   9 783.093 110.209  10
 -19  -3   9 965.209 109.587  13
 -19   3   9 817.839 100.746  10
 -19   3   8 626.618 88.2679  10
 -19  -3   8 524.124 97.2524  10
 -19  -3   8 752.205 108.070  13
 -19   3   7 2293.29 159.095  10
 -19  -3   7 2542.33 190.047  10
 -19  -3   7 2480.52 169.291  13
 -19   3   6 195.089 61.9259  10
 -19  -3   6 104.247 70.5654  10
 -19  -3   6 268.007 94.9390  13
 -19   3   5 4716.09 206.375  10
 -19  -3   5 5466.63 259.690  10
 -19  -3   5 4822.22 254.890   5
 -19  -3   5 4968.38 235.745  13
 -19   3   4 1305.61 110.581  10
 -19  -3   4 1082.85 125.199  10
 -19  -3   4 1165.14 116.344  13
 -19  -3   3 75.7788 58.8111  10
 -19  -3   3 126.049 57.9633   5
 -19  -3   3 44.8514 39.2812  13
 -19  -3   2 3989.08 202.784  10
 -19  -3   2 3587.75 193.641   5
 -19  -3   2 3659.07 174.550  13
 -19  -3   1 4406.43 196.012  10
 -19  -3   1 4178.05 189.496   5
 -19  -3   1 3960.11 167.780  13
 -19  -3   0 200.184 43.8532  10
 -19  -3   0 53.5385 31.6070   5
 -19  -5  14 404.282 58.7508  10
 -19  -5  14 463.288 64.4234   9
 -19  -5  13 217.028 50.6989  10
 -19  -5  12 331.188 64.5487  10
 -19  -5  11 404.933 76.7155  10
 -19  -5  10 3739.21 198.841  10
 -19  -5  10 3766.29 198.357  13
 -19  -5   9 79.6350 48.6594  10
 -19  -5   9 44.1133 41.6493  13
 -19  -5   8 163.435 69.2760  10
 -19  -5   8 124.159 55.4028  13
 -19  -5   7 1072.39 117.070  10
 -19  -5   7 819.717 112.676  13
 -19  -5   6 101.734 54.6034  10
 -19  -5   6 114.679 52.7666  13
 -19  -5   5 546.416 94.9435  10
 -19  -5   5 544.661 94.8511  13
 -19  -5   4 737.652 97.1332  10
 -19  -5   4 686.525 101.454   5
 -19  -5   4 721.021 94.6541  13
 -19  -5   3 1452.79 123.227  10
 -19  -5   3 1390.25 130.707   5
 -19  -5   3 1144.48 108.565  13
 -19  -5   2 2166.59 140.306  10
 -19  -5   2 2057.49 145.138   5
 -19  -5   2 1875.63 133.440  13
 -19  -5   1 2102.75 128.622  10
 -19  -5   1 2044.36 135.551   5
 -19  -5   1 1895.11 116.720  13
 -19  -5   0 320.458 48.8904  10
 -19  -7  12 21.4136 28.7646  10
 -19  -7  11 95.5275 40.3256  10
 -19  -7  10 1116.91 109.107  13
 -19  -7  10 911.792 90.6571  10
 -19  -7   9 132.590 53.9158  10
 -19  -7   9 36.4278 37.6549  13
 -19  -7   8 358.831 68.6408  10
 -19  -7   8 355.124 75.2548  13
 -19  -7   7 3580.85 182.128  10
 -19  -7   7 3832.48 190.150  13
 -19  -7   6 1039.41 101.458  10
 -19  -7   6 1063.65 123.637  13
 -19  -7   5 1109.50 102.832  10
 -19  -7   5 1317.17 111.531  13
 -19  -7   4 1456.80 121.404  10
 -19  -7   4 1819.19 129.683  13
 -19  -7   3 433.346 66.9482  10
 -19  -7   3 485.772 71.4479  13
 -19  -7   2 205.533 52.3116  10
 -19  -7   2 158.043 47.5376   5
 -19  -7   2 166.223 47.5772  13
 -19  -9   9 22.7211 29.4476  13
 -19  -9   8 573.001 70.4528  13
 -19  -9   7 2174.43 134.775  13
 -19  -9   6 111.650 45.2574  13
 -19  -9   5 729.882 82.5612  13
 -19  -9   4 173.555 42.5081  13
 -20   0  13 0.82198 29.4144  10
 -20   0  12 222.151 57.0311  10
 -20   0  11 74.0853 47.8200  10
 -20   0  10 672.317 88.6828  10
 -20   0   9-13.0812 39.1216  10
 -20   0   8 1127.21 112.113  10
 -20   0   7-27.1258 48.7916  10
 -20   0   6 4524.47 207.824  10
 -20   0   5 88.1478 53.7581  10
 -20   0   4 1704.82 122.192  10
 -20   0   3 63.8657 35.0907  10
 -20  -2  14 113.169 38.5392  10
 -20  -2  13 230.998 50.1200  10
 -20   2  12 136.544 40.5741  10
 -20  -2  12 157.411 44.3593  10
 -20   2  11 270.310 51.1471  10
 -20  -2  11 325.497 60.8802  10
 -20   2  10 90.9762 44.4381  10
 -20  -2  10 61.5181 47.4634  10
 -20   2   9 466.794 68.7072  10
 -20  -2   9 504.536 81.7886  10
 -20   2   8 168.142 52.3622  10
 -20  -2   8 125.057 47.4787  10
 -20  -2   8 134.693 45.5487  13
 -20  -2   7 493.137 83.7344  10
 -20  -2   7 426.672 70.7413  13
 -20   2   6 482.762 72.8731  10
 -20  -2   6 606.990 85.6566  10
 -20  -2   6 666.115 72.6760  13
 -20   2   5 1856.30 115.063  10
 -20  -2   5 1972.10 139.410  10
 -20  -2   4 865.185 91.0344  10
 -20  -2   3 1458.83 115.767  10
 -20  -2   2 248.231 49.3124  10
 -20  -4  13 108.252 37.9351  10
 -20  -4  12 837.960 84.5097  10
 -20  -4  11 428.148 69.7370  10
 -20  -4  10 24.7941 37.9960  10
 -20  -4   9 117.446 47.6787  10
 -20  -4   9 135.239 50.5984  13
 -20  -4   8 1284.28 111.913  10
 -20  -4   8 1305.19 106.037  13
 -20  -4   7 4.70654 41.0535  10
 -20  -4   7-0.51949 29.4950  13
 -20  -4   6 1777.02 132.138  10
 -20  -4   6 1853.63 124.593  13
 -20  -4   5-64.8352 44.7178  10
 -20  -4   5 48.7570 33.0835  13
 -20  -4   4 2089.82 129.902  10
 -20  -4   4 1880.91 112.889  13
 -20  -4   3 698.199 76.9477  10
 -20  -6  11 71.6844 30.0062  10
 -20  -6  10 314.347 54.2548  10
 -20  -6   9 2298.74 132.657  13
 -20  -6   9 2233.55 130.800  10
 -20  -6   8 367.585 61.8247  10
 -20  -6   8 333.416 59.4263  13
 -20  -6   7 627.563 78.1330  10
 -20  -6   7 638.527 74.3377  13
 -20  -6   6 23.0795 29.6209  10
 -20  -6   6 107.714 42.6053  13
 -20  -6   5 18.5516 31.8679  10
 -20  -6   5 34.0771 31.9581  13
 -21  -1   9 51.2668 34.2040  10
 -21  -1   8 942.035 82.6406  10
 -21  -1   7 768.147 74.5533  10
 -21  -3   9 94.9766 31.9628  10
 -21  -3   8 669.859 69.8276  10
   0   0   0    0.00    0.00   0
TITL DSMSAL in C2/c
REM C2/c (#15 in standard setting)
CELL 1.54184  17.060235  18.860342  16.946827  90.0000 113.1934  90.0000
ZERR    4.00   0.000914   0.000877   0.001098   0.0000   0.0068   0.0000
LATT  7
SYMM -x, y,-z+1/2
SFAC C H Li N O Zn
UNIT 184.00 120.00 8.00 32.00 32.00 8.00
TREF
HKLF 4
END
;
_shelx_hkl_checksum              43221
_shelx_fab_file
;
    0    0    2     32.09      0.00
    0    0    4     -1.64      0.00
    0    0    6    -24.59      0.00
    0    0    8    -13.50      0.00
    0    0   10     -6.79      0.00
    0    0   12      7.86      0.00
    0    0   14      5.43      0.00
    0    0   16      0.30      0.00
    0    0   18      1.97      0.00
    0    2    0   -244.79      0.00
    0    2    1    103.14      0.00
    0    2    2    -26.38      0.00
    0    2    3    138.64      0.00
    0    2    4    -19.58      0.00
    0    2    5     43.25      0.00
    0    2    6      6.64      0.00
    0    2    7     -6.42      0.00
    0    2    8     -8.18      0.00
    0    2    9     -7.33      0.00
    0    2   10      1.77      0.00
    0    2   11     -2.24      0.00
    0    2   12     -2.66      0.00
    0    2   13     -4.33      0.00
    0    2   14     -1.22      0.00
    0    2   15      5.23      0.00
    0    2   16     -0.38      0.00
    0    2   17      0.77      0.00
    0    2   18      1.74      0.00
    0    2   19      3.97      0.00
    0    4    0   -135.26      0.00
    0    4    1     30.77      0.00
    0    4    2     37.66      0.00
    0    4    3    -35.19      0.00
    0    4    4     22.68      0.00
    0    4    5     -9.73      0.00
    0    4    6     18.87      0.00
    0    4    7      1.14      0.00
    0    4    8      5.13      0.00
    0    4    9      4.26      0.00
    0    4   10     -1.15      0.00
    0    4   11     -6.90      0.00
    0    4   12     -1.57      0.00
    0    4   13     -2.84      0.00
    0    4   14     -2.36      0.00
    0    4   15     -0.68      0.00
    0    4   16     -1.10      0.00
    0    4   17     -0.12      0.00
    0    4   18     -0.11      0.00
    0    4   19     -0.29      0.00
    0    6    0    -35.67      0.00
    0    6    1    -19.58      0.00
    0    6    2     -1.67      0.00
    0    6    3     12.58      0.00
    0    6    4     -5.48      0.00
    0    6    5     19.13      0.00
    0    6    6    -19.04      0.00
    0    6    7      6.12      0.00
    0    6    8     13.54      0.00
    0    6    9      1.35      0.00
    0    6   10     -5.91      0.00
    0    6   11     -1.22      0.00
    0    6   12     -5.95      0.00
    0    6   13      3.82      0.00
    0    6   14      2.10      0.00
    0    6   15     -3.96      0.00
    0    6   16      1.96      0.00
    0    6   17      0.24      0.00
    0    6   18      0.66      0.00
    0    8    0      4.16      0.00
    0    8    1     -2.94      0.00
    0    8    2    -16.53      0.00
    0    8    3     -9.14      0.00
    0    8    4     -2.27      0.00
    0    8    5    -29.80      0.00
    0    8    6     12.39      0.00
    0    8    7     -1.63      0.00
    0    8    8      7.71      0.00
    0    8    9      0.62      0.00
    0    8   10      0.28      0.00
    0    8   11     -0.59      0.00
    0    8   12     -0.26      0.00
    0    8   13     -0.89      0.00
    0    8   14      0.76      0.00
    0    8   15      0.11      0.00
    0    8   16     -1.78      0.00
    0    8   17     -0.69      0.00
    0    8   18      1.94      0.00
    0   10    0      4.99      0.00
    0   10    1     -4.43      0.00
    0   10    2      6.41      0.00
    0   10    3      1.61      0.00
    0   10    4     -2.11      0.00
    0   10    5     -0.12      0.00
    0   10    6     -0.55      0.00
    0   10    7     -2.68      0.00
    0   10    8    -13.06      0.00
    0   10    9      4.26      0.00
    0   10   10      1.84      0.00
    0   10   11      8.64      0.00
    0   10   12      4.65      0.00
    0   10   13      0.03      0.00
    0   10   14     -0.01      0.00
    0   10   15      1.64      0.00
    0   10   16      0.54      0.00
    0   10   17     -0.92      0.00
    0   12    0     -6.54      0.00
    0   12    1      7.79      0.00
    0   12    2     -6.96      0.00
    0   12    3     -5.00      0.00
    0   12    4      0.83      0.00
    0   12    5      9.41      0.00
    0   12    6     -4.66      0.00
    0   12    7     -1.59      0.00
    0   12    8     -4.71      0.00
    0   12    9     -1.98      0.00
    0   12   10      0.90      0.00
    0   12   11     -6.11      0.00
    0   12   12     -0.16      0.00
    0   12   13      0.28      0.00
    0   12   14     -1.05      0.00
    0   12   15     -0.30      0.00
    0   12   16      1.57      0.00
    0   14    0     16.14      0.00
    0   14    1     -4.10      0.00
    0   14    2     -3.63      0.00
    0   14    3      1.41      0.00
    0   14    4      3.13      0.00
    0   14    5      2.87      0.00
    0   14    6     -1.48      0.00
    0   14    7     -1.32      0.00
    0   14    8      7.20      0.00
    0   14    9     -0.47      0.00
    0   14   10     -0.54      0.00
    0   14   11      1.63      0.00
    0   14   12      2.11      0.00
    0   14   13     -1.26      0.00
    0   14   14      0.92      0.00
    0   14   15      0.76      0.00
    0   16    0     -9.03      0.00
    0   16    1      2.19      0.00
    0   16    2      0.85      0.00
    0   16    3      3.33      0.00
    0   16    4     -3.38      0.00
    0   16    5      0.21      0.00
    0   16    6      3.10      0.00
    0   16    7      0.83      0.00
    0   16    8     -1.27      0.00
    0   16    9     -2.41      0.00
    0   16   10      0.84      0.00
    0   16   11      0.28      0.00
    0   16   12      0.48      0.00
    0   16   13     -0.17      0.00
    0   16   14     -4.13      0.00
    0   18    0     -0.57      0.00
    0   18    1      5.51      0.00
    0   18    2      0.90      0.00
    0   18    3     -7.49      0.00
    0   18    4     -0.21      0.00
    0   18    5     -0.03      0.00
    0   18    6      2.86      0.00
    0   18    7     -4.26      0.00
    0   18    8      1.01      0.00
    0   18    9     -0.83      0.00
    0   18   10     -0.66      0.00
    0   18   11      0.34      0.00
    0   20    0      4.27      0.00
    0   20    1     -1.61      0.00
    0   20    2     -1.05      0.00
    0   20    3     -0.83      0.00
    0   20    4     -1.10      0.00
    0   20    5     -2.31      0.00
    0   20    6     -2.09      0.00
    0   20    7      3.78      0.00
    0   20    8     -1.92      0.00
    0   20    9      6.77      0.00
    0   22    0      2.84      0.00
    0   22    1      1.21      0.00
    0   22    2     -0.46      0.00
    0   22    3      3.07      0.00
    0   22    4      0.33      0.00
    0   22    5      0.21      0.00
    0   22    6      1.06      0.00
   -1    1   19     -0.87      0.00
   -1    1   18      1.09      0.00
   -1    1   17      0.33      0.00
   -1    1   16     -0.68      0.00
   -1    1   15      3.39      0.00
   -1    1   14      1.88      0.00
   -1    1   13      6.57      0.00
   -1    1   12     -3.48      0.00
   -1    1   11      5.79      0.00
   -1    1   10      0.61      0.00
   -1    1    9     -7.00      0.00
   -1    1    8     -3.82      0.00
   -1    1    7    -17.59      0.00
   -1    1    6    -35.64      0.00
   -1    1    5     23.72      0.00
   -1    1    4    -53.07      0.00
   -1    1    3     60.05      0.00
   -1    1    2     21.96      0.00
   -1    1    1    533.68      0.00
    1    1    0    112.43      0.00
    1    1    1     68.50      0.00
    1    1    2    105.60      0.00
    1    1    3     14.83      0.00
    1    1    4     15.07      0.00
    1    1    5      9.64      0.00
    1    1    6     -5.07      0.00
    1    1    7      7.49      0.00
    1    1    8     -0.75      0.00
    1    1    9     15.84      0.00
    1    1   10    -11.13      0.00
    1    1   11     -5.31      0.00
    1    1   12     -1.74      0.00
    1    1   13     -2.43      0.00
    1    1   14      6.56      0.00
    1    1   15      0.90      0.00
    1    1   16      1.54      0.00
    1    1   17      0.70      0.00
    1    1   18      1.88      0.00
   -1    3   19      1.16      0.00
   -1    3   18     -1.79      0.00
   -1    3   17      0.58      0.00
   -1    3   16      1.80      0.00
   -1    3   15     -4.23      0.00
   -1    3   14      1.35      0.00
   -1    3   13     -2.51      0.00
   -1    3   12      5.64      0.00
   -1    3   11     -2.15      0.00
   -1    3   10    -16.60      0.00
   -1    3    9    -18.29      0.00
   -1    3    8      1.81      0.00
   -1    3    7     -6.60      0.00
   -1    3    6     28.54      0.00
   -1    3    5     -0.33      0.00
   -1    3    4     74.55      0.00
   -1    3    3     -5.85      0.00
   -1    3    2      2.46      0.00
   -1    3    1     72.70      0.00
    1    3    0      3.20      0.00
    1    3    1     58.44      0.00
    1    3    2    -66.60      0.00
    1    3    3     46.09      0.00
    1    3    4    -30.44      0.00
    1    3    5     10.73      0.00
    1    3    6     -3.91      0.00
    1    3    7      3.62      0.00
    1    3    8     -1.73      0.00
    1    3    9     -9.80      0.00
    1    3   10      1.36      0.00
    1    3   11    -10.79      0.00
    1    3   12      5.35      0.00
    1    3   13     -4.82      0.00
    1    3   14     -3.33      0.00
    1    3   15      1.64      0.00
    1    3   16     -3.37      0.00
    1    3   17     -0.29      0.00
    1    3   18     -3.65      0.00
   -1    5   19      2.14      0.00
   -1    5   18      1.65      0.00
   -1    5   17      0.16      0.00
   -1    5   16      0.64      0.00
   -1    5   15      0.87      0.00
   -1    5   14     -3.04      0.00
   -1    5   13      1.44      0.00
   -1    5   12      2.85      0.00
   -1    5   11     -4.76      0.00
   -1    5   10     -1.19      0.00
   -1    5    9      1.10      0.00
   -1    5    8      2.28      0.00
   -1    5    7     28.33      0.00
   -1    5    6      7.12      0.00
   -1    5    5     15.31      0.00
   -1    5    4    -14.64      0.00
   -1    5    3     14.96      0.00
   -1    5    2     25.34      0.00
   -1    5    1    -40.23      0.00
    1    5    0    -47.10      0.00
    1    5    1      5.54      0.00
    1    5    2    -13.00      0.00
    1    5    3     17.85      0.00
    1    5    4     11.19      0.00
    1    5    5     -4.86      0.00
    1    5    6     12.37      0.00
    1    5    7     10.50      0.00
    1    5    8      2.46      0.00
    1    5    9     -9.03      0.00
    1    5   10      6.29      0.00
    1    5   11      2.99      0.00
    1    5   12     -1.67      0.00
    1    5   13      5.40      0.00
    1    5   14     -7.11      0.00
    1    5   15      1.23      0.00
    1    5   16     -0.10      0.00
    1    5   17      0.03      0.00
    1    5   18      0.42      0.00
   -1    7   18      1.99      0.00
   -1    7   17     -0.78      0.00
   -1    7   16     -2.36      0.00
   -1    7   15      0.25      0.00
   -1    7   14      0.62      0.00
   -1    7   13     -2.49      0.00
   -1    7   12     -7.65      0.00
   -1    7   11     -1.45      0.00
   -1    7   10      4.82      0.00
   -1    7    9      5.94      0.00
   -1    7    8      5.77      0.00
   -1    7    7    -18.04      0.00
   -1    7    6     17.04      0.00
   -1    7    5     -2.57      0.00
   -1    7    4    -20.21      0.00
   -1    7    3      5.71      0.00
   -1    7    2     -9.45      0.00
   -1    7    1    -32.84      0.00
    1    7    0    -13.30      0.00
    1    7    1    -14.10      0.00
    1    7    2    -24.17      0.00
    1    7    3    -11.10      0.00
    1    7    4    -15.90      0.00
    1    7    5      3.36      0.00
    1    7    6      3.35      0.00
    1    7    7     -6.35      0.00
    1    7    8     -1.97      0.00
    1    7    9      6.72      0.00
    1    7   10     -7.42      0.00
    1    7   11      7.22      0.00
    1    7   12     -0.98      0.00
    1    7   13     -1.72      0.00
    1    7   14      4.80      0.00
    1    7   15     -3.77      0.00
    1    7   16      1.53      0.00
    1    7   17     -0.63      0.00
    1    7   18      1.98      0.00
   -1    9   17     -1.40      0.00
   -1    9   16     -0.04      0.00
   -1    9   15     -0.43      0.00
   -1    9   14      0.64      0.00
   -1    9   13     -5.27      0.00
   -1    9   12     -1.76      0.00
   -1    9   11      4.67      0.00
   -1    9   10      2.00      0.00
   -1    9    9     15.92      0.00
   -1    9    8     -2.55      0.00
   -1    9    7     -0.56      0.00
   -1    9    6    -15.05      0.00
   -1    9    5     -5.86      0.00
   -1    9    4      3.86      0.00
   -1    9    3      3.06      0.00
   -1    9    2     -8.72      0.00
   -1    9    1     -9.89      0.00
    1    9    0     -4.44      0.00
    1    9    1     14.54      0.00
    1    9    2     14.97      0.00
    1    9    3    -11.16      0.00
    1    9    4     10.83      0.00
    1    9    5     -3.19      0.00
    1    9    6    -11.20      0.00
    1    9    7     -7.95      0.00
    1    9    8      5.23      0.00
    1    9    9      5.53      0.00
    1    9   10      4.76      0.00
    1    9   11     -2.48      0.00
    1    9   12     -0.27      0.00
    1    9   13     -2.22      0.00
    1    9   14      2.13      0.00
    1    9   15      1.17      0.00
    1    9   16     -1.22      0.00
    1    9   17      1.14      0.00
   -1   11   17     -0.70      0.00
   -1   11   16     -0.04      0.00
   -1   11   15      3.00      0.00
   -1   11   14      1.55      0.00
   -1   11   13      3.02      0.00
   -1   11   12      8.86      0.00
   -1   11   11      0.94      0.00
   -1   11   10     -1.35      0.00
   -1   11    9     -6.02      0.00
   -1   11    8     -1.85      0.00
   -1   11    7      5.51      0.00
   -1   11    6     -6.88      0.00
   -1   11    5     -1.05      0.00
   -1   11    4      4.36      0.00
   -1   11    3      4.30      0.00
   -1   11    2    -18.51      0.00
   -1   11    1      6.22      0.00
    1   11    0      1.13      0.00
    1   11    1    -12.51      0.00
    1   11    2      1.83      0.00
    1   11    3      3.92      0.00
    1   11    4      7.01      0.00
    1   11    5     -5.31      0.00
    1   11    6     -1.80      0.00
    1   11    7     -1.99      0.00
    1   11    8     -2.21      0.00
    1   11    9      1.03      0.00
    1   11   10     -2.64      0.00
    1   11   11      1.50      0.00
    1   11   12      0.04      0.00
    1   11   13      1.89      0.00
    1   11   14     -2.25      0.00
    1   11   15      1.67      0.00
    1   11   16     -0.11      0.00
   -1   13   16     -0.20      0.00
   -1   13   15     -0.58      0.00
   -1   13   14     -1.35      0.00
   -1   13   13     -0.15      0.00
   -1   13   12     -4.11      0.00
   -1   13   11     -1.05      0.00
   -1   13   10      1.27      0.00
   -1   13    9     -5.58      0.00
   -1   13    8      0.36      0.00
   -1   13    7      0.69      0.00
   -1   13    6      2.95      0.00
   -1   13    5     -1.64      0.00
   -1   13    4     -2.92      0.00
   -1   13    3     -3.53      0.00
   -1   13    2     10.32      0.00
   -1   13    1     -7.61      0.00
    1   13    0     -2.33      0.00
    1   13    1     -1.75      0.00
    1   13    2      2.73      0.00
    1   13    3      2.95      0.00
    1   13    4     -2.74      0.00
    1   13    5      4.31      0.00
    1   13    6      1.93      0.00
    1   13    7      5.71      0.00
    1   13    8     -0.33      0.00
    1   13    9     -2.57      0.00
    1   13   10      1.30      0.00
    1   13   11      1.05      0.00
    1   13   12     -0.73      0.00
    1   13   13     -1.35      0.00
    1   13   14      1.81      0.00
    1   13   15     -1.44      0.00
   -1   15   15      0.18      0.00
   -1   15   14     -0.23      0.00
   -1   15   13      1.85      0.00
   -1   15   12      0.55      0.00
   -1   15   11      0.49      0.00
   -1   15   10      0.22      0.00
   -1   15    9      1.96      0.00
   -1   15    8      1.03      0.00
   -1   15    7     -5.89      0.00
   -1   15    6      4.07      0.00
   -1   15    5      4.22      0.00
   -1   15    4     -2.17      0.00
   -1   15    3     -1.82      0.00
   -1   15    2     -1.25      0.00
   -1   15    1     11.19      0.00
    1   15    0      1.87      0.00
    1   15    1      7.99      0.00
    1   15    2      1.93      0.00
    1   15    3     -2.54      0.00
    1   15    4      1.55      0.00
    1   15    5      3.68      0.00
    1   15    6      3.08      0.00
    1   15    7     -3.21      0.00
    1   15    8     -1.87      0.00
    1   15    9      1.66      0.00
    1   15   10      2.14      0.00
    1   15   11     -2.35      0.00
    1   15   12      2.76      0.00
    1   15   13     -1.45      0.00
    1   15   14     -0.02      0.00
   -1   17   13      2.43      0.00
   -1   17   12      1.56      0.00
   -1   17   11      1.14      0.00
   -1   17   10     -3.53      0.00
   -1   17    9      1.61      0.00
   -1   17    8     -2.01      0.00
   -1   17    7     -1.10      0.00
   -1   17    6      0.89      0.00
   -1   17    5     -5.21      0.00
   -1   17    4      8.98      0.00
   -1   17    3     -4.00      0.00
   -1   17    2     -4.44      0.00
   -1   17    1     -4.33      0.00
    1   17    0      1.21      0.00
    1   17    1     -4.32      0.00
    1   17    2     -2.28      0.00
    1   17    3     -2.54      0.00
    1   17    4     -4.82      0.00
    1   17    5      0.95      0.00
    1   17    6     -4.46      0.00
    1   17    7     -0.84      0.00
    1   17    8      2.13      0.00
    1   17    9     -2.16      0.00
    1   17   10      1.70      0.00
    1   17   11     -0.31      0.00
    1   17   12      0.70      0.00
   -1   19   11      0.08      0.00
   -1   19   10     -4.11      0.00
   -1   19    9      2.41      0.00
   -1   19    8     -2.63      0.00
   -1   19    7      5.91      0.00
   -1   19    6      0.04      0.00
   -1   19    5      2.57      0.00
   -1   19    4     -6.57      0.00
   -1   19    3      0.26      0.00
   -1   19    2      5.36      0.00
   -1   19    1     -4.66      0.00
    1   19    0     -3.54      0.00
    1   19    1     -1.21      0.00
    1   19    2      1.95      0.00
    1   19    3      3.12      0.00
    1   19    4     -3.80      0.00
    1   19    5     -3.19      0.00
    1   19    6      6.55      0.00
    1   19    7     -3.28      0.00
    1   19    8      1.90      0.00
    1   19    9     -0.41      0.00
    1   19   10      0.67      0.00
   -1   21    8     -0.27      0.00
   -1   21    7     -1.71      0.00
   -1   21    6      0.51      0.00
   -1   21    5      0.89      0.00
   -1   21    4     -4.16      0.00
   -1   21    3      1.97      0.00
   -1   21    2     -0.95      0.00
   -1   21    1      0.16      0.00
    1   21    0     -1.06      0.00
    1   21    1      3.00      0.00
    1   21    2      2.61      0.00
    1   21    3      0.88      0.00
    1   21    4      2.11      0.00
    1   21    5      0.89      0.00
    1   21    6     -0.67      0.00
    1   21    7     -1.33      0.00
    1   21    8     -2.19      0.00
    1   23    0      0.91      0.00
    1   23    1      1.05      0.00
    1   23    2      3.22      0.00
    1   23    3     -0.93      0.00
   -2    0   18      0.04      0.00
   -2    0   16     -1.11      0.00
   -2    0   14     -4.20      0.00
   -2    0   12     -9.91      0.00
   -2    0   10     12.01      0.00
   -2    0    8      1.35      0.00
   -2    0    6    -35.96      0.00
   -2    0    4    -11.86      0.00
   -2    0    2   -213.94      0.00
    2    0    0    155.87      0.00
    2    0    2     33.31      0.00
    2    0    4     -1.59      0.00
    2    0    6      9.48      0.00
    2    0    8     16.34      0.00
    2    0   10    -11.72      0.00
    2    0   12      0.01      0.00
    2    0   14      3.11      0.00
    2    0   16      2.04      0.00
    2    0   18     -0.32      0.00
   -2    2   19      0.40      0.00
   -2    2   18     -0.70      0.00
   -2    2   17      0.35      0.00
   -2    2   16      2.76      0.00
   -2    2   15     -0.84      0.00
   -2    2   14      1.24      0.00
   -2    2   13     -6.87      0.00
   -2    2   12      1.92      0.00
   -2    2   11      8.05      0.00
   -2    2   10      1.26      0.00
   -2    2    9    -19.43      0.00
   -2    2    8     -5.16      0.00
   -2    2    7    -32.92      0.00
   -2    2    6      1.14      0.00
   -2    2    5    -10.08      0.00
   -2    2    4     -1.64      0.00
   -2    2    3     86.12      0.00
   -2    2    2     66.68      0.00
   -2    2    1    -52.56      0.00
    2    2    0     19.16      0.00
    2    2    1    -55.29      0.00
    2    2    2     25.19      0.00
    2    2    3     -6.98      0.00
    2    2    4      7.57      0.00
    2    2    5      1.04      0.00
    2    2    6     -2.54      0.00
    2    2    7     -8.12      0.00
    2    2    8    -16.31      0.00
    2    2    9     11.69      0.00
    2    2   10     -4.21      0.00
    2    2   11     -0.52      0.00
    2    2   12      0.01      0.00
    2    2   13     -5.34      0.00
    2    2   14      1.70      0.00
    2    2   15     -1.04      0.00
    2    2   16      0.27      0.00
    2    2   17      0.39      0.00
    2    2   18     -3.87      0.00
   -2    4   19     -1.83      0.00
   -2    4   18      0.96      0.00
   -2    4   17      0.36      0.00
   -2    4   16     -3.56      0.00
   -2    4   15      0.99      0.00
   -2    4   14      3.23      0.00
   -2    4   13     -2.70      0.00
   -2    4   12      1.79      0.00
   -2    4   11     -8.99      0.00
   -2    4   10    -13.79      0.00
   -2    4    9      5.97      0.00
   -2    4    8     -5.38      0.00
   -2    4    7     -6.39      0.00
   -2    4    6     16.96      0.00
   -2    4    5     27.04      0.00
   -2    4    4      8.50      0.00
   -2    4    3     -4.30      0.00
   -2    4    2     77.56      0.00
   -2    4    1     68.03      0.00
    2    4    0     -9.85      0.00
    2    4    1     -8.56      0.00
    2    4    2     -4.37      0.00
    2    4    3     31.67      0.00
    2    4    4    -16.78      0.00
    2    4    5     19.88      0.00
    2    4    6     -0.08      0.00
    2    4    7      2.95      0.00
    2    4    8     -0.43      0.00
    2    4    9      0.84      0.00
    2    4   10     16.42      0.00
    2    4   11     -9.48      0.00
    2    4   12      3.82      0.00
    2    4   13     -5.84      0.00
    2    4   14     -3.61      0.00
    2    4   15      0.41      0.00
    2    4   16     -2.14      0.00
    2    4   17      3.67      0.00
    2    4   18      1.58      0.00
   -2    6   19      0.21      0.00
   -2    6   18      1.27      0.00
   -2    6   17      2.18      0.00
   -2    6   16      1.23      0.00
   -2    6   15     -0.04      0.00
   -2    6   14      1.45      0.00
   -2    6   13      5.23      0.00
   -2    6   12     -4.83      0.00
   -2    6   11    -10.38      0.00
   -2    6   10     -5.85      0.00
   -2    6    9      4.95      0.00
   -2    6    8     11.87      0.00
   -2    6    7      9.64      0.00
   -2    6    6     -0.55      0.00
   -2    6    5     18.01      0.00
   -2    6    4      1.42      0.00
   -2    6    3      7.06      0.00
   -2    6    2      8.69      0.00
   -2    6    1     -2.71      0.00
    2    6    0    -36.56      0.00
    2    6    1     40.47      0.00
    2    6    2    -39.55      0.00
    2    6    3     17.82      0.00
    2    6    4     -0.55      0.00
    2    6    5     -5.65      0.00
    2    6    6     -2.71      0.00
    2    6    7     -4.22      0.00
    2    6    8     10.20      0.00
    2    6    9     -7.35      0.00
    2    6   10     -1.75      0.00
    2    6   11      7.09      0.00
    2    6   12     -5.31      0.00
    2    6   13      9.78      0.00
    2    6   14     -1.61      0.00
    2    6   15      2.34      0.00
    2    6   16      0.59      0.00
    2    6   17      0.32      0.00
   -2    8   18     -0.68      0.00
   -2    8   17     -0.81      0.00
   -2    8   16      0.13      0.00
   -2    8   15     -0.15      0.00
   -2    8   14      0.19      0.00
   -2    8   13     -2.21      0.00
   -2    8   12     -2.42      0.00
   -2    8   11      3.77      0.00
   -2    8   10      1.64      0.00
   -2    8    9      1.93      0.00
   -2    8    8     -1.46      0.00
   -2    8    7     17.07      0.00
   -2    8    6      0.76      0.00
   -2    8    5    -15.25      0.00
   -2    8    4    -12.40      0.00
   -2    8    3     17.43      0.00
   -2    8    2    -10.41      0.00
   -2    8    1     -6.62      0.00
    2    8    0      1.84      0.00
    2    8    1     16.79      0.00
    2    8    2     -1.94      0.00
    2    8    3     -9.44      0.00
    2    8    4     11.43      0.00
    2    8    5    -18.54      0.00
    2    8    6     -2.09      0.00
    2    8    7     10.38      0.00
    2    8    8     -4.89      0.00
    2    8    9      5.81      0.00
    2    8   10    -10.85      0.00
    2    8   11     -2.53      0.00
    2    8   12     -0.34      0.00
    2    8   13     -2.82      0.00
    2    8   14      2.79      0.00
    2    8   15     -2.51      0.00
    2    8   16      2.35      0.00
    2    8   17      1.70      0.00
   -2   10   18      0.76      0.00
   -2   10   17      0.75      0.00
   -2   10   16     -1.08      0.00
   -2   10   15     -1.61      0.00
   -2   10   14     -1.62      0.00
   -2   10   13     -2.43      0.00
   -2   10   12      2.58      0.00
   -2   10   11      8.04      0.00
   -2   10   10      8.55      0.00
   -2   10    9     -2.08      0.00
   -2   10    8     -8.87      0.00
   -2   10    7     -4.84      0.00
   -2   10    6     -0.11      0.00
   -2   10    5     -2.29      0.00
   -2   10    4     -0.57      0.00
   -2   10    3      5.03      0.00
   -2   10    2    -17.92      0.00
   -2   10    1     -5.01      0.00
    2   10    0     -9.68      0.00
    2   10    1     -2.63      0.00
    2   10    2     15.10      0.00
    2   10    3     -0.99      0.00
    2   10    4     -9.42      0.00
    2   10    5      9.22      0.00
    2   10    6     -0.95      0.00
    2   10    7     -1.90      0.00
    2   10    8      0.35      0.00
    2   10    9      1.51      0.00
    2   10   10      6.64      0.00
    2   10   11      1.16      0.00
    2   10   12      2.35      0.00
    2   10   13     -1.89      0.00
    2   10   14      1.01      0.00
    2   10   15     -0.52      0.00
    2   10   16     -3.41      0.00
   -2   12   17      0.05      0.00
   -2   12   16      0.90      0.00
   -2   12   15      3.50      0.00
   -2   12   14     -1.29      0.00
   -2   12   13      4.95      0.00
   -2   12   12      2.65      0.00
   -2   12   11     -3.30      0.00
   -2   12   10     -0.13      0.00
   -2   12    9     -0.48      0.00
   -2   12    8      3.67      0.00
   -2   12    7     -5.48      0.00
   -2   12    6      1.56      0.00
   -2   12    5      1.35      0.00
   -2   12    4      6.41      0.00
   -2   12    3    -17.12      0.00
   -2   12    2     -0.25      0.00
   -2   12    1      7.31      0.00
    2   12    0      4.18      0.00
    2   12    1     -4.24      0.00
    2   12    2      2.29      0.00
    2   12    3     -3.60      0.00
    2   12    4      6.92      0.00
    2   12    5      3.64      0.00
    2   12    6      4.29      0.00
    2   12    7     -4.32      0.00
    2   12    8     -3.97      0.00
    2   12    9     -0.83      0.00
    2   12   10      0.37      0.00
    2   12   11      1.77      0.00
    2   12   12     -1.33      0.00
    2   12   14     -0.98      0.00
    2   12   15      0.47      0.00
   -2   14   16      2.23      0.00
   -2   14   15     -0.31      0.00
   -2   14   14     -1.17      0.00
   -2   14   13      0.13      0.00
   -2   14   12     -1.42      0.00
   -2   14   11      2.34      0.00
   -2   14   10     -1.33      0.00
   -2   14    9     -0.98      0.00
   -2   14    8      3.32      0.00
   -2   14    7     -2.10      0.00
   -2   14    6     -3.08      0.00
   -2   14    5     -1.92      0.00
   -2   14    4      5.40      0.00
   -2   14    3     -0.65      0.00
   -2   14    2     -3.68      0.00
   -2   14    1      1.31      0.00
    2   14    0      3.47      0.00
    2   14    1      0.35      0.00
    2   14    2     -2.79      0.00
    2   14    3      4.41      0.00
    2   14    4      2.03      0.00
    2   14    5      2.01      0.00
    2   14    6     -0.99      0.00
    2   14    7      2.05      0.00
    2   14    8      2.22      0.00
    2   14    9      3.17      0.00
    2   14   10     -1.28      0.00
    2   14   11      1.70      0.00
    2   14   12      2.59      0.00
    2   14   13     -1.34      0.00
    2   14   14      1.40      0.00
   -2   16   14      1.44      0.00
   -2   16   13     -0.87      0.00
   -2   16   12     -0.60      0.00
   -2   16   11      3.31      0.00
   -2   16   10     -2.46      0.00
   -2   16    9      2.76      0.00
   -2   16    8     -4.15      0.00
   -2   16    7      2.74      0.00
   -2   16    6      4.41      0.00
   -2   16    5     -4.77      0.00
   -2   16    4      0.22      0.00
   -2   16    3      2.69      0.00
   -2   16    2      9.11      0.00
   -2   16    1     -3.72      0.00
    2   16    0     -8.30      0.00
    2   16    1     -3.93      0.00
    2   16    2     -1.25      0.00
    2   16    3     -7.76      0.00
    2   16    4     -1.17      0.00
    2   16    5     -3.67      0.00
    2   16    6     -2.85      0.00
    2   16    7      2.08      0.00
    2   16    8     -1.40      0.00
    2   16    9     -2.23      0.00
    2   16   10      3.52      0.00
    2   16   11     -1.82      0.00
    2   16   12      1.88      0.00
    2   16   13      0.26      0.00
   -2   18   12      2.10      0.00
   -2   18   11     -0.92      0.00
   -2   18   10      1.06      0.00
   -2   18    9     -1.46      0.00
   -2   18    8     -5.96      0.00
   -2   18    7      3.17      0.00
   -2   18    6     -4.76      0.00
   -2   18    5      7.34      0.00
   -2   18    4     -3.47      0.00
   -2   18    3     -7.20      0.00
   -2   18    2      1.33      0.00
   -2   18    1      1.74      0.00
    2   18    0      3.90      0.00
    2   18    1      1.41      0.00
    2   18    2      4.90      0.00
    2   18    3      0.38      0.00
    2   18    4     -3.85      0.00
    2   18    5      4.08      0.00
    2   18    6     -1.48      0.00
    2   18    7     -3.11      0.00
    2   18    8      1.02      0.00
    2   18    9     -0.49      0.00
    2   18   10      1.15      0.00
   -2   20   10      0.52      0.00
   -2   20    9     -1.56      0.00
   -2   20    8      4.42      0.00
   -2   20    7     -0.21      0.00
   -2   20    6     -0.44      0.00
   -2   20    5     -1.41      0.00
   -2   20    4     -0.37      0.00
   -2   20    3      2.94      0.00
   -2   20    2     -3.51      0.00
   -2   20    1     -0.16      0.00
    2   20    0      3.00      0.00
    2   20    1      0.16      0.00
    2   20    2     -2.76      0.00
    2   20    3      3.00      0.00
    2   20    4      2.55      0.00
    2   20    5     -3.69      0.00
    2   20    6      1.62      0.00
    2   20    7      0.64      0.00
    2   20    8      2.82      0.00
   -2   22    7      1.66      0.00
   -2   22    6      4.62      0.00
   -2   22    5     -3.55      0.00
   -2   22    4      4.13      0.00
   -2   22    3     -1.22      0.00
   -2   22    2     -2.37      0.00
   -2   22    1     -3.25      0.00
    2   22    0     -0.78      0.00
    2   22    1     -0.60      0.00
    2   22    2     -1.10      0.00
    2   22    3     -2.22      0.00
    2   22    4      0.71      0.00
    2   22    5     -2.75      0.00
   -3    1   20      1.51      0.00
   -3    1   19     -0.45      0.00
   -3    1   18     -1.21      0.00
   -3    1   17      0.16      0.00
   -3    1   16      0.19      0.00
   -3    1   15      0.68      0.00
   -3    1   14      3.28      0.00
   -3    1   13     -1.18      0.00
   -3    1   12     -2.87      0.00
   -3    1   11      2.85      0.00
   -3    1   10     10.10      0.00
   -3    1    9     -9.70      0.00
   -3    1    8     11.68      0.00
   -3    1    7    -13.73      0.00
   -3    1    6    -19.17      0.00
   -3    1    5     36.51      0.00
   -3    1    4    -45.91      0.00
   -3    1    3     21.61      0.00
   -3    1    2    145.36      0.00
   -3    1    1      0.16      0.00
    3    1    0      4.61      0.00
    3    1    1     13.84      0.00
    3    1    2      9.90      0.00
    3    1    3     15.17      0.00
    3    1    4      2.33      0.00
    3    1    5     -3.38      0.00
    3    1    6     -7.93      0.00
    3    1    7     -9.61      0.00
    3    1    8      6.73      0.00
    3    1    9      8.40      0.00
    3    1   10     -4.68      0.00
    3    1   11      0.19      0.00
    3    1   12     -0.87      0.00
    3    1   13     -0.11      0.00
    3    1   14      2.16      0.00
    3    1   15     -0.05      0.00
    3    1   16      2.76      0.00
    3    1   17     -0.00      0.00
   -3    3   20      0.68      0.00
   -3    3   19     -1.44      0.00
   -3    3   18      0.88      0.00
   -3    3   17     -0.61      0.00
   -3    3   16     -1.81      0.00
   -3    3   15     -6.63      0.00
   -3    3   14     -1.24      0.00
   -3    3   13     -0.94      0.00
   -3    3   12      1.44      0.00
   -3    3   11      3.18      0.00
   -3    3   10    -18.47      0.00
   -3    3    9     -8.03      0.00
   -3    3    8      6.22      0.00
   -3    3    7    -17.87      0.00
   -3    3    6      6.19      0.00
   -3    3    5    -11.91      0.00
   -3    3    4     32.07      0.00
   -3    3    3    -18.94      0.00
   -3    3    2   -109.56      0.00
   -3    3    1     24.35      0.00
    3    3    0     13.70      0.00
    3    3    1      7.16      0.00
    3    3    2     16.39      0.00
    3    3    3    -14.67      0.00
    3    3    4      2.89      0.00
    3    3    5     -3.44      0.00
    3    3    6      6.39      0.00
    3    3    7      0.95      0.00
    3    3    8     -3.18      0.00
    3    3    9      6.83      0.00
    3    3   10     -0.01      0.00
    3    3   11     -3.31      0.00
    3    3   12     -0.55      0.00
    3    3   13     -2.56      0.00
    3    3   14     -1.16      0.00
    3    3   15     -0.81      0.00
    3    3   16      0.71      0.00
    3    3   17      2.82      0.00
   -3    5   19      1.84      0.00
   -3    5   18     -1.16      0.00
   -3    5   17     -1.85      0.00
   -3    5   16      1.40      0.00
   -3    5   15      3.33      0.00
   -3    5   14     -1.47      0.00
   -3    5   13     -1.44      0.00
   -3    5   12      3.02      0.00
   -3    5   11      1.74      0.00
   -3    5   10     -2.66      0.00
   -3    5    9      8.46      0.00
   -3    5    8    -19.46      0.00
   -3    5    7     16.09      0.00
   -3    5    6      2.56      0.00
   -3    5    5     -0.10      0.00
   -3    5    4     13.03      0.00
   -3    5    3     23.01      0.00
   -3    5    2     11.64      0.00
   -3    5    1     17.17      0.00
    3    5    0     57.34      0.00
    3    5    1     -4.79      0.00
    3    5    2     -1.96      0.00
    3    5    3     25.85      0.00
    3    5    4    -17.39      0.00
    3    5    5      7.11      0.00
    3    5    6      1.66      0.00
    3    5    7      3.59      0.00
    3    5    8     -2.56      0.00
    3    5    9    -10.56      0.00
    3    5   10      9.12      0.00
    3    5   11     -0.95      0.00
    3    5   12      6.66      0.00
    3    5   13      1.15      0.00
    3    5   14      1.35      0.00
    3    5   15      1.36      0.00
    3    5   16     -2.03      0.00
    3    5   17      0.90      0.00
   -3    7   19      0.93      0.00
   -3    7   18      0.21      0.00
   -3    7   17      1.81      0.00
   -3    7   16     -0.16      0.00
   -3    7   15      1.33      0.00
   -3    7   14     -1.87      0.00
   -3    7   13     -4.40      0.00
   -3    7   12     -7.56      0.00
   -3    7   11     -7.92      0.00
   -3    7   10      7.76      0.00
   -3    7    9     -1.43      0.00
   -3    7    8    -12.40      0.00
   -3    7    7      1.83      0.00
   -3    7    6      3.67      0.00
   -3    7    5     17.18      0.00
   -3    7    4    -26.40      0.00
   -3    7    3     12.43      0.00
   -3    7    2     -0.47      0.00
   -3    7    1    -16.03      0.00
    3    7    0    -37.81      0.00
    3    7    1     22.60      0.00
    3    7    2    -28.61      0.00
    3    7    3     13.25      0.00
    3    7    4     -2.43      0.00
    3    7    5     -4.27      0.00
    3    7    6      9.40      0.00
    3    7    7    -10.20      0.00
    3    7    8     -0.63      0.00
    3    7    9     -4.52      0.00
    3    7   10     -7.82      0.00
    3    7   11      2.67      0.00
    3    7   12     -5.14      0.00
    3    7   13      2.61      0.00
    3    7   14     -2.75      0.00
    3    7   15      1.02      0.00
    3    7   16      0.24      0.00
    3    7   17      0.51      0.00
   -3    9   18     -0.35      0.00
   -3    9   17     -0.53      0.00
   -3    9   16      1.15      0.00
   -3    9   15     -1.41      0.00
   -3    9   14      0.70      0.00
   -3    9   13      1.30      0.00
   -3    9   12     -0.66      0.00
   -3    9   11      1.91      0.00
   -3    9   10      2.67      0.00
   -3    9    9      2.01      0.00
   -3    9    8     15.11      0.00
   -3    9    7     -3.68      0.00
   -3    9    6     -0.42      0.00
   -3    9    5     -1.15      0.00
   -3    9    4      8.06      0.00
   -3    9    3      8.99      0.00
   -3    9    2     -4.12      0.00
   -3    9    1     -5.82      0.00
    3    9    0    -10.53      0.00
    3    9    1      9.89      0.00
    3    9    2      6.25      0.00
    3    9    3    -20.03      0.00
    3    9    4     16.77      0.00
    3    9    5      4.16      0.00
    3    9    6     -7.08      0.00
    3    9    7      7.61      0.00
    3    9    8     -0.33      0.00
    3    9    9     11.13      0.00
    3    9   10      0.46      0.00
    3    9   11      1.83      0.00
    3    9   12     -0.06      0.00
    3    9   13      0.02      0.00
    3    9   14      0.95      0.00
    3    9   15     -3.44      0.00
    3    9   16      0.89      0.00
   -3   11   17      0.89      0.00
   -3   11   16     -2.05      0.00
   -3   11   15      2.97      0.00
   -3   11   14     -2.56      0.00
   -3   11   13      0.91      0.00
   -3   11   12      4.04      0.00
   -3   11   11      2.25      0.00
   -3   11   10     -4.53      0.00
   -3   11    9     -7.23      0.00
   -3   11    8      5.38      0.00
   -3   11    7      1.17      0.00
   -3   11    6      3.46      0.00
   -3   11    5     -9.98      0.00
   -3   11    4      7.45      0.00
   -3   11    3     -1.96      0.00
   -3   11    2    -12.61      0.00
   -3   11    1      1.33      0.00
    3   11    0     -6.86      0.00
    3   11    1     -8.14      0.00
    3   11    2      4.60      0.00
    3   11    3      8.82      0.00
    3   11    4     -2.54      0.00
    3   11    5      1.32      0.00
    3   11    6     -5.08      0.00
    3   11    7     -2.57      0.00
    3   11    8     -1.05      0.00
    3   11    9     -0.04      0.00
    3   11   10      1.98      0.00
    3   11   11      0.33      0.00
    3   11   12      0.20      0.00
    3   11   13     -0.38      0.00
    3   11   14      0.53      0.00
    3   11   15     -0.53      0.00
   -3   13   17     -1.14      0.00
   -3   13   16      0.41      0.00
   -3   13   15     -1.98      0.00
   -3   13   14      0.46      0.00
   -3   13   13      2.67      0.00
   -3   13   12     -2.11      0.00
   -3   13   11      1.80      0.00
   -3   13   10     -0.48      0.00
   -3   13    9      4.44      0.00
   -3   13    8     -2.61      0.00
   -3   13    7      3.33      0.00
   -3   13    6      3.38      0.00
   -3   13    5     -6.69      0.00
   -3   13    4      2.29      0.00
   -3   13    3     -2.58      0.00
   -3   13    2      5.36      0.00
   -3   13    1      5.97      0.00
    3   13    0     -0.75      0.00
    3   13    1     -5.29      0.00
    3   13    2      4.58      0.00
    3   13    3     -0.08      0.00
    3   13    4     -0.90      0.00
    3   13    5      0.25      0.00
    3   13    6      7.65      0.00
    3   13    7      4.36      0.00
    3   13    8      3.34      0.00
    3   13    9     -0.92      0.00
    3   13   10      0.42      0.00
    3   13   11      0.56      0.00
    3   13   12      0.56      0.00
    3   13   13     -0.38      0.00
    3   13   14      0.81      0.00
   -3   15   15     -2.28      0.00
   -3   15   14      2.22      0.00
   -3   15   13      0.26      0.00
   -3   15   12      1.20      0.00
   -3   15   11      0.89      0.00
   -3   15   10     -0.70      0.00
   -3   15    9      1.80      0.00
   -3   15    8     -5.62      0.00
   -3   15    7     -1.16      0.00
   -3   15    6     -3.09      0.00
   -3   15    5      6.78      0.00
   -3   15    4     -3.85      0.00
   -3   15    3    -10.44      0.00
   -3   15    2      8.18      0.00
   -3   15    1     -0.43      0.00
    3   15    0     -3.23      0.00
    3   15    1     -1.60      0.00
    3   15    2     -4.78      0.00
    3   15    3     -1.47      0.00
    3   15    4     -3.72      0.00
    3   15    5     -3.82      0.00
    3   15    6     -4.36      0.00
    3   15    7     -0.15      0.00
    3   15    8     -4.20      0.00
    3   15    9      2.56      0.00
    3   15   10     -0.52      0.00
    3   15   11     -0.10      0.00
    3   15   12      1.38      0.00
    3   15   13      1.10      0.00
   -3   17   14     -0.32      0.00
   -3   17   13     -1.67      0.00
   -3   17   12      2.05      0.00
   -3   17   11     -2.39      0.00
   -3   17   10      1.28      0.00
   -3   17    9     -0.94      0.00
   -3   17    8      0.26      0.00
   -3   17    7      2.29      0.00
   -3   17    6     -3.53      0.00
   -3   17    5      0.62      0.00
   -3   17    4      2.70      0.00
   -3   17    3      5.06      0.00
   -3   17    2     -3.64      0.00
   -3   17    1     -5.86      0.00
    3   17    0      3.81      0.00
    3   17    1      0.82      0.00
    3   17    2      2.07      0.00
    3   17    3      0.03      0.00
    3   17    4      0.96      0.00
    3   17    5      2.57      0.00
    3   17    6     -2.62      0.00
    3   17    7     -0.97      0.00
    3   17    8      0.25      0.00
    3   17    9     -2.60      0.00
    3   17   10     -0.67      0.00
    3   17   11      0.74      0.00
   -3   19   12     -0.13      0.00
   -3   19   11      1.97      0.00
   -3   19   10      0.83      0.00
   -3   19    9     -4.10      0.00
   -3   19    8      2.45      0.00
   -3   19    7     -0.59      0.00
   -3   19    6      2.42      0.00
   -3   19    5     -2.34      0.00
   -3   19    4     -4.77      0.00
   -3   19    3      4.99      0.00
   -3   19    2      0.77      0.00
   -3   19    1      0.06      0.00
    3   19    0     -2.02      0.00
    3   19    1     -4.49      0.00
    3   19    2      0.88      0.00
    3   19    3      0.61      0.00
    3   19    4     -2.11      0.00
    3   19    5      1.19      0.00
    3   19    6      2.57      0.00
    3   19    7      0.85      0.00
    3   19    8     -2.03      0.00
    3   19    9      0.30      0.00
   -3   21    9      0.62      0.00
   -3   21    8      0.10      0.00
   -3   21    7     -2.18      0.00
   -3   21    6      1.00      0.00
   -3   21    5     -1.45      0.00
   -3   21    4      0.80      0.00
   -3   21    3      0.22      0.00
   -3   21    2      2.39      0.00
   -3   21    1      1.61      0.00
    3   21    0     -2.06      0.00
    3   21    1      0.00      0.00
    3   21    2      0.34      0.00
    3   21    3     -1.34      0.00
    3   21    4     -1.35      0.00
    3   21    5      0.88      0.00
    3   21    6      0.57      0.00
    3   23    0     -0.01      0.00
    3   23    1     -0.41      0.00
   -4    0   20      2.00      0.00
   -4    0   18     -0.70      0.00
   -4    0   16     -1.25      0.00
   -4    0   14     -4.68      0.00
   -4    0   12      6.16      0.00
   -4    0   10     13.94      0.00
   -4    0    8     12.65      0.00
   -4    0    6    -23.73      0.00
   -4    0    4     -8.22      0.00
   -4    0    2    109.49      0.00
    4    0    0     47.14      0.00
    4    0    2     20.51      0.00
    4    0    4     -4.34      0.00
    4    0    6     -0.60      0.00
    4    0    8      3.30      0.00
    4    0   10     -1.13      0.00
    4    0   12      2.81      0.00
    4    0   14      1.29      0.00
    4    0   16      1.37      0.00
   -4    2   20     -0.11      0.00
   -4    2   19     -2.77      0.00
   -4    2   18      1.71      0.00
   -4    2   17      0.90      0.00
   -4    2   16      4.14      0.00
   -4    2   15      1.57      0.00
   -4    2   14      1.61      0.00
   -4    2   13      4.64      0.00
   -4    2   12     -6.45      0.00
   -4    2   11      5.74      0.00
   -4    2   10     -4.80      0.00
   -4    2    9     -4.50      0.00
   -4    2    8      0.83      0.00
   -4    2    7    -14.49      0.00
   -4    2    6     18.61      0.00
   -4    2    5    -13.92      0.00
   -4    2    4     13.68      0.00
   -4    2    3    144.46      0.00
   -4    2    2    -18.21      0.00
   -4    2    1    -22.73      0.00
    4    2    0     27.40      0.00
    4    2    1      9.27      0.00
    4    2    2    -18.23      0.00
    4    2    3      0.38      0.00
    4    2    4     -5.10      0.00
    4    2    5      7.04      0.00
    4    2    6     -1.43      0.00
    4    2    7     -0.99      0.00
    4    2    8     -1.57      0.00
    4    2    9      5.91      0.00
    4    2   10     -0.19      0.00
    4    2   11     -0.23      0.00
    4    2   12      2.67      0.00
    4    2   13     -1.35      0.00
    4    2   14      1.04      0.00
    4    2   15     -0.98      0.00
    4    2   16      1.00      0.00
    4    2   17      0.82      0.00
   -4    4   20     -1.73      0.00
   -4    4   19      1.29      0.00
   -4    4   18     -0.80      0.00
   -4    4   17     -2.88      0.00
   -4    4   16     -4.75      0.00
   -4    4   15     -2.41      0.00
   -4    4   14      6.41      0.00
   -4    4   13     -6.96      0.00
   -4    4   12     -8.98      0.00
   -4    4   11     -4.50      0.00
   -4    4   10     -8.73      0.00
   -4    4    9     24.21      0.00
   -4    4    8     -7.48      0.00
   -4    4    7      1.69      0.00
   -4    4    6     -2.45      0.00
   -4    4    5     -2.32      0.00
   -4    4    4     -5.14      0.00
   -4    4    3    -13.86      0.00
   -4    4    2     14.67      0.00
   -4    4    1    -39.84      0.00
    4    4    0     -7.73      0.00
    4    4    1      9.39      0.00
    4    4    2     16.44      0.00
    4    4    3      3.73      0.00
    4    4    4      5.69      0.00
    4    4    5     -0.15      0.00
    4    4    6     -0.28      0.00
    4    4    7     -6.75      0.00
    4    4    8     -1.62      0.00
    4    4    9     -1.93      0.00
    4    4   10      5.98      0.00
    4    4   11      0.65      0.00
    4    4   12     -1.12      0.00
    4    4   13      0.20      0.00
    4    4   14     -1.69      0.00
    4    4   15     -0.93      0.00
    4    4   16     -0.94      0.00
    4    4   17      2.78      0.00
   -4    6   19      0.24      0.00
   -4    6   18     -2.94      0.00
   -4    6   17      1.01      0.00
   -4    6   16      0.96      0.00
   -4    6   15      2.76      0.00
   -4    6   14      0.10      0.00
   -4    6   13      0.70      0.00
   -4    6   12      6.72      0.00
   -4    6   11     -5.11      0.00
   -4    6   10      8.35      0.00
   -4    6    9      2.03      0.00
   -4    6    8     -0.85      0.00
   -4    6    7      5.92      0.00
   -4    6    6    -22.92      0.00
   -4    6    5     28.43      0.00
   -4    6    4     -8.58      0.00
   -4    6    3     -4.20      0.00
   -4    6    2    -10.89      0.00
   -4    6    1     45.79      0.00
    4    6    0     -2.86      0.00
    4    6    1      7.63      0.00
    4    6    2     -2.27      0.00
    4    6    3     12.46      0.00
    4    6    4     -0.96      0.00
    4    6    5     -1.97      0.00
    4    6    6     -1.67      0.00
    4    6    7     -3.14      0.00
    4    6    8     -0.46      0.00
    4    6    9     -4.29      0.00
    4    6   10     -2.63      0.00
    4    6   11      0.05      0.00
    4    6   12      1.81      0.00
    4    6   13     -1.95      0.00
    4    6   14     -0.01      0.00
    4    6   15      0.18      0.00
    4    6   16     -0.12      0.00
   -4    8   19     -0.97      0.00
   -4    8   18      1.23      0.00
   -4    8   17      0.50      0.00
   -4    8   16      1.57      0.00
   -4    8   15     -1.68      0.00
   -4    8   14     -5.08      0.00
   -4    8   13     -1.80      0.00
   -4    8   12     -1.40      0.00
   -4    8   11      4.44      0.00
   -4    8   10      2.13      0.00
   -4    8    9    -21.92      0.00
   -4    8    8      2.97      0.00
   -4    8    7     -5.76      0.00
   -4    8    6      3.52      0.00
   -4    8    5    -14.93      0.00
   -4    8    4     -5.19      0.00
   -4    8    3      5.43      0.00
   -4    8    2     -8.43      0.00
   -4    8    1     -1.82      0.00
    4    8    0     -6.29      0.00
    4    8    1      5.08      0.00
    4    8    2    -15.19      0.00
    4    8    3      6.22      0.00
    4    8    4      4.17      0.00
    4    8    5     -4.56      0.00
    4    8    6      7.49      0.00
    4    8    7      4.19      0.00
    4    8    8      4.18      0.00
    4    8    9      1.18      0.00
    4    8   10     -1.00      0.00
    4    8   11     -0.93      0.00
    4    8   12     -0.52      0.00
    4    8   13      1.79      0.00
    4    8   14     -1.84      0.00
    4    8   15      2.12      0.00
    4    8   16      1.50      0.00
   -4   10   18     -1.14      0.00
   -4   10   17      0.45      0.00
   -4   10   16     -2.51      0.00
   -4   10   15      1.84      0.00
   -4   10   14     -0.47      0.00
   -4   10   13      3.26      0.00
   -4   10   12     -1.11      0.00
   -4   10   11      6.17      0.00
   -4   10   10     -0.19      0.00
   -4   10    9     -1.22      0.00
   -4   10    8     -3.82      0.00
   -4   10    7     -5.88      0.00
   -4   10    6     15.78      0.00
   -4   10    5     -1.53      0.00
   -4   10    4     -2.32      0.00
   -4   10    3      2.83      0.00
   -4   10    2    -13.10      0.00
   -4   10    1      1.94      0.00
    4   10    0    -12.99      0.00
    4   10    1      7.88      0.00
    4   10    2      9.11      0.00
    4   10    3     -5.85      0.00
    4   10    4     -4.96      0.00
    4   10    5     -1.41      0.00
    4   10    6      0.25      0.00
    4   10    7      2.98      0.00
    4   10    8     -0.35      0.00
    4   10    9      4.44      0.00
    4   10   10     -1.41      0.00
    4   10   11      0.71      0.00
    4   10   12     -1.36      0.00
    4   10   13      0.57      0.00
    4   10   14     -0.38      0.00
    4   10   15     -2.60      0.00
   -4   12   17      0.52      0.00
   -4   12   16      2.91      0.00
   -4   12   15     -1.89      0.00
   -4   12   14      0.88      0.00
   -4   12   13     -0.83      0.00
   -4   12   12     -2.86      0.00
   -4   12   11     -0.62      0.00
   -4   12   10     -7.17      0.00
   -4   12    9      8.19      0.00
   -4   12    8      0.12      0.00
   -4   12    7      3.45      0.00
   -4   12    6      1.10      0.00
   -4   12    5     -5.00      0.00
   -4   12    4      3.12      0.00
   -4   12    3    -10.04      0.00
   -4   12    2     -4.89      0.00
   -4   12    1     -3.25      0.00
    4   12    0     -1.15      0.00
    4   12    1     -4.16      0.00
    4   12    2     -1.01      0.00
    4   12    3     -3.49      0.00
    4   12    4      2.17      0.00
    4   12    5      5.70      0.00
    4   12    6      1.90      0.00
    4   12    7      2.48      0.00
    4   12    8     -0.90      0.00
    4   12    9      2.12      0.00
    4   12   10      0.47      0.00
    4   12   11      2.38      0.00
    4   12   12     -0.68      0.00
    4   12   13      1.06      0.00
    4   12   14      0.64      0.00
   -4   14   16     -0.27      0.00
   -4   14   15     -1.12      0.00
   -4   14   14      0.99      0.00
   -4   14   13     -1.04      0.00
   -4   14   12      1.93      0.00
   -4   14   11     -0.65      0.00
   -4   14   10      3.71      0.00
   -4   14    9      1.97      0.00
   -4   14    8      1.06      0.00
   -4   14    7      5.89      0.00
   -4   14    6     -9.56      0.00
   -4   14    5      4.74      0.00
   -4   14    4      8.03      0.00
   -4   14    3     -1.90      0.00
   -4   14    2      7.77      0.00
   -4   14    1     -0.66      0.00
    4   14    0      0.34      0.00
    4   14    1     -3.56      0.00
    4   14    2      0.99      0.00
    4   14    3      0.47      0.00
    4   14    4     -4.26      0.00
    4   14    5     -6.85      0.00
    4   14    6     -4.51      0.00
    4   14    7     -3.83      0.00
    4   14    8      1.36      0.00
    4   14    9     -0.32      0.00
    4   14   10      2.44      0.00
    4   14   11      0.05      0.00
    4   14   12      1.38      0.00
    4   14   13      0.68      0.00
   -4   16   15      1.65      0.00
   -4   16   14      0.58      0.00
   -4   16   13      1.20      0.00
   -4   16   12      1.60      0.00
   -4   16   11     -0.25      0.00
   -4   16   10      1.76      0.00
   -4   16    9     -4.96      0.00
   -4   16    8      1.57      0.00
   -4   16    7     -0.98      0.00
   -4   16    6      3.58      0.00
   -4   16    5     -0.32      0.00
   -4   16    4     -9.63      0.00
   -4   16    3      5.67      0.00
   -4   16    2      0.15      0.00
   -4   16    1     -3.67      0.00
    4   16    0      0.81      0.00
    4   16    1     -2.42      0.00
    4   16    2      1.84      0.00
    4   16    3      2.51      0.00
    4   16    4      3.17      0.00
    4   16    5      2.62      0.00
    4   16    6     -2.96      0.00
    4   16    7     -1.02      0.00
    4   16    8     -1.90      0.00
    4   16    9     -0.23      0.00
    4   16   10      0.36      0.00
    4   16   11      0.90      0.00
    4   16   12     -3.07      0.00
   -4   18   13      2.13      0.00
   -4   18   12     -2.85      0.00
   -4   18   11     -0.30      0.00
   -4   18   10     -0.64      0.00
   -4   18    9     -0.57      0.00
   -4   18    8     -0.50      0.00
   -4   18    7     -1.60      0.00
   -4   18    6     -0.66      0.00
   -4   18    5      0.39      0.00
   -4   18    4     -3.74      0.00
   -4   18    3     -2.07      0.00
   -4   18    2     -2.35      0.00
   -4   18    1      3.59      0.00
    4   18    0     -0.42      0.00
    4   18    1     -0.82      0.00
    4   18    2     -4.49      0.00
    4   18    3      1.27      0.00
    4   18    4     -2.04      0.00
    4   18    5      0.40      0.00
    4   18    6     -1.29      0.00
    4   18    7      0.52      0.00
    4   18    8     -0.52      0.00
    4   18    9      6.79      0.00
   -4   20   10     -1.47      0.00
   -4   20    9      0.17      0.00
   -4   20    8     -0.33      0.00
   -4   20    7     -0.32      0.00
   -4   20    6      0.22      0.00
   -4   20    5     -1.02      0.00
   -4   20    4      2.59      0.00
   -4   20    3     -0.17      0.00
   -4   20    2     -2.59      0.00
   -4   20    1      0.56      0.00
    4   20    0      1.43      0.00
    4   20    1      0.88      0.00
    4   20    2     -1.00      0.00
    4   20    3     -0.87      0.00
    4   20    4     -0.06      0.00
    4   20    5      0.53      0.00
    4   20    6     -4.64      0.00
    4   20    7      0.45      0.00
   -4   22    5      1.80      0.00
   -4   22    4     -2.51      0.00
   -4   22    3      3.07      0.00
   -4   22    2     -1.76      0.00
   -4   22    1     -0.25      0.00
    4   22    0      0.43      0.00
    4   22    1     -4.18      0.00
    4   22    2      0.36      0.00
    4   22    3      4.19      0.00
   -5    1   20      1.95      0.00
   -5    1   19     -1.01      0.00
   -5    1   18     -0.28      0.00
   -5    1   17     -1.47      0.00
   -5    1   16     -0.51      0.00
   -5    1   15     -4.24      0.00
   -5    1   14     -4.34      0.00
   -5    1   13     11.35      0.00
   -5    1   12      1.23      0.00
   -5    1   11      5.01      0.00
   -5    1   10     -5.07      0.00
   -5    1    9     14.32      0.00
   -5    1    8      3.84      0.00
   -5    1    7     12.08      0.00
   -5    1    6     14.02      0.00
   -5    1    5     33.02      0.00
   -5    1    4    -26.75      0.00
   -5    1    3     44.99      0.00
   -5    1    2     59.13      0.00
   -5    1    1    -20.03      0.00
    5    1    0     26.45      0.00
    5    1    1     -6.19      0.00
    5    1    2      0.93      0.00
    5    1    3      4.17      0.00
    5    1    4     -1.88      0.00
    5    1    5     -8.18      0.00
    5    1    6      2.90      0.00
    5    1    7      6.79      0.00
    5    1    8      4.64      0.00
    5    1    9      5.57      0.00
    5    1   10      0.69      0.00
    5    1   11      2.35      0.00
    5    1   12      3.04      0.00
    5    1   13      1.56      0.00
    5    1   14      1.05      0.00
    5    1   15     -1.14      0.00
    5    1   16      0.65      0.00
   -5    3   20     -1.70      0.00
   -5    3   19      1.25      0.00
   -5    3   18      0.50      0.00
   -5    3   17      0.29      0.00
   -5    3   16      2.36      0.00
   -5    3   15     -5.18      0.00
   -5    3   14      7.08      0.00
   -5    3   13      3.47      0.00
   -5    3   12     -2.44      0.00
   -5    3   11     -2.82      0.00
   -5    3   10     -8.79      0.00
   -5    3    9     -3.51      0.00
   -5    3    8     -1.29      0.00
   -5    3    7     14.50      0.00
   -5    3    6    -14.54      0.00
   -5    3    5      3.50      0.00
   -5    3    4     21.04      0.00
   -5    3    3      3.22      0.00
   -5    3    2      8.20      0.00
   -5    3    1     28.27      0.00
    5    3    0     11.71      0.00
    5    3    1     25.24      0.00
    5    3    2      5.57      0.00
    5    3    3      6.86      0.00
    5    3    4     -4.46      0.00
    5    3    5     -5.87      0.00
    5    3    6    -10.20      0.00
    5    3    7     -1.09      0.00
    5    3    8     -5.10      0.00
    5    3    9      0.28      0.00
    5    3   10      1.01      0.00
    5    3   11     -7.48      0.00
    5    3   12     -0.46      0.00
    5    3   13     -1.89      0.00
    5    3   14      0.24      0.00
    5    3   15      0.01      0.00
    5    3   16      0.46      0.00
   -5    5   20     -0.46      0.00
   -5    5   19      1.64      0.00
   -5    5   18     -1.65      0.00
   -5    5   17     -0.03      0.00
   -5    5   16     -1.60      0.00
   -5    5   15      5.40      0.00
   -5    5   14     -1.61      0.00
   -5    5   13    -10.90      0.00
   -5    5   12     -1.04      0.00
   -5    5   11     -2.23      0.00
   -5    5   10      9.36      0.00
   -5    5    9      2.55      0.00
   -5    5    8     -1.36      0.00
   -5    5    7     11.17      0.00
   -5    5    6    -11.65      0.00
   -5    5    5     12.86      0.00
   -5    5    4     10.24      0.00
   -5    5    3     33.28      0.00
   -5    5    2    -42.20      0.00
   -5    5    1    -13.62      0.00
    5    5    0      3.14      0.00
    5    5    1     21.57      0.00
    5    5    2    -10.03      0.00
    5    5    3      8.29      0.00
    5    5    4     -7.05      0.00
    5    5    5      9.87      0.00
    5    5    6      4.40      0.00
    5    5    7     -5.09      0.00
    5    5    8      3.81      0.00
    5    5    9     -5.52      0.00
    5    5   10      3.13      0.00
    5    5   11      2.43      0.00
    5    5   12     -1.22      0.00
    5    5   13      0.66      0.00
    5    5   14     -0.61      0.00
    5    5   15      2.56      0.00
    5    5   16     -1.54      0.00
   -5    7   19     -0.98      0.00
   -5    7   18     -0.74      0.00
   -5    7   17      0.62      0.00
   -5    7   16      0.36      0.00
   -5    7   15      1.65      0.00
   -5    7   14     -3.42      0.00
   -5    7   13     -0.90      0.00
   -5    7   12     -2.26      0.00
   -5    7   11      0.82      0.00
   -5    7   10     14.72      0.00
   -5    7    9     -0.17      0.00
   -5    7    8      4.97      0.00
   -5    7    7    -15.29      0.00
   -5    7    6      9.68      0.00
   -5    7    5     -0.49      0.00
   -5    7    4    -18.52      0.00
   -5    7    3     -2.28      0.00
   -5    7    2    -14.16      0.00
   -5    7    1     -4.28      0.00
    5    7    0    -24.85      0.00
    5    7    1     -3.22      0.00
    5    7    2      6.44      0.00
    5    7    3     -4.30      0.00
    5    7    4      8.86      0.00
    5    7    5     -2.01      0.00
    5    7    6      6.15      0.00
    5    7    7     -0.03      0.00
    5    7    8     -2.81      0.00
    5    7    9      0.99      0.00
    5    7   10     -5.85      0.00
    5    7   11      0.27      0.00
    5    7   12      3.02      0.00
    5    7   13      0.91      0.00
    5    7   14      1.59      0.00
    5    7   15      0.55      0.00
   -5    9   18      0.25      0.00
   -5    9   17      0.65      0.00
   -5    9   16     -1.02      0.00
   -5    9   15     -0.91      0.00
   -5    9   14     -2.15      0.00
   -5    9   13      7.32      0.00
   -5    9   12      1.06      0.00
   -5    9   11      5.50      0.00
   -5    9   10     -8.15      0.00
   -5    9    9      1.90      0.00
   -5    9    8     -1.16      0.00
   -5    9    7    -16.21      0.00
   -5    9    6     -0.29      0.00
   -5    9    5     -1.86      0.00
   -5    9    4      3.13      0.00
   -5    9    3     -0.88      0.00
   -5    9    2      0.00      0.00
   -5    9    1     14.12      0.00
    5    9    0      8.72      0.00
    5    9    1     -5.68      0.00
    5    9    2     -1.39      0.00
    5    9    3     -4.41      0.00
    5    9    4     -2.30      0.00
    5    9    5      5.09      0.00
    5    9    6      0.23      0.00
    5    9    7      6.68      0.00
    5    9    8      4.09      0.00
    5    9    9      1.94      0.00
    5    9   10      0.23      0.00
    5    9   11     -2.27      0.00
    5    9   12      0.70      0.00
    5    9   13     -1.03      0.00
    5    9   14     -0.67      0.00
   -5   11   18     -0.48      0.00
   -5   11   17     -0.67      0.00
   -5   11   16      1.61      0.00
   -5   11   15     -1.77      0.00
   -5   11   14      4.60      0.00
   -5   11   13      2.34      0.00
   -5   11   12      0.73      0.00
   -5   11   11      0.12      0.00
   -5   11   10     -8.49      0.00
   -5   11    9     -3.17      0.00
   -5   11    8     -7.29      0.00
   -5   11    7     12.63      0.00
   -5   11    6      3.14      0.00
   -5   11    5     -2.12      0.00
   -5   11    4      4.28      0.00
   -5   11    3     -2.57      0.00
   -5   11    2      7.07      0.00
   -5   11    1     -3.02      0.00
    5   11    0    -12.36      0.00
    5   11    1     -0.37      0.00
    5   11    2     -5.63      0.00
    5   11    3      6.24      0.00
    5   11    4      1.21      0.00
    5   11    5     -5.35      0.00
    5   11    6     -2.10      0.00
    5   11    7     -1.32      0.00
    5   11    8      3.15      0.00
    5   11    9      4.52      0.00
    5   11   10      3.26      0.00
    5   11   11      0.16      0.00
    5   11   12      0.17      0.00
    5   11   13      1.74      0.00
    5   11   14     -1.23      0.00
   -5   13   17      0.96      0.00
   -5   13   16     -1.20      0.00
   -5   13   15      1.60      0.00
   -5   13   14     -2.71      0.00
   -5   13   13     -4.17      0.00
   -5   13   12      0.76      0.00
   -5   13   11     -4.11      0.00
   -5   13   10      1.75      0.00
   -5   13    9     -0.46      0.00
   -5   13    8      0.41      0.00
   -5   13    7      5.88      0.00
   -5   13    6     -0.89      0.00
   -5   13    5     -5.80      0.00
   -5   13    4     -6.57      0.00
   -5   13    3     -7.44      0.00
   -5   13    2     -3.14      0.00
   -5   13    1     -0.78      0.00
    5   13    0     -1.20      0.00
    5   13    1      2.11      0.00
    5   13    2      6.01      0.00
    5   13    3     -4.73      0.00
    5   13    4     -1.00      0.00
    5   13    5     -3.68      0.00
    5   13    6     -2.76      0.00
    5   13    7     -1.63      0.00
    5   13    8     -1.16      0.00
    5   13    9      0.74      0.00
    5   13   10     -1.01      0.00
    5   13   11      0.51      0.00
    5   13   12     -1.04      0.00
    5   13   13      2.15      0.00
   -5   15   16     -0.85      0.00
   -5   15   15      1.54      0.00
   -5   15   14     -1.02      0.00
   -5   15   13      0.15      0.00
   -5   15   12      0.85      0.00
   -5   15   11      0.01      0.00
   -5   15   10      1.43      0.00
   -5   15    9     -0.80      0.00
   -5   15    8      1.78      0.00
   -5   15    7     -4.23      0.00
   -5   15    6     -0.04      0.00
   -5   15    5      5.46      0.00
   -5   15    4     -1.51      0.00
   -5   15    3      2.00      0.00
   -5   15    2     -0.88      0.00
   -5   15    1     -1.59      0.00
    5   15    0     -0.82      0.00
    5   15    1     -0.97      0.00
    5   15    2      2.12      0.00
    5   15    3      2.57      0.00
    5   15    4      1.91      0.00
    5   15    5      2.36      0.00
    5   15    6     -2.20      0.00
    5   15    7     -0.94      0.00
    5   15    8     -0.28      0.00
    5   15    9     -0.76      0.00
    5   15   10      0.11      0.00
    5   15   11     -0.29      0.00
    5   15   12     -1.06      0.00
   -5   17   14     -0.91      0.00
   -5   17   13      2.19      0.00
   -5   17   12      0.40      0.00
   -5   17   11      0.66      0.00
   -5   17   10     -2.07      0.00
   -5   17    9      2.34      0.00
   -5   17    8      0.26      0.00
   -5   17    7      2.08      0.00
   -5   17    6      1.51      0.00
   -5   17    5     -1.45      0.00
   -5   17    4      2.40      0.00
   -5   17    3      1.48      0.00
   -5   17    2     -5.23      0.00
   -5   17    1      0.07      0.00
    5   17    0      0.01      0.00
    5   17    1     -5.60      0.00
    5   17    2      0.32      0.00
    5   17    3     -0.95      0.00
    5   17    4     -4.17      0.00
    5   17    5      0.90      0.00
    5   17    6      3.84      0.00
    5   17    7     -2.23      0.00
    5   17    8      0.83      0.00
    5   17    9     -2.08      0.00
    5   17   10     -2.17      0.00
   -5   19   12     -1.91      0.00
   -5   19   11      0.47      0.00
   -5   19   10     -0.63      0.00
   -5   19    9      0.33      0.00
   -5   19    8     -0.36      0.00
   -5   19    7     -1.13      0.00
   -5   19    6     -1.79      0.00
   -5   19    5     -4.22      0.00
   -5   19    4      0.12      0.00
   -5   19    3      0.55      0.00
   -5   19    2      0.36      0.00
   -5   19    1      0.24      0.00
    5   19    0      0.65      0.00
    5   19    1     -0.84      0.00
    5   19    2     -2.49      0.00
    5   19    3      0.06      0.00
    5   19    4      0.78      0.00
    5   19    5      0.99      0.00
    5   19    6     -1.43      0.00
    5   19    7      5.58      0.00
   -5   21    8     -1.58      0.00
   -5   21    7      1.69      0.00
   -5   21    6     -1.86      0.00
   -5   21    5      2.41      0.00
   -5   21    4     -2.26      0.00
   -5   21    3     -0.98      0.00
   -5   21    2     -0.76      0.00
   -5   21    1      0.00      0.00
    5   21    0     -3.76      0.00
    5   21    1      0.07      0.00
    5   21    2      2.40      0.00
    5   21    3      1.05      0.00
    5   21    4     -3.72      0.00
   -6    0   20      0.15      0.00
   -6    0   18      2.80      0.00
   -6    0   16      1.63      0.00
   -6    0   14     -8.97      0.00
   -6    0   12     -0.20      0.00
   -6    0   10    -22.42      0.00
   -6    0    8    -29.37      0.00
   -6    0    6    -30.33      0.00
   -6    0    4     35.69      0.00
   -6    0    2     71.01      0.00
    6    0    0     25.78      0.00
    6    0    2      5.45      0.00
    6    0    4    -17.23      0.00
    6    0    6     13.33      0.00
    6    0    8      7.61      0.00
    6    0   10      4.88      0.00
    6    0   12      6.90      0.00
    6    0   14      0.42      0.00
   -6    2   20     -1.69      0.00
   -6    2   19      2.29      0.00
   -6    2   18     -0.31      0.00
   -6    2   17     -2.12      0.00
   -6    2   16     -0.61      0.00
   -6    2   15     -1.32      0.00
   -6    2   14      0.23      0.00
   -6    2   13      3.15      0.00
   -6    2   12     -0.40      0.00
   -6    2   11    -10.04      0.00
   -6    2   10     11.34      0.00
   -6    2    9      4.35      0.00
   -6    2    8     -1.83      0.00
   -6    2    7     37.48      0.00
   -6    2    6     10.96      0.00
   -6    2    5     23.17      0.00
   -6    2    4     -4.81      0.00
   -6    2    3     38.40      0.00
   -6    2    2    -22.20      0.00
   -6    2    1      0.78      0.00
    6    2    0     24.95      0.00
    6    2    1     13.19      0.00
    6    2    2     -6.30      0.00
    6    2    3      0.15      0.00
    6    2    4     -2.58      0.00
    6    2    5    -11.37      0.00
    6    2    6     -7.34      0.00
    6    2    7     -4.20      0.00
    6    2    8     -2.97      0.00
    6    2    9      1.49      0.00
    6    2   10     -6.88      0.00
    6    2   11     -3.57      0.00
    6    2   12      0.72      0.00
    6    2   13     -0.14      0.00
    6    2   14      2.46      0.00
    6    2   15     -1.49      0.00
    6    2   16      2.33      0.00
   -6    4   20      0.19      0.00
   -6    4   19     -0.17      0.00
   -6    4   18     -3.50      0.00
   -6    4   17      0.62      0.00
   -6    4   16     -3.39      0.00
   -6    4   15      1.03      0.00
   -6    4   14      6.70      0.00
   -6    4   13     -0.49      0.00
   -6    4   12     -1.97      0.00
   -6    4   11     -2.96      0.00
   -6    4   10      3.61      0.00
   -6    4    9     -0.96      0.00
   -6    4    8     12.41      0.00
   -6    4    7     -9.18      0.00
   -6    4    6     -2.56      0.00
   -6    4    5      0.96      0.00
   -6    4    4    -16.35      0.00
   -6    4    3     21.13      0.00
   -6    4    2     23.40      0.00
   -6    4    1     -0.21      0.00
    6    4    0      3.13      0.00
    6    4    1     -3.22      0.00
    6    4    2      3.82      0.00
    6    4    3      1.88      0.00
    6    4    4     16.27      0.00
    6    4    5      7.08      0.00
    6    4    6     -3.52      0.00
    6    4    7      1.04      0.00
    6    4    8      1.74      0.00
    6    4    9     -0.20      0.00
    6    4   10      6.65      0.00
    6    4   11     -0.58      0.00
    6    4   12      0.04      0.00
    6    4   13     -0.56      0.00
    6    4   14      0.13      0.00
    6    4   15     -0.34      0.00
   -6    6   20      0.09      0.00
   -6    6   19     -0.66      0.00
   -6    6   18     -1.27      0.00
   -6    6   17      1.15      0.00
   -6    6   16      1.14      0.00
   -6    6   15      0.73      0.00
   -6    6   14     -2.06      0.00
   -6    6   13     -0.19      0.00
   -6    6   12      0.74      0.00
   -6    6   11     -1.29      0.00
   -6    6   10     -5.01      0.00
   -6    6    9     -2.26      0.00
   -6    6    8     11.49      0.00
   -6    6    7     -1.02      0.00
   -6    6    6     -2.90      0.00
   -6    6    5     13.08      0.00
   -6    6    4      6.03      0.00
   -6    6    3      4.41      0.00
   -6    6    2    -23.10      0.00
   -6    6    1     13.91      0.00
    6    6    0    -27.68      0.00
    6    6    1     30.83      0.00
    6    6    2     -9.05      0.00
    6    6    3     20.06      0.00
    6    6    4    -10.62      0.00
    6    6    5      3.52      0.00
    6    6    6      3.99      0.00
    6    6    7     -4.33      0.00
    6    6    8     -1.35      0.00
    6    6    9     -4.92      0.00
    6    6   10     -1.08      0.00
    6    6   11      3.68      0.00
    6    6   12      1.26      0.00
    6    6   13      2.11      0.00
    6    6   14     -0.54      0.00
    6    6   15     -2.59      0.00
   -6    8   19      0.64      0.00
   -6    8   18      1.02      0.00
   -6    8   17      1.05      0.00
   -6    8   16     -0.33      0.00
   -6    8   15     -1.46      0.00
   -6    8   14     -6.20      0.00
   -6    8   13     -0.48      0.00
   -6    8   12     -1.73      0.00
   -6    8   11      9.74      0.00
   -6    8   10     -0.18      0.00
   -6    8    9      3.44      0.00
   -6    8    8      0.40      0.00
   -6    8    7     -4.09      0.00
   -6    8    6     -2.08      0.00
   -6    8    5    -15.15      0.00
   -6    8    4      3.22      0.00
   -6    8    3    -16.21      0.00
   -6    8    2    -25.02      0.00
   -6    8    1    -15.15      0.00
    6    8    0    -17.86      0.00
    6    8    1     -8.70      0.00
    6    8    2      3.05      0.00
    6    8    3     -9.13      0.00
    6    8    4      7.60      0.00
    6    8    5     -4.10      0.00
    6    8    6      7.98      0.00
    6    8    7      7.35      0.00
    6    8    8      1.22      0.00
    6    8    9      2.89      0.00
    6    8   10     -3.50      0.00
    6    8   11     -1.86      0.00
    6    8   12     -2.00      0.00
    6    8   13     -0.41      0.00
    6    8   14      0.24      0.00
   -6   10   18     -1.07      0.00
   -6   10   17     -0.31      0.00
   -6   10   16     -0.93      0.00
   -6   10   15     -0.89      0.00
   -6   10   14      3.26      0.00
   -6   10   13      3.65      0.00
   -6   10   12      4.84      0.00
   -6   10   11      1.94      0.00
   -6   10   10      2.08      0.00
   -6   10    9      2.74      0.00
   -6   10    8    -19.64      0.00
   -6   10    7     -0.56      0.00
   -6   10    6     -2.01      0.00
   -6   10    5      0.70      0.00
   -6   10    4     -1.91      0.00
   -6   10    3     -9.15      0.00
   -6   10    2      5.09      0.00
   -6   10    1     14.77      0.00
    6   10    0     10.57      0.00
    6   10    1    -10.67      0.00
    6   10    2      8.48      0.00
    6   10    3      0.17      0.00
    6   10    4     -7.75      0.00
    6   10    5     -1.31      0.00
    6   10    6     -7.15      0.00
    6   10    7      4.35      0.00
    6   10    8      2.10      0.00
    6   10    9      4.45      0.00
    6   10   10      0.43      0.00
    6   10   11     -0.91      0.00
    6   10   12      2.03      0.00
    6   10   13     -2.24      0.00
   -6   12   17     -0.05      0.00
   -6   12   16     -3.68      0.00
   -6   12   15      4.55      0.00
   -6   12   14      5.21      0.00
   -6   12   13     -0.38      0.00
   -6   12   12      0.19      0.00
   -6   12   11     -3.62      0.00
   -6   12   10     -0.57      0.00
   -6   12    9     -3.57      0.00
   -6   12    8      4.96      0.00
   -6   12    7     -1.13      0.00
   -6   12    6      7.43      0.00
   -6   12    5      8.59      0.00
   -6   12    4      3.34      0.00
   -6   12    3      7.53      0.00
   -6   12    2      0.45      0.00
   -6   12    1     -2.48      0.00
    6   12    0      3.91      0.00
    6   12    1      5.43      0.00
    6   12    2     -7.18      0.00
    6   12    3      3.54      0.00
    6   12    4      1.13      0.00
    6   12    5      0.90      0.00
    6   12    6     -3.53      0.00
    6   12    7     -3.93      0.00
    6   12    8     -1.14      0.00
    6   12    9     -2.65      0.00
    6   12   10      1.71      0.00
    6   12   11     -1.46      0.00
    6   12   12     -0.03      0.00
    6   12   13      0.41      0.00
   -6   14   16     -0.65      0.00
   -6   14   15     -0.90      0.00
   -6   14   14     -1.53      0.00
   -6   14   13     -0.23      0.00
   -6   14   12     -1.64      0.00
   -6   14   11      0.19      0.00
   -6   14   10     -2.00      0.00
   -6   14    9      1.45      0.00
   -6   14    8      3.12      0.00
   -6   14    7      3.46      0.00
   -6   14    6      0.64      0.00
   -6   14    5     -6.78      0.00
   -6   14    4     -1.91      0.00
   -6   14    3      0.30      0.00
   -6   14    2      0.06      0.00
   -6   14    1     -2.27      0.00
    6   14    0     -2.55      0.00
    6   14    1      0.83      0.00
    6   14    2      2.50      0.00
    6   14    3     -1.45      0.00
    6   14    4      5.09      0.00
    6   14    5     -0.83      0.00
    6   14    6      2.47      0.00
    6   14    7     -3.12      0.00
    6   14    8      1.00      0.00
    6   14    9     -0.74      0.00
    6   14   10      1.03      0.00
    6   14   11      1.29      0.00
    6   14   12     -1.07      0.00
   -6   16   15      0.25      0.00
   -6   16   14     -0.18      0.00
   -6   16   13     -1.25      0.00
   -6   16   12      0.32      0.00
   -6   16   11     -1.61      0.00
   -6   16   10     -1.52      0.00
   -6   16    9      0.65      0.00
   -6   16    8     -1.83      0.00
   -6   16    7      0.36      0.00
   -6   16    6      0.69      0.00
   -6   16    5     -3.45      0.00
   -6   16    4     -0.32      0.00
   -6   16    3      0.45      0.00
   -6   16    2     -2.77      0.00
   -6   16    1      2.45      0.00
    6   16    0     -2.79      0.00
    6   16    1     -1.04      0.00
    6   16    2      1.37      0.00
    6   16    3     -4.67      0.00
    6   16    4     -0.29      0.00
    6   16    5      4.53      0.00
    6   16    6     -2.60      0.00
    6   16    7     -1.59      0.00
    6   16    8     -1.20      0.00
    6   16    9      1.32      0.00
    6   16   10     -0.01      0.00
   -6   18   13      1.63      0.00
   -6   18   12     -1.03      0.00
   -6   18   11      0.41      0.00
   -6   18   10      1.03      0.00
   -6   18    9     -0.14      0.00
   -6   18    8     -0.41      0.00
   -6   18    7      2.57      0.00
   -6   18    6     -0.13      0.00
   -6   18    5     -1.42      0.00
   -6   18    4      1.31      0.00
   -6   18    3     -5.71      0.00
   -6   18    2     -0.73      0.00
   -6   18    1     -0.47      0.00
    6   18    0     -1.39      0.00
    6   18    1     -2.66      0.00
    6   18    2     -0.14      0.00
    6   18    3      3.80      0.00
    6   18    4     -0.40      0.00
    6   18    5     -2.52      0.00
    6   18    6      2.67      0.00
    6   18    7     -1.46      0.00
    6   18    8      1.50      0.00
   -6   20   10     -2.80      0.00
   -6   20    9     -1.08      0.00
   -6   20    8     -1.24      0.00
   -6   20    7     -0.30      0.00
   -6   20    6     -2.03      0.00
   -6   20    5      3.12      0.00
   -6   20    4      0.30      0.00
   -6   20    3     -1.94      0.00
   -6   20    2      0.01      0.00
   -6   20    1      0.83      0.00
    6   20    0      0.91      0.00
    6   20    1      0.07      0.00
    6   20    2      1.48      0.00
    6   20    3     -2.40      0.00
    6   20    4      0.83      0.00
    6   20    5      1.01      0.00
   -6   22    5     -2.30      0.00
   -6   22    4      1.13      0.00
   -6   22    3     -2.85      0.00
   -6   22    2     -0.80      0.00
   -6   22    1     -3.50      0.00
    6   22    0      0.32      0.00
    6   22    1     -4.77      0.00
   -7    1   20     -3.62      0.00
   -7    1   19      2.99      0.00
   -7    1   18      0.99      0.00
   -7    1   17      0.52      0.00
   -7    1   16     -2.69      0.00
   -7    1   15      0.32      0.00
   -7    1   14     -2.23      0.00
   -7    1   13      0.14      0.00
   -7    1   12      7.01      0.00
   -7    1   11    -14.44      0.00
   -7    1   10     -5.71      0.00
   -7    1    9     -5.89      0.00
   -7    1    8    -23.93      0.00
   -7    1    7      0.73      0.00
   -7    1    6    -10.91      0.00
   -7    1    5     49.86      0.00
   -7    1    4      6.96      0.00
   -7    1    3     37.46      0.00
   -7    1    2     23.52      0.00
   -7    1    1     -8.74      0.00
    7    1    0     15.70      0.00
    7    1    1     -0.57      0.00
    7    1    2     -6.63      0.00
    7    1    3      5.81      0.00
    7    1    4     -6.42      0.00
    7    1    5     -9.68      0.00
    7    1    6     -0.44      0.00
    7    1    7      0.98      0.00
    7    1    8      1.65      0.00
    7    1    9     -4.44      0.00
    7    1   10      0.52      0.00
    7    1   11     -2.43      0.00
    7    1   12      2.63      0.00
    7    1   13     -0.29      0.00
    7    1   14      0.45      0.00
    7    1   15      3.92      0.00
   -7    3   20      2.32      0.00
   -7    3   19      2.14      0.00
   -7    3   18     -1.63      0.00
   -7    3   17     -2.67      0.00
   -7    3   16      2.27      0.00
   -7    3   15     -3.65      0.00
   -7    3   14     -3.25      0.00
   -7    3   13     -3.04      0.00
   -7    3   12     -5.35      0.00
   -7    3   11     -4.19      0.00
   -7    3   10      9.17      0.00
   -7    3    9    -14.29      0.00
   -7    3    8     22.54      0.00
   -7    3    7      1.42      0.00
   -7    3    6      5.94      0.00
   -7    3    5     19.32      0.00
   -7    3    4      4.24      0.00
   -7    3    3     -8.09      0.00
   -7    3    2     -5.64      0.00
   -7    3    1     15.43      0.00
    7    3    0     -4.24      0.00
    7    3    1     17.74      0.00
    7    3    2      8.42      0.00
    7    3    3     11.53      0.00
    7    3    4      4.78      0.00
    7    3    5     -1.81      0.00
    7    3    6     -0.88      0.00
    7    3    7      1.35      0.00
    7    3    8     -0.40      0.00
    7    3    9      4.10      0.00
    7    3   10      2.38      0.00
    7    3   11     -2.98      0.00
    7    3   12      0.20      0.00
    7    3   13     -1.85      0.00
    7    3   14      0.64      0.00
    7    3   15     -0.53      0.00
   -7    5   20      0.34      0.00
   -7    5   19      0.39      0.00
   -7    5   18     -1.71      0.00
   -7    5   17      1.29      0.00
   -7    5   16      2.30      0.00
   -7    5   15      0.16      0.00
   -7    5   14     -0.89      0.00
   -7    5   13      0.89      0.00
   -7    5   12     -0.82      0.00
   -7    5   11     11.71      0.00
   -7    5   10      3.20      0.00
   -7    5    9      2.40      0.00
   -7    5    8     -5.22      0.00
   -7    5    7     14.32      0.00
   -7    5    6      6.31      0.00
   -7    5    5     -8.37      0.00
   -7    5    4     -2.63      0.00
   -7    5    3     22.00      0.00
   -7    5    2    -12.07      0.00
   -7    5    1      8.57      0.00
    7    5    0     12.54      0.00
    7    5    1      5.04      0.00
    7    5    2      7.52      0.00
    7    5    3     -7.00      0.00
    7    5    4      2.58      0.00
    7    5    5      7.93      0.00
    7    5    6      3.13      0.00
    7    5    7     -6.78      0.00
    7    5    8      0.33      0.00
    7    5    9     -1.88      0.00
    7    5   10      0.25      0.00
    7    5   11     -0.53      0.00
    7    5   12      0.47      0.00
    7    5   13      2.38      0.00
    7    5   14     -0.19      0.00
    7    5   15     -1.10      0.00
   -7    7   20     -2.39      0.00
   -7    7   19     -2.21      0.00
   -7    7   18     -0.62      0.00
   -7    7   17     -0.13      0.00
   -7    7   16     -2.41      0.00
   -7    7   15      1.10      0.00
   -7    7   14      0.08      0.00
   -7    7   13      1.78      0.00
   -7    7   12     -3.03      0.00
   -7    7   11     -2.03      0.00
   -7    7   10     -4.75      0.00
   -7    7    9      6.46      0.00
   -7    7    8      1.76      0.00
   -7    7    7     -2.05      0.00
   -7    7    6      0.33      0.00
   -7    7    5     -7.54      0.00
   -7    7    4     -1.49      0.00
   -7    7    3      0.92      0.00
   -7    7    2     -0.72      0.00
   -7    7    1     -5.85      0.00
    7    7    0    -25.24      0.00
    7    7    1      6.32      0.00
    7    7    2    -14.77      0.00
    7    7    3      6.80      0.00
    7    7    4     -4.20      0.00
    7    7    5      1.38      0.00
    7    7    6      4.73      0.00
    7    7    7      3.14      0.00
    7    7    8     -1.38      0.00
    7    7    9     -0.25      0.00
    7    7   10     -4.03      0.00
    7    7   11     -1.30      0.00
    7    7   12     -1.46      0.00
    7    7   13      0.14      0.00
    7    7   14      5.95      0.00
   -7    9   19      1.32      0.00
   -7    9   18      0.09      0.00
   -7    9   17      0.99      0.00
   -7    9   16     -1.89      0.00
   -7    9   15     -1.18      0.00
   -7    9   14     -0.74      0.00
   -7    9   13     -1.48      0.00
   -7    9   12      4.38      0.00
   -7    9   11     -1.91      0.00
   -7    9   10     -2.83      0.00
   -7    9    9      7.14      0.00
   -7    9    8     -3.75      0.00
   -7    9    7     -4.73      0.00
   -7    9    6     -8.32      0.00
   -7    9    5      4.15      0.00
   -7    9    4     -0.32      0.00
   -7    9    3    -13.06      0.00
   -7    9    2    -13.69      0.00
   -7    9    1    -15.83      0.00
    7    9    0     -6.81      0.00
    7    9    1      1.26      0.00
    7    9    2      1.93      0.00
    7    9    3     -5.70      0.00
    7    9    4      1.45      0.00
    7    9    5     -5.79      0.00
    7    9    6     -2.03      0.00
    7    9    7      4.55      0.00
    7    9    8      0.28      0.00
    7    9    9      0.94      0.00
    7    9   10      0.01      0.00
    7    9   11      0.36      0.00
    7    9   12     -0.51      0.00
    7    9   13      0.02      0.00
   -7   11   18      0.98      0.00
   -7   11   17      1.01      0.00
   -7   11   16     -1.40      0.00
   -7   11   15     -1.41      0.00
   -7   11   14      0.32      0.00
   -7   11   13      2.95      0.00
   -7   11   12      3.76      0.00
   -7   11   11     -1.10      0.00
   -7   11   10      0.42      0.00
   -7   11    9    -10.18      0.00
   -7   11    8      1.23      0.00
   -7   11    7     -6.25      0.00
   -7   11    6     -3.37      0.00
   -7   11    5     -3.26      0.00
   -7   11    4     -9.51      0.00
   -7   11    3     -3.03      0.00
   -7   11    2      4.06      0.00
   -7   11    1      1.41      0.00
    7   11    0      7.91      0.00
    7   11    1    -10.64      0.00
    7   11    2      4.72      0.00
    7   11    3      0.86      0.00
    7   11    4     -0.38      0.00
    7   11    5      1.45      0.00
    7   11    6     -5.86      0.00
    7   11    7      1.52      0.00
    7   11    8     -0.90      0.00
    7   11    9      2.83      0.00
    7   11   10      0.09      0.00
    7   11   11     -0.02      0.00
    7   11   12     -0.53      0.00
   -7   13   17     -1.89      0.00
   -7   13   16      1.56      0.00
   -7   13   15      2.87      0.00
   -7   13   14     -0.32      0.00
   -7   13   13      3.26      0.00
   -7   13   12     -1.16      0.00
   -7   13   11      1.41      0.00
   -7   13   10     -2.65      0.00
   -7   13    9      0.29      0.00
   -7   13    8     -4.68      0.00
   -7   13    7      1.39      0.00
   -7   13    6     12.22      0.00
   -7   13    5      0.27      0.00
   -7   13    4      3.95      0.00
   -7   13    3     -0.65      0.00
   -7   13    2      2.87      0.00
   -7   13    1      6.56      0.00
    7   13    0      4.82      0.00
    7   13    1      4.74      0.00
    7   13    2     -3.54      0.00
    7   13    3      5.19      0.00
    7   13    4     -1.59      0.00
    7   13    5      4.90      0.00
    7   13    6     -0.52      0.00
    7   13    7     -0.89      0.00
    7   13    8      2.08      0.00
    7   13    9     -1.18      0.00
    7   13   10      1.77      0.00
    7   13   11     -0.16      0.00
   -7   15   16     -0.07      0.00
   -7   15   15      0.02      0.00
   -7   15   14      2.89      0.00
   -7   15   13     -1.58      0.00
   -7   15   12      2.12      0.00
   -7   15   11     -1.95      0.00
   -7   15   10      0.12      0.00
   -7   15    9      1.85      0.00
   -7   15    8     -0.17      0.00
   -7   15    7      4.60      0.00
   -7   15    6      0.14      0.00
   -7   15    5     -0.84      0.00
   -7   15    4      3.59      0.00
   -7   15    3      0.72      0.00
   -7   15    2     -4.23      0.00
   -7   15    1      0.53      0.00
    7   15    0     -1.64      0.00
    7   15    1      2.84      0.00
    7   15    2     -3.34      0.00
    7   15    3     -3.93      0.00
    7   15    4      1.75      0.00
    7   15    5     -4.73      0.00
    7   15    6      2.42      0.00
    7   15    7     -1.11      0.00
    7   15    8      2.84      0.00
    7   15    9     -0.44      0.00
    7   15   10      1.13      0.00
   -7   17   14     -2.55      0.00
   -7   17   13      0.77      0.00
   -7   17   12     -1.27      0.00
   -7   17   11     -1.65      0.00
   -7   17   10      1.57      0.00
   -7   17    9     -0.41      0.00
   -7   17    8      0.57      0.00
   -7   17    7      0.24      0.00
   -7   17    6     -2.28      0.00
   -7   17    5     -1.65      0.00
   -7   17    4      4.67      0.00
   -7   17    3     -3.14      0.00
   -7   17    2      0.04      0.00
   -7   17    1      1.44      0.00
    7   17    0     -2.37      0.00
    7   17    1     -0.76      0.00
    7   17    2      6.94      0.00
    7   17    3     -2.19      0.00
    7   17    4     -3.15      0.00
    7   17    5      0.94      0.00
    7   17    6      1.63      0.00
    7   17    7     -0.55      0.00
    7   17    8     -0.99      0.00
   -7   19   11      2.55      0.00
   -7   19   10      0.83      0.00
   -7   19    9     -0.53      0.00
   -7   19    8      1.73      0.00
   -7   19    7      0.07      0.00
   -7   19    6     -3.86      0.00
   -7   19    5      1.30      0.00
   -7   19    4     -0.19      0.00
   -7   19    3     -1.73      0.00
   -7   19    2      0.57      0.00
   -7   19    1     -1.42      0.00
    7   19    0     -1.11      0.00
    7   19    1     -1.99      0.00
    7   19    2     -2.19      0.00
    7   19    3     -0.76      0.00
    7   19    4      0.24      0.00
    7   19    5     -1.80      0.00
    7   19    6      1.93      0.00
   -7   21    8      1.01      0.00
   -7   21    7     -2.14      0.00
   -7   21    6      2.11      0.00
   -7   21    5     -1.23      0.00
   -7   21    4     -2.40      0.00
   -7   21    3     -0.61      0.00
   -7   21    2     -0.19      0.00
   -7   21    1     -1.36      0.00
    7   21    0     -1.79      0.00
    7   21    1     -3.39      0.00
    7   21    2      3.20      0.00
   -8    0   20     -1.57      0.00
   -8    0   18     -0.16      0.00
   -8    0   16     -1.77      0.00
   -8    0   14      3.97      0.00
   -8    0   12      8.78      0.00
   -8    0   10      4.30      0.00
   -8    0    8     -7.52      0.00
   -8    0    6    -43.14      0.00
   -8    0    4     16.94      0.00
   -8    0    2     37.71      0.00
    8    0    0      8.51      0.00
    8    0    2     -3.28      0.00
    8    0    4     -7.04      0.00
    8    0    6      8.22      0.00
    8    0    8     -2.89      0.00
    8    0   10      2.94      0.00
    8    0   12      1.73      0.00
    8    0   14      3.09      0.00
   -8    2   20     -0.97      0.00
   -8    2   19      0.33      0.00
   -8    2   18      1.79      0.00
   -8    2   17     -3.12      0.00
   -8    2   16      0.76      0.00
   -8    2   15      2.67      0.00
   -8    2   14      0.49      0.00
   -8    2   13      2.22      0.00
   -8    2   12     -0.36      0.00
   -8    2   11     -9.39      0.00
   -8    2   10      6.02      0.00
   -8    2    9    -16.02      0.00
   -8    2    8     -0.37      0.00
   -8    2    7      5.43      0.00
   -8    2    6      3.20      0.00
   -8    2    5     28.38      0.00
   -8    2    4      9.42      0.00
   -8    2    3     18.37      0.00
   -8    2    2    -12.61      0.00
   -8    2    1     -4.59      0.00
    8    2    0     13.13      0.00
    8    2    1     19.87      0.00
    8    2    2      1.47      0.00
    8    2    3     -1.34      0.00
    8    2    4     -0.03      0.00
    8    2    5      0.34      0.00
    8    2    6     -2.47      0.00
    8    2    7      2.63      0.00
    8    2    8      1.47      0.00
    8    2    9     -1.45      0.00
    8    2   10     -1.02      0.00
    8    2   11     -2.46      0.00
    8    2   12      2.22      0.00
    8    2   13     -0.03      0.00
    8    2   14     -0.56      0.00
   -8    4   20     -0.86      0.00
   -8    4   19      0.83      0.00
   -8    4   18     -1.83      0.00
   -8    4   17     -1.29      0.00
   -8    4   16      0.59      0.00
   -8    4   15     -2.72      0.00
   -8    4   14     -5.35      0.00
   -8    4   13     -0.05      0.00
   -8    4   12     -8.38      0.00
   -8    4   11      2.13      0.00
   -8    4   10     -5.21      0.00
   -8    4    9      5.76      0.00
   -8    4    8     -8.55      0.00
   -8    4    7     -3.61      0.00
   -8    4    6     25.64      0.00
   -8    4    5      3.62      0.00
   -8    4    4    -10.57      0.00
   -8    4    3      1.09      0.00
   -8    4    2      5.10      0.00
   -8    4    1     -6.88      0.00
    8    4    0     -7.09      0.00
    8    4    1     -0.01      0.00
    8    4    2     -2.31      0.00
    8    4    3      7.43      0.00
    8    4    4      7.44      0.00
    8    4    5      3.41      0.00
    8    4    6     -1.68      0.00
    8    4    7     -0.90      0.00
    8    4    8      4.44      0.00
    8    4    9     -4.19      0.00
    8    4   10     -0.23      0.00
    8    4   11     -0.59      0.00
    8    4   12      0.83      0.00
    8    4   13      0.74      0.00
    8    4   14     -0.33      0.00
   -8    6   20      1.59      0.00
   -8    6   19     -0.08      0.00
   -8    6   18      2.31      0.00
   -8    6   17      4.15      0.00
   -8    6   16     -1.82      0.00
   -8    6   15     -3.64      0.00
   -8    6   14     -0.89      0.00
   -8    6   13      0.07      0.00
   -8    6   12      4.96      0.00
   -8    6   11      8.53      0.00
   -8    6   10     -4.57      0.00
   -8    6    9      3.82      0.00
   -8    6    8      6.72      0.00
   -8    6    7     15.02      0.00
   -8    6    6     -6.75      0.00
   -8    6    5      6.61      0.00
   -8    6    4      0.87      0.00
   -8    6    3     -7.95      0.00
   -8    6    2     -1.94      0.00
   -8    6    1      4.69      0.00
    8    6    0     -9.31      0.00
    8    6    1     -1.62      0.00
    8    6    2     -1.81      0.00
    8    6    3     -1.17      0.00
    8    6    4     -3.15      0.00
    8    6    5     -5.42      0.00
    8    6    6      5.71      0.00
    8    6    7     -4.24      0.00
    8    6    8     -3.25      0.00
    8    6    9      1.28      0.00
    8    6   10     -0.71      0.00
    8    6   11      0.72      0.00
    8    6   12     -1.54      0.00
    8    6   13      3.26      0.00
    8    6   14      0.27      0.00
   -8    8   19      1.18      0.00
   -8    8   18     -2.05      0.00
   -8    8   17     -0.56      0.00
   -8    8   16     -3.34      0.00
   -8    8   15     -0.27      0.00
   -8    8   14      2.27      0.00
   -8    8   13     -2.55      0.00
   -8    8   12      3.82      0.00
   -8    8   11      2.01      0.00
   -8    8   10      2.14      0.00
   -8    8    9     -4.64      0.00
   -8    8    8      2.80      0.00
   -8    8    7     -2.89      0.00
   -8    8    6    -12.60      0.00
   -8    8    5     -8.78      0.00
   -8    8    4     -1.29      0.00
   -8    8    2     -3.68      0.00
   -8    8    1     -3.11      0.00
    8    8    0     -3.51      0.00
    8    8    1      2.36      0.00
    8    8    2     -1.40      0.00
    8    8    3     -0.48      0.00
    8    8    4     -1.18      0.00
    8    8    5     -0.03      0.00
    8    8    6      0.97      0.00
    8    8    7      5.62      0.00
    8    8    8     -4.62      0.00
    8    8    9      1.03      0.00
    8    8   10     -0.32      0.00
    8    8   11     -1.32      0.00
    8    8   12     -0.27      0.00
    8    8   13     -2.70      0.00
   -8   10   18     -0.27      0.00
   -8   10   17     -1.35      0.00
   -8   10   16      0.38      0.00
   -8   10   15      3.37      0.00
   -8   10   14     -1.39      0.00
   -8   10   13      1.09      0.00
   -8   10   12     -0.74      0.00
   -8   10   11     -1.11      0.00
   -8   10   10      0.66      0.00
   -8   10    9     -2.83      0.00
   -8   10    8      0.37      0.00
   -8   10    7     -4.21      0.00
   -8   10    6      7.37      0.00
   -8   10    5      2.46      0.00
   -8   10    4     -1.01      0.00
   -8   10    3     -2.85      0.00
   -8   10    2     -5.30      0.00
   -8   10    1     -4.95      0.00
    8   10    0     -2.05      0.00
    8   10    1      2.46      0.00
    8   10    2     -0.04      0.00
    8   10    3     -0.84      0.00
    8   10    4      0.41      0.00
    8   10    5      1.97      0.00
    8   10    6     -1.43      0.00
    8   10    7      5.13      0.00
    8   10    8      3.42      0.00
    8   10    9      0.00      0.00
    8   10   10      1.57      0.00
    8   10   11     -1.36      0.00
    8   10   12     -0.31      0.00
   -8   12   18      0.17      0.00
   -8   12   17     -0.91      0.00
   -8   12   16     -1.70      0.00
   -8   12   15     -0.93      0.00
   -8   12   14     -2.36      0.00
   -8   12   13      2.11      0.00
   -8   12   12     -1.52      0.00
   -8   12   11     -1.28      0.00
   -8   12   10     -2.00      0.00
   -8   12    9      6.07      0.00
   -8   12    8     -2.30      0.00
   -8   12    7     -5.46      0.00
   -8   12    6     -0.01      0.00
   -8   12    5     -8.35      0.00
   -8   12    4      0.89      0.00
   -8   12    3     -3.19      0.00
   -8   12    2     -4.45      0.00
   -8   12    1     -2.19      0.00
    8   12    0      7.84      0.00
    8   12    1     -5.19      0.00
    8   12    2      4.71      0.00
    8   12    3      0.12      0.00
    8   12    4     -0.98      0.00
    8   12    5      1.53      0.00
    8   12    6     -3.76      0.00
    8   12    7      0.94      0.00
    8   12    8     -0.74      0.00
    8   12    9      0.35      0.00
    8   12   10     -1.54      0.00
    8   12   11      1.10      0.00
   -8   14   16     -0.87      0.00
   -8   14   15     -1.66      0.00
   -8   14   14      2.74      0.00
   -8   14   13     -0.88      0.00
   -8   14   12      1.75      0.00
   -8   14   11     -2.38      0.00
   -8   14   10     -1.50      0.00
   -8   14    9     -3.21      0.00
   -8   14    8     -2.50      0.00
   -8   14    7      4.60      0.00
   -8   14    6     -0.96      0.00
   -8   14    5     -0.30      0.00
   -8   14    4      0.11      0.00
   -8   14    3      3.83      0.00
   -8   14    2      3.41      0.00
   -8   14    1      6.25      0.00
    8   14    0      0.78      0.00
    8   14    1      0.81      0.00
    8   14    2     -5.36      0.00
    8   14    3      3.67      0.00
    8   14    4     -5.23      0.00
    8   14    5      2.54      0.00
    8   14    6      0.57      0.00
    8   14    7     -1.02      0.00
    8   14    8      1.47      0.00
    8   14    9      0.11      0.00
    8   14   10      1.17      0.00
   -8   16   15      3.29      0.00
   -8   16   14     -0.43      0.00
   -8   16   13     -0.30      0.00
   -8   16   12     -1.64      0.00
   -8   16   11     -2.01      0.00
   -8   16   10     -0.20      0.00
   -8   16    9     -3.64      0.00
   -8   16    8      4.19      0.00
   -8   16    7      2.38      0.00
   -8   16    6      1.54      0.00
   -8   16    5     -0.01      0.00
   -8   16    4      2.11      0.00
   -8   16    3     -2.43      0.00
   -8   16    2     -0.13      0.00
   -8   16    1      1.01      0.00
    8   16    0     -3.86      0.00
    8   16    1      6.21      0.00
    8   16    2     -0.42      0.00
    8   16    3     -1.47      0.00
    8   16    4      2.85      0.00
    8   16    5     -0.71      0.00
    8   16    6     -1.26      0.00
    8   16    7     -2.34      0.00
    8   16    8      2.45      0.00
   -8   18   12     -0.29      0.00
   -8   18   11      1.17      0.00
   -8   18   10     -1.16      0.00
   -8   18    9      0.67      0.00
   -8   18    8     -0.64      0.00
   -8   18    7     -0.55      0.00
   -8   18    6     -1.11      0.00
   -8   18    5      0.66      0.00
   -8   18    4     -2.42      0.00
   -8   18    3     -2.42      0.00
   -8   18    2      1.28      0.00
   -8   18    1      0.04      0.00
    8   18    0     -2.88      0.00
    8   18    1     -4.30      0.00
    8   18    2      0.62      0.00
    8   18    3      1.45      0.00
    8   18    4      1.43      0.00
    8   18    5     -0.41      0.00
    8   18    6      1.60      0.00
   -8   20   10      0.40      0.00
   -8   20    9     -0.12      0.00
   -8   20    8      0.77      0.00
   -8   20    7     -1.81      0.00
   -8   20    6      1.23      0.00
   -8   20    5      3.64      0.00
   -8   20    4     -1.16      0.00
   -8   20    3      0.73      0.00
   -8   20    2      0.55      0.00
   -8   20    1      0.83      0.00
    8   20    0     -0.08      0.00
    8   20    1     -0.44      0.00
    8   20    2      2.88      0.00
    8   20    3     -1.16      0.00
   -9    1   20      0.02      0.00
   -9    1   19     -1.48      0.00
   -9    1   18      0.88      0.00
   -9    1   17      0.99      0.00
   -9    1   16     -1.55      0.00
   -9    1   15      5.51      0.00
   -9    1   14      0.99      0.00
   -9    1   13      3.10      0.00
   -9    1   12      3.69      0.00
   -9    1   11      5.52      0.00
   -9    1   10      7.98      0.00
   -9    1    9      1.58      0.00
   -9    1    8     -9.04      0.00
   -9    1    7     -3.48      0.00
   -9    1    6    -11.89      0.00
   -9    1    5     25.82      0.00
   -9    1    4     12.56      0.00
   -9    1    3     14.91      0.00
   -9    1    2     19.07      0.00
   -9    1    1     -8.77      0.00
    9    1    0     11.43      0.00
    9    1    1      5.10      0.00
    9    1    2     -4.97      0.00
    9    1    3      1.63      0.00
    9    1    4      4.30      0.00
    9    1    5     -2.41      0.00
    9    1    6      4.34      0.00
    9    1    7      3.96      0.00
    9    1    8     -1.53      0.00
    9    1    9     -4.85      0.00
    9    1   10      1.77      0.00
    9    1   11     -0.57      0.00
    9    1   12      3.24      0.00
    9    1   13     -0.95      0.00
   -9    3   20     -1.89      0.00
   -9    3   19     -0.51      0.00
   -9    3   18      0.70      0.00
   -9    3   17     -1.73      0.00
   -9    3   16      3.78      0.00
   -9    3   15      3.98      0.00
   -9    3   14     -2.72      0.00
   -9    3   13      1.84      0.00
   -9    3   12     -4.65      0.00
   -9    3   11      3.27      0.00
   -9    3   10     -5.47      0.00
   -9    3    9     -4.08      0.00
   -9    3    8      3.53      0.00
   -9    3    7    -16.11      0.00
   -9    3    6     14.11      0.00
   -9    3    5     11.54      0.00
   -9    3    4     -3.09      0.00
   -9    3    3     -2.27      0.00
   -9    3    2     -2.36      0.00
   -9    3    1      7.29      0.00
    9    3    0     -6.56      0.00
    9    3    1      4.46      0.00
    9    3    2      8.87      0.00
    9    3    3      4.21      0.00
    9    3    4     -4.67      0.00
    9    3    5      3.00      0.00
    9    3    6     -2.33      0.00
    9    3    7      5.07      0.00
    9    3    8      0.83      0.00
    9    3    9     -2.55      0.00
    9    3   10      1.96      0.00
    9    3   11     -4.85      0.00
    9    3   12     -1.39      0.00
    9    3   13     -1.10      0.00
   -9    5   20     -0.76      0.00
   -9    5   19      1.46      0.00
   -9    5   18     -2.97      0.00
   -9    5   17      0.94      0.00
   -9    5   16      4.05      0.00
   -9    5   15     -2.72      0.00
   -9    5   14      1.00      0.00
   -9    5   13     -3.59      0.00
   -9    5   12     -3.72      0.00
   -9    5   11      2.74      0.00
   -9    5   10     -7.54      0.00
   -9    5    9      1.71      0.00
   -9    5    8     -7.86      0.00
   -9    5    7     19.39      0.00
   -9    5    6     -4.27      0.00
   -9    5    5     -5.08      0.00
   -9    5    4      6.36      0.00
   -9    5    3     -0.99      0.00
   -9    5    2     -3.58      0.00
   -9    5    1     -4.17      0.00
    9    5    0     -3.07      0.00
    9    5    1      3.69      0.00
    9    5    2     -6.67      0.00
    9    5    3      0.49      0.00
    9    5    4     -5.45      0.00
    9    5    5     -0.85      0.00
    9    5    6      1.99      0.00
    9    5    7     -9.63      0.00
    9    5    8      3.92      0.00
    9    5    9      1.07      0.00
    9    5   10     -0.58      0.00
    9    5   11      1.00      0.00
    9    5   12      0.10      0.00
    9    5   13      0.71      0.00
   -9    7   19      4.32      0.00
   -9    7   18     -0.20      0.00
   -9    7   17      2.97      0.00
   -9    7   16     -3.17      0.00
   -9    7   15     -2.01      0.00
   -9    7   14     -1.86      0.00
   -9    7   13     -0.40      0.00
   -9    7   12      3.49      0.00
   -9    7   11     -4.32      0.00
   -9    7   10     12.09      0.00
   -9    7    9     -1.52      0.00
   -9    7    8      4.37      0.00
   -9    7    7      4.42      0.00
   -9    7    6      5.56      0.00
   -9    7    5      1.78      0.00
   -9    7    4    -11.07      0.00
   -9    7    3      1.60      0.00
   -9    7    2    -10.99      0.00
   -9    7    1    -11.64      0.00
    9    7    0     -4.83      0.00
    9    7    1      5.41      0.00
    9    7    2     -1.86      0.00
    9    7    3     -1.45      0.00
    9    7    4      9.72      0.00
    9    7    5     -3.95      0.00
    9    7    6      3.02      0.00
    9    7    7     -0.83      0.00
    9    7    8     -6.01      0.00
    9    7    9      1.07      0.00
    9    7   10     -3.91      0.00
    9    7   11     -0.42      0.00
    9    7   12     -1.16      0.00
   -9    9   19     -0.66      0.00
   -9    9   18     -0.48      0.00
   -9    9   17     -2.12      0.00
   -9    9   16     -3.90      0.00
   -9    9   15      1.26      0.00
   -9    9   14     -1.18      0.00
   -9    9   13      6.19      0.00
   -9    9   12      2.86      0.00
   -9    9   11      3.71      0.00
   -9    9   10     -5.43      0.00
   -9    9    9     -3.52      0.00
   -9    9    8      1.08      0.00
   -9    9    7    -13.49      0.00
   -9    9    6      0.18      0.00
   -9    9    5     -4.15      0.00
   -9    9    4     -7.57      0.00
   -9    9    3     -4.46      0.00
   -9    9    2     -1.64      0.00
   -9    9    1     -2.36      0.00
    9    9    0      4.51      0.00
    9    9    1     -4.56      0.00
    9    9    2      2.77      0.00
    9    9    3     -1.50      0.00
    9    9    4     -0.19      0.00
    9    9    5      3.71      0.00
    9    9    6     -1.10      0.00
    9    9    7      9.75      0.00
    9    9    8     -1.77      0.00
    9    9    9     -0.08      0.00
    9    9   10      0.84      0.00
    9    9   11     -1.19      0.00
   -9   11   18     -1.04      0.00
   -9   11   17      0.38      0.00
   -9   11   16      1.50      0.00
   -9   11   15      1.96      0.00
   -9   11   14      0.98      0.00
   -9   11   13     -0.45      0.00
   -9   11   12      1.36      0.00
   -9   11   11     -2.45      0.00
   -9   11   10     -8.04      0.00
   -9   11    9      2.50      0.00
   -9   11    8     -1.68      0.00
   -9   11    7      5.28      0.00
   -9   11    6      4.68      0.00
   -9   11    5     -4.98      0.00
   -9   11    4      0.40      0.00
   -9   11    3      0.73      0.00
   -9   11    2     -0.89      0.00
   -9   11    1      1.83      0.00
    9   11    0     -1.46      0.00
    9   11    1      3.81      0.00
    9   11    2     -0.33      0.00
    9   11    3     -1.60      0.00
    9   11    4     -5.96      0.00
    9   11    5     -0.73      0.00
    9   11    6     -2.87      0.00
    9   11    7     -0.09      0.00
    9   11    8      1.13      0.00
    9   11    9     -2.33      0.00
    9   11   10      1.47      0.00
    9   11   11     -0.78      0.00
   -9   13   17      0.79      0.00
   -9   13   16     -1.91      0.00
   -9   13   15     -1.81      0.00
   -9   13   14     -0.64      0.00
   -9   13   13     -1.82      0.00
   -9   13   12      0.02      0.00
   -9   13   11      0.72      0.00
   -9   13   10      6.55      0.00
   -9   13    9     -0.04      0.00
   -9   13    8     -0.99      0.00
   -9   13    7      2.23      0.00
   -9   13    6     -2.47      0.00
   -9   13    5      0.28      0.00
   -9   13    4     -1.04      0.00
   -9   13    3     -1.80      0.00
   -9   13    2     -4.40      0.00
   -9   13    1      4.09      0.00
    9   13    0      3.78      0.00
    9   13    1     -2.12      0.00
    9   13    2      3.36      0.00
    9   13    3      1.17      0.00
    9   13    4      1.90      0.00
    9   13    5      1.13      0.00
    9   13    6     -0.80      0.00
    9   13    7      0.42      0.00
    9   13    8      0.61      0.00
    9   13    9      2.40      0.00
    9   13   10      1.17      0.00
   -9   15   15     -0.12      0.00
   -9   15   14      1.49      0.00
   -9   15   13      2.49      0.00
   -9   15   12     -0.88      0.00
   -9   15   11      0.92      0.00
   -9   15   10      1.06      0.00
   -9   15    9     -3.12      0.00
   -9   15    8      0.80      0.00
   -9   15    7     -1.91      0.00
   -9   15    6      1.31      0.00
   -9   15    5      0.84      0.00
   -9   15    4      4.55      0.00
   -9   15    3     -0.34      0.00
   -9   15    2      2.91      0.00
   -9   15    1      2.52      0.00
    9   15    0      2.15      0.00
    9   15    1     -0.16      0.00
    9   15    2     -2.51      0.00
    9   15    3      3.34      0.00
    9   15    4     -4.42      0.00
    9   15    5      0.25      0.00
    9   15    6     -0.67      0.00
    9   15    7      2.15      0.00
    9   15    8     -1.21      0.00
   -9   17   13     -4.04      0.00
   -9   17   12     -2.15      0.00
   -9   17   11     -0.26      0.00
   -9   17   10     -4.50      0.00
   -9   17    9      2.09      0.00
   -9   17    8      1.97      0.00
   -9   17    7     -0.65      0.00
   -9   17    6      1.55      0.00
   -9   17    5      2.43      0.00
   -9   17    4     -1.80      0.00
   -9   17    3      0.48      0.00
   -9   17    2     -1.09      0.00
   -9   17    1     -1.10      0.00
    9   17    0     -2.96      0.00
    9   17    1      1.82      0.00
    9   17    2      0.33      0.00
    9   17    3      2.08      0.00
    9   17    4     -2.38      0.00
    9   17    5      1.34      0.00
    9   17    6      0.51      0.00
   -9   19   11     -1.74      0.00
   -9   19   10     -0.20      0.00
   -9   19    9      0.57      0.00
   -9   19    8     -1.39      0.00
   -9   19    7      0.84      0.00
   -9   19    6     -2.12      0.00
   -9   19    5     -2.05      0.00
   -9   19    4     -0.21      0.00
   -9   19    3      0.95      0.00
   -9   19    2     -2.55      0.00
   -9   19    1     -1.48      0.00
    9   19    0     -1.14      0.00
    9   19    1      2.56      0.00
    9   19    2     -1.30      0.00
    9   19    3      0.41      0.00
    9   19    4     -0.55      0.00
   -9   21    6      0.61      0.00
   -9   21    5     -0.80      0.00
   -9   21    4      1.54      0.00
   -9   21    3      0.36      0.00
   -9   21    2      0.34      0.00
   -9   21    1     -0.78      0.00
  -10    0   20      1.42      0.00
  -10    0   18     -0.19      0.00
  -10    0   16     -7.43      0.00
  -10    0   14     -4.54      0.00
  -10    0   12     -7.44      0.00
  -10    0   10     -1.50      0.00
  -10    0    8     -9.37      0.00
  -10    0    6    -11.50      0.00
  -10    0    4     25.46      0.00
  -10    0    2     15.34      0.00
   10    0    0      1.61      0.00
   10    0    2      5.41      0.00
   10    0    4      7.61      0.00
   10    0    6      7.09      0.00
   10    0    8     -4.91      0.00
   10    0   10      1.00      0.00
   10    0   12      0.88      0.00
  -10    2   20     -1.75      0.00
  -10    2   19      1.07      0.00
  -10    2   18      1.29      0.00
  -10    2   17     -3.49      0.00
  -10    2   16      0.19      0.00
  -10    2   15      3.15      0.00
  -10    2   14      1.54      0.00
  -10    2   13      3.76      0.00
  -10    2   12      1.61      0.00
  -10    2   11      7.58      0.00
  -10    2   10      4.45      0.00
  -10    2    9     -5.16      0.00
  -10    2    8     11.21      0.00
  -10    2    7      6.30      0.00
  -10    2    6      5.56      0.00
  -10    2    5     22.07      0.00
  -10    2    4     -1.74      0.00
  -10    2    3      0.98      0.00
  -10    2    2     -4.01      0.00
  -10    2    1     -0.18      0.00
   10    2    0      1.83      0.00
   10    2    1      2.98      0.00
   10    2    2     -0.04      0.00
   10    2    3     -9.53      0.00
   10    2    4      0.58      0.00
   10    2    5      1.89      0.00
   10    2    6      1.12      0.00
   10    2    7      3.55      0.00
   10    2    8      1.38      0.00
   10    2    9     -3.05      0.00
   10    2   10     -2.11      0.00
   10    2   11     -5.61      0.00
   10    2   12      1.32      0.00
   10    2   13      1.53      0.00
  -10    4   20     -2.79      0.00
  -10    4   19      3.75      0.00
  -10    4   18      1.05      0.00
  -10    4   17      0.28      0.00
  -10    4   16      3.85      0.00
  -10    4   15     -1.93      0.00
  -10    4   14      0.75      0.00
  -10    4   13     -2.04      0.00
  -10    4   12      2.34      0.00
  -10    4   11      3.93      0.00
  -10    4   10     -8.12      0.00
  -10    4    9      0.99      0.00
  -10    4    8     -9.02      0.00
  -10    4    7      2.33      0.00
  -10    4    6      3.48      0.00
  -10    4    5     -8.92      0.00
  -10    4    4      0.42      0.00
  -10    4    3      1.17      0.00
  -10    4    2     11.83      0.00
  -10    4    1     -1.99      0.00
   10    4    0      3.89      0.00
   10    4    1     -1.53      0.00
   10    4    2     -0.30      0.00
   10    4    3      4.33      0.00
   10    4    4     -5.98      0.00
   10    4    5      0.28      0.00
   10    4    6     -5.14      0.00
   10    4    7     -3.31      0.00
   10    4    8      4.60      0.00
   10    4    9     -4.22      0.00
   10    4   10      3.00      0.00
   10    4   11      1.21      0.00
   10    4   12      0.55      0.00
  -10    6   20     -0.79      0.00
  -10    6   19      0.94      0.00
  -10    6   18     -3.92      0.00
  -10    6   17      5.43      0.00
  -10    6   16     -1.23      0.00
  -10    6   15      2.60      0.00
  -10    6   14     -1.66      0.00
  -10    6   13     -2.33      0.00
  -10    6   12      3.76      0.00
  -10    6   11     -9.74      0.00
  -10    6   10      1.21      0.00
  -10    6    9      2.24      0.00
  -10    6    8     -4.59      0.00
  -10    6    7     -4.86      0.00
  -10    6    6     -4.22      0.00
  -10    6    5     11.01      0.00
  -10    6    4     -9.05      0.00
  -10    6    3      6.89      0.00
  -10    6    2      0.47      0.00
  -10    6    1     -6.77      0.00
   10    6    0     -5.90      0.00
   10    6    1      6.64      0.00
   10    6    2     -4.74      0.00
   10    6    3      9.53      0.00
   10    6    4      0.29      0.00
   10    6    5     -8.00      0.00
   10    6    6      2.84      0.00
   10    6    7     -5.39      0.00
   10    6    8     -3.98      0.00
   10    6    9     -0.75      0.00
   10    6   10     -2.40      0.00
   10    6   11      1.71      0.00
   10    6   12      1.84      0.00
  -10    8   19     -0.36      0.00
  -10    8   18      1.61      0.00
  -10    8   17      3.24      0.00
  -10    8   16     -0.87      0.00
  -10    8   15     -1.59      0.00
  -10    8   14     -2.10      0.00
  -10    8   13     -0.82      0.00
  -10    8   12     -0.92      0.00
  -10    8   11      6.01      0.00
  -10    8   10      0.67      0.00
  -10    8    9     -5.90      0.00
  -10    8    8      4.76      0.00
  -10    8    7     -2.92      0.00
  -10    8    6      2.05      0.00
  -10    8    5     -1.41      0.00
  -10    8    4      0.34      0.00
  -10    8    3     -9.01      0.00
  -10    8    2    -12.38      0.00
  -10    8    1     -7.11      0.00
   10    8    0     -5.53      0.00
   10    8    1      0.82      0.00
   10    8    2      1.78      0.00
   10    8    3     -7.60      0.00
   10    8    4      5.71      0.00
   10    8    5      3.96      0.00
   10    8    6      4.20      0.00
   10    8    7      4.22      0.00
   10    8    8     -3.28      0.00
   10    8    9      1.17      0.00
   10    8   10     -0.21      0.00
   10    8   11     -0.63      0.00
  -10   10   18     -0.81      0.00
  -10   10   17      0.23      0.00
  -10   10   16     -2.42      0.00
  -10   10   15     -0.57      0.00
  -10   10   14      3.87      0.00
  -10   10   13      3.21      0.00
  -10   10   12     -0.12      0.00
  -10   10   11      2.44      0.00
  -10   10   10     -6.53      0.00
  -10   10    9      1.88      0.00
  -10   10    8     -4.52      0.00
  -10   10    7      2.76      0.00
  -10   10    6      3.19      0.00
  -10   10    5     -3.72      0.00
  -10   10    4     -5.36      0.00
  -10   10    3      3.09      0.00
  -10   10    2     -6.27      0.00
  -10   10    1      5.29      0.00
   10   10    0      8.41      0.00
   10   10    1     -3.64      0.00
   10   10    2     -1.09      0.00
   10   10    3     -3.05      0.00
   10   10    4     -4.08      0.00
   10   10    5      2.73      0.00
   10   10    6     -4.42      0.00
   10   10    7      3.32      0.00
   10   10    8      0.04      0.00
   10   10    9     -0.46      0.00
   10   10   10      0.21      0.00
  -10   12   17      1.21      0.00
  -10   12   16     -0.16      0.00
  -10   12   15      0.91      0.00
  -10   12   14      1.51      0.00
  -10   12   13      0.12      0.00
  -10   12   12     -1.78      0.00
  -10   12   11     -7.41      0.00
  -10   12   10      0.55      0.00
  -10   12    9     -0.02      0.00
  -10   12    8      1.94      0.00
  -10   12    7     -0.22      0.00
  -10   12    6     -1.79      0.00
  -10   12    5     -5.57      0.00
  -10   12    4     -1.20      0.00
  -10   12    3     -1.70      0.00
  -10   12    2      1.24      0.00
  -10   12    1      0.14      0.00
   10   12    0     -2.29      0.00
   10   12    1      1.25      0.00
   10   12    2      1.63      0.00
   10   12    3      5.53      0.00
   10   12    4     -1.85      0.00
   10   12    5      0.86      0.00
   10   12    6      0.13      0.00
   10   12    7      1.51      0.00
   10   12    8      2.90      0.00
   10   12    9      0.08      0.00
  -10   14   16     -0.45      0.00
  -10   14   15     -1.92      0.00
  -10   14   14     -0.94      0.00
  -10   14   13      0.56      0.00
  -10   14   12     -0.62      0.00
  -10   14   11      1.17      0.00
  -10   14   10     -0.63      0.00
  -10   14    9     -0.01      0.00
  -10   14    8      1.85      0.00
  -10   14    7     -1.74      0.00
  -10   14    6     -0.63      0.00
  -10   14    5     -1.91      0.00
  -10   14    4      2.30      0.00
  -10   14    3     -2.64      0.00
  -10   14    2      2.68      0.00
  -10   14    1     -1.31      0.00
   10   14    0     -2.72      0.00
   10   14    1     -1.21      0.00
   10   14    2      0.55      0.00
   10   14    3     -4.54      0.00
   10   14    4      1.20      0.00
   10   14    5     -0.89      0.00
   10   14    6      0.08      0.00
   10   14    7     -0.69      0.00
   10   14    8     -0.18      0.00
  -10   16   13     -1.32      0.00
  -10   16   12      0.83      0.00
  -10   16   11      2.32      0.00
  -10   16   10     -2.41      0.00
  -10   16    9      0.44      0.00
  -10   16    8      1.17      0.00
  -10   16    7      0.51      0.00
  -10   16    6      1.61      0.00
  -10   16    5      4.43      0.00
  -10   16    4     -2.39      0.00
  -10   16    3      0.10      0.00
  -10   16    2      1.61      0.00
  -10   16    1      0.03      0.00
   10   16    0      2.97      0.00
   10   16    1     -1.53      0.00
   10   16    2      1.12      0.00
   10   16    3      2.03      0.00
   10   16    4     -0.91      0.00
   10   16    5      1.39      0.00
   10   16    6     -6.67      0.00
  -10   18   11      0.38      0.00
  -10   18   10     -0.55      0.00
  -10   18    9      2.53      0.00
  -10   18    8     -1.87      0.00
  -10   18    7      1.84      0.00
  -10   18    6      3.12      0.00
  -10   18    5     -3.27      0.00
  -10   18    4     -1.01      0.00
  -10   18    3      0.10      0.00
  -10   18    2      0.74      0.00
  -10   18    1      1.46      0.00
   10   18    0      0.88      0.00
   10   18    1      1.01      0.00
   10   18    2     -2.35      0.00
   10   18    3      3.46      0.00
   10   18    4     -1.91      0.00
  -10   20    8     -0.02      0.00
  -10   20    7      0.53      0.00
  -10   20    6      1.81      0.00
  -10   20    5      0.30      0.00
  -10   20    4      0.80      0.00
  -10   20    3     -2.39      0.00
  -10   20    2     -0.87      0.00
  -10   20    1     -0.54      0.00
   10   20    0     -5.78      0.00
  -11    1   20     -3.00      0.00
  -11    1   19      0.77      0.00
  -11    1   18      0.38      0.00
  -11    1   17     -0.11      0.00
  -11    1   16     -0.52      0.00
  -11    1   15     -1.54      0.00
  -11    1   14     -1.51      0.00
  -11    1   13     -1.62      0.00
  -11    1   12     -2.87      0.00
  -11    1   11     -1.26      0.00
  -11    1   10     -0.68      0.00
  -11    1    9     -6.66      0.00
  -11    1    8    -10.53      0.00
  -11    1    7     14.10      0.00
  -11    1    6      1.21      0.00
  -11    1    5     21.39      0.00
  -11    1    4     17.82      0.00
  -11    1    3     -5.41      0.00
  -11    1    2      3.48      0.00
  -11    1    1     -4.38      0.00
   11    1    0     -4.76      0.00
   11    1    1     -8.81      0.00
   11    1    2     -2.87      0.00
   11    1    3     -6.66      0.00
   11    1    4      6.98      0.00
   11    1    5     -0.57      0.00
   11    1    6      2.88      0.00
   11    1    7      2.87      0.00
   11    1    8     -1.07      0.00
   11    1    9     -2.21      0.00
   11    1   10     -1.28      0.00
   11    1   11      1.18      0.00
   11    1   12      0.06      0.00
  -11    3   20      0.13      0.00
  -11    3   19     -0.91      0.00
  -11    3   18     -3.06      0.00
  -11    3   17     -0.74      0.00
  -11    3   16      1.81      0.00
  -11    3   15     -0.72      0.00
  -11    3   14      1.41      0.00
  -11    3   13     -2.79      0.00
  -11    3   12      1.47      0.00
  -11    3   11      1.92      0.00
  -11    3   10      2.57      0.00
  -11    3    9      5.59      0.00
  -11    3    8     12.63      0.00
  -11    3    7      6.38      0.00
  -11    3    6      5.28      0.00
  -11    3    5      2.22      0.00
  -11    3    4     -8.70      0.00
  -11    3    3    -10.16      0.00
  -11    3    2      6.11      0.00
  -11    3    1     -6.86      0.00
   11    3    0      7.09      0.00
   11    3    1     -0.38      0.00
   11    3    2      4.43      0.00
   11    3    3     -3.08      0.00
   11    3    4     -7.26      0.00
   11    3    5     -1.66      0.00
   11    3    6     -4.43      0.00
   11    3    7     -0.37      0.00
   11    3    8     -0.04      0.00
   11    3    9     -0.91      0.00
   11    3   10      2.55      0.00
   11    3   11     -2.39      0.00
   11    3   12     -1.51      0.00
  -11    5   20      2.20      0.00
  -11    5   19      5.49      0.00
  -11    5   18     -2.47      0.00
  -11    5   17      2.65      0.00
  -11    5   16     -1.16      0.00
  -11    5   15     -1.93      0.00
  -11    5   14      0.95      0.00
  -11    5   13      1.03      0.00
  -11    5   12      4.18      0.00
  -11    5   11      2.52      0.00
  -11    5   10     -3.10      0.00
  -11    5    9      9.85      0.00
  -11    5    8      0.45      0.00
  -11    5    7     -5.85      0.00
  -11    5    6     -5.71      0.00
  -11    5    5      5.38      0.00
  -11    5    4     -6.32      0.00
  -11    5    3      5.97      0.00
  -11    5    2      2.63      0.00
  -11    5    1      2.15      0.00
   11    5    0      1.32      0.00
   11    5    1      3.42      0.00
   11    5    2      1.36      0.00
   11    5    3      3.05      0.00
   11    5    4     -3.09      0.00
   11    5    5     -2.10      0.00
   11    5    6      2.80      0.00
   11    5    7     -6.73      0.00
   11    5    8      1.01      0.00
   11    5    9     -0.59      0.00
   11    5   10     -1.21      0.00
   11    5   11     -1.33      0.00
  -11    7   19     -1.87      0.00
  -11    7   18     -0.59      0.00
  -11    7   17     -0.37      0.00
  -11    7   16     -0.05      0.00
  -11    7   15     -0.37      0.00
  -11    7   14      0.64      0.00
  -11    7   13      1.15      0.00
  -11    7   12      0.41      0.00
  -11    7   11     -1.89      0.00
  -11    7   10      2.93      0.00
  -11    7    9     -5.85      0.00
  -11    7    8     -7.83      0.00
  -11    7    7     -2.12      0.00
  -11    7    6      0.86      0.00
  -11    7    5     -4.95      0.00
  -11    7    4      4.02      0.00
  -11    7    3      8.09      0.00
  -11    7    2     -9.56      0.00
  -11    7    1     -6.47      0.00
   11    7    0     -4.70      0.00
   11    7    1      3.35      0.00
   11    7    2     -5.63      0.00
   11    7    3      0.05      0.00
   11    7    4     12.35      0.00
   11    7    5      0.50      0.00
   11    7    6      0.09      0.00
   11    7    7      1.89      0.00
   11    7    8     -2.42      0.00
   11    7    9      0.35      0.00
   11    7   10     -1.24      0.00
   11    7   11     -1.45      0.00
  -11    9   19      0.83      0.00
  -11    9   18      0.93      0.00
  -11    9   17      1.50      0.00
  -11    9   16     -0.43      0.00
  -11    9   15      0.85      0.00
  -11    9   14     -3.27      0.00
  -11    9   13      3.67      0.00
  -11    9   12     -2.62      0.00
  -11    9   11     -0.95      0.00
  -11    9   10     -6.43      0.00
  -11    9    9     -4.50      0.00
  -11    9    8     -4.90      0.00
  -11    9    7      2.06      0.00
  -11    9    6      2.16      0.00
  -11    9    5      0.96      0.00
  -11    9    4     -9.68      0.00
  -11    9    3     -3.40      0.00
  -11    9    2     -5.43      0.00
  -11    9    1     -2.51      0.00
   11    9    0     -0.81      0.00
   11    9    1     -4.59      0.00
   11    9    2      1.64      0.00
   11    9    3     -1.59      0.00
   11    9    4     -2.74      0.00
   11    9    5      1.20      0.00
   11    9    6     -0.83      0.00
   11    9    7      2.64      0.00
   11    9    8     -0.90      0.00
   11    9    9     -2.39      0.00
  -11   11   17      0.23      0.00
  -11   11   16      0.97      0.00
  -11   11   15     -0.82      0.00
  -11   11   14      1.31      0.00
  -11   11   13     -1.96      0.00
  -11   11   12      2.30      0.00
  -11   11   11     -1.78      0.00
  -11   11   10     -0.64      0.00
  -11   11    9     -0.17      0.00
  -11   11    8      5.67      0.00
  -11   11    7      0.75      0.00
  -11   11    6      4.33      0.00
  -11   11    5     -1.31      0.00
  -11   11    4      6.75      0.00
  -11   11    3     -3.46      0.00
  -11   11    2      2.89      0.00
  -11   11    1      9.05      0.00
   11   11    0      1.05      0.00
   11   11    1      1.15      0.00
   11   11    2      1.07      0.00
   11   11    3     -0.75      0.00
   11   11    4     -3.73      0.00
   11   11    5      3.43      0.00
   11   11    6      1.63      0.00
   11   11    7      2.05      0.00
   11   11    8      1.73      0.00
   11   11    9      0.66      0.00
  -11   13   16     -0.68      0.00
  -11   13   15     -1.69      0.00
  -11   13   14      0.35      0.00
  -11   13   13      0.08      0.00
  -11   13   12     -1.96      0.00
  -11   13   11      2.07      0.00
  -11   13   10     -1.26      0.00
  -11   13    9      1.06      0.00
  -11   13    8     -0.18      0.00
  -11   13    7     -1.41      0.00
  -11   13    6     -0.29      0.00
  -11   13    5     -4.26      0.00
  -11   13    4      1.19      0.00
  -11   13    3     -1.43      0.00
  -11   13    2      3.62      0.00
  -11   13    1     -0.27      0.00
   11   13    0      1.18      0.00
   11   13    1      0.84      0.00
   11   13    2     -4.13      0.00
   11   13    3      1.80      0.00
   11   13    4     -1.58      0.00
   11   13    5     -1.40      0.00
   11   13    6     -1.65      0.00
   11   13    7     -0.24      0.00
   11   13    8      0.32      0.00
  -11   15   14      3.21      0.00
  -11   15   13     -0.69      0.00
  -11   15   12     -0.63      0.00
  -11   15   11     -1.36      0.00
  -11   15   10     -1.13      0.00
  -11   15    9      0.75      0.00
  -11   15    8     -3.33      0.00
  -11   15    7      0.11      0.00
  -11   15    6     -1.34      0.00
  -11   15    5      1.50      0.00
  -11   15    4      2.26      0.00
  -11   15    3     -1.38      0.00
  -11   15    2     -1.00      0.00
  -11   15    1     -5.26      0.00
   11   15    0     -1.50      0.00
   11   15    1      0.19      0.00
   11   15    2      2.58      0.00
   11   15    3     -0.45      0.00
   11   15    4     -1.19      0.00
   11   15    5     -1.78      0.00
   11   15    6      0.28      0.00
  -11   17   12     -3.03      0.00
  -11   17   11     -2.19      0.00
  -11   17   10      0.76      0.00
  -11   17    9     -0.94      0.00
  -11   17    8     -0.12      0.00
  -11   17    7     -1.47      0.00
  -11   17    6      2.06      0.00
  -11   17    5     -1.55      0.00
  -11   17    4     -2.02      0.00
  -11   17    3     -0.87      0.00
  -11   17    2     -2.85      0.00
  -11   17    1      0.38      0.00
   11   17    0      3.46      0.00
   11   17    1     -0.61      0.00
   11   17    2      0.42      0.00
   11   17    3     -0.85      0.00
   11   17    4     -0.95      0.00
  -11   19    8     -0.59      0.00
  -11   19    7     -2.02      0.00
  -11   19    6     -1.38      0.00
  -11   19    5     -1.76      0.00
  -11   19    4      0.99      0.00
  -11   19    3      1.38      0.00
  -11   19    2     -0.55      0.00
  -11   19    1      3.15      0.00
   11   19    0     -1.32      0.00
  -12    0   20      0.84      0.00
  -12    0   18     -5.23      0.00
  -12    0   16     -0.17      0.00
  -12    0   14      1.22      0.00
  -12    0   12      2.74      0.00
  -12    0   10     -4.23      0.00
  -12    0    8    -18.66      0.00
  -12    0    6      2.70      0.00
  -12    0    4     21.80      0.00
  -12    0    2      5.91      0.00
   12    0    0    -11.79      0.00
   12    0    2     -2.06      0.00
   12    0    4      2.93      0.00
   12    0    6      2.49      0.00
   12    0    8      1.67      0.00
   12    0   10      2.83      0.00
  -12    2   20     -0.83      0.00
  -12    2   19     -1.22      0.00
  -12    2   18      0.84      0.00
  -12    2   17      0.54      0.00
  -12    2   16      1.77      0.00
  -12    2   15      0.16      0.00
  -12    2   14     -0.44      0.00
  -12    2   13     -2.94      0.00
  -12    2   12      1.45      0.00
  -12    2   11     -7.21      0.00
  -12    2   10     -2.35      0.00
  -12    2    9     -5.06      0.00
  -12    2    8      7.14      0.00
  -12    2    7     13.90      0.00
  -12    2    6      1.68      0.00
  -12    2    5     10.94      0.00
  -12    2    4     -0.78      0.00
  -12    2    3     -9.40      0.00
  -12    2    2      6.17      0.00
  -12    2    1     -9.83      0.00
   12    2    0      4.20      0.00
   12    2    1     -1.76      0.00
   12    2    2      1.10      0.00
   12    2    3     -7.01      0.00
   12    2    4     -1.02      0.00
   12    2    5     -0.94      0.00
   12    2    6     -1.54      0.00
   12    2    7     -2.25      0.00
   12    2    8     -0.27      0.00
   12    2    9     -1.61      0.00
   12    2   10     -2.32      0.00
   12    2   11      0.00      0.00
  -12    4   20     -2.77      0.00
  -12    4   19      0.45      0.00
  -12    4   18      3.25      0.00
  -12    4   17      2.61      0.00
  -12    4   16      1.93      0.00
  -12    4   15     -2.83      0.00
  -12    4   14     -2.70      0.00
  -12    4   13     -0.01      0.00
  -12    4   12     -3.41      0.00
  -12    4   11      3.29      0.00
  -12    4   10     -2.39      0.00
  -12    4    9      4.49      0.00
  -12    4    8      9.44      0.00
  -12    4    7     -3.86      0.00
  -12    4    6     -4.14      0.00
  -12    4    5      1.51      0.00
  -12    4    4     -4.13      0.00
  -12    4    3      3.34      0.00
  -12    4    2      0.49      0.00
  -12    4    1     -1.73      0.00
   12    4    0      5.05      0.00
   12    4    1      4.83      0.00
   12    4    2     -0.59      0.00
   12    4    3      4.24      0.00
   12    4    4     -0.42      0.00
   12    4    5      1.34      0.00
   12    4    6      0.59      0.00
   12    4    7     -1.68      0.00
   12    4    8      1.74      0.00
   12    4    9     -2.54      0.00
   12    4   10     -2.45      0.00
  -12    6   19     -1.08      0.00
  -12    6   18      2.27      0.00
  -12    6   17      0.63      0.00
  -12    6   16     -4.03      0.00
  -12    6   15     -0.20      0.00
  -12    6   14      0.34      0.00
  -12    6   13     -0.92      0.00
  -12    6   12      5.39      0.00
  -12    6   11      3.89      0.00
  -12    6   10      3.04      0.00
  -12    6    9      7.91      0.00
  -12    6    8     -5.26      0.00
  -12    6    7      2.52      0.00
  -12    6    6      2.64      0.00
  -12    6    5     -1.87      0.00
  -12    6    4     -7.35      0.00
  -12    6    3      5.95      0.00
  -12    6    2     -1.93      0.00
  -12    6    1     -3.32      0.00
   12    6    0     -4.61      0.00
   12    6    1      0.27      0.00
   12    6    2      0.12      0.00
   12    6    3      4.47      0.00
   12    6    4      1.92      0.00
   12    6    5     -6.75      0.00
   12    6    6      1.77      0.00
   12    6    7     -0.94      0.00
   12    6    8     -3.24      0.00
   12    6    9      1.90      0.00
   12    6   10      3.27      0.00
  -12    8   19      0.03      0.00
  -12    8   18     -0.69      0.00
  -12    8   17     -1.59      0.00
  -12    8   16     -2.98      0.00
  -12    8   15      2.36      0.00
  -12    8   14      1.79      0.00
  -12    8   13      3.74      0.00
  -12    8   12      2.59      0.00
  -12    8   11     -0.14      0.00
  -12    8   10      0.82      0.00
  -12    8    9     -4.69      0.00
  -12    8    8     -7.84      0.00
  -12    8    7     -3.67      0.00
  -12    8    6     -1.98      0.00
  -12    8    5      1.65      0.00
  -12    8    4      2.03      0.00
  -12    8    3     -8.55      0.00
  -12    8    2     -7.48      0.00
  -12    8    1      2.04      0.00
   12    8    0     -2.77      0.00
   12    8    1     -1.58      0.00
   12    8    2      3.07      0.00
   12    8    3     -7.26      0.00
   12    8    4      2.03      0.00
   12    8    5      4.14      0.00
   12    8    6     -2.34      0.00
   12    8    7      0.64      0.00
   12    8    8     -1.96      0.00
   12    8    9     -3.36      0.00
  -12   10   18     -0.64      0.00
  -12   10   17     -1.26      0.00
  -12   10   16      3.93      0.00
  -12   10   15      1.30      0.00
  -12   10   14      2.14      0.00
  -12   10   13     -0.30      0.00
  -12   10   12     -5.18      0.00
  -12   10   11     -2.70      0.00
  -12   10   10     -4.16      0.00
  -12   10    9     -5.70      0.00
  -12   10    8      6.52      0.00
  -12   10    7     -2.00      0.00
  -12   10    6     -0.23      0.00
  -12   10    5     -7.21      0.00
  -12   10    4      1.25      0.00
  -12   10    3      0.15      0.00
  -12   10    2     -2.51      0.00
  -12   10    1      2.00      0.00
   12   10    0      3.14      0.00
   12   10    1     -2.38      0.00
   12   10    2     -4.97      0.00
   12   10    3     -1.32      0.00
   12   10    4      0.26      0.00
   12   10    5      3.82      0.00
   12   10    6      0.39      0.00
   12   10    7      3.06      0.00
   12   10    8      3.56      0.00
  -12   12   16      0.90      0.00
  -12   12   15     -3.03      0.00
  -12   12   14     -3.17      0.00
  -12   12   13     -0.37      0.00
  -12   12   12     -1.93      0.00
  -12   12   11      2.32      0.00
  -12   12   10     -1.52      0.00
  -12   12    9      3.68      0.00
  -12   12    8      2.96      0.00
  -12   12    7     -0.85      0.00
  -12   12    6      5.07      0.00
  -12   12    5      1.41      0.00
  -12   12    4      2.15      0.00
  -12   12    3     -0.87      0.00
  -12   12    2      7.44      0.00
  -12   12    1     -2.30      0.00
   12   12    0     -0.07      0.00
   12   12    1     -2.04      0.00
   12   12    2      0.29      0.00
   12   12    3     -0.28      0.00
   12   12    4     -2.65      0.00
   12   12    5     -1.59      0.00
   12   12    6      0.29      0.00
   12   12    7     -0.33      0.00
  -12   14   14      1.27      0.00
  -12   14   13      0.54      0.00
  -12   14   12      4.01      0.00
  -12   14   11     -2.44      0.00
  -12   14   10     -1.77      0.00
  -12   14    9      3.86      0.00
  -12   14    8     -2.34      0.00
  -12   14    7      1.37      0.00
  -12   14    6      0.72      0.00
  -12   14    5      0.54      0.00
  -12   14    4      1.47      0.00
  -12   14    3      2.11      0.00
  -12   14    2      3.63      0.00
  -12   14    1     -0.47      0.00
   12   14    0      1.71      0.00
   12   14    1      1.22      0.00
   12   14    2      0.63      0.00
   12   14    3     -1.42      0.00
   12   14    4     -1.55      0.00
   12   14    5      1.52      0.00
   12   14    6     -1.79      0.00
  -12   16   12     -0.25      0.00
  -12   16   11     -4.02      0.00
  -12   16   10      2.74      0.00
  -12   16    9     -2.94      0.00
  -12   16    8      2.85      0.00
  -12   16    7      1.91      0.00
  -12   16    6      0.94      0.00
  -12   16    5      3.21      0.00
  -12   16    4     -2.24      0.00
  -12   16    3      1.03      0.00
  -12   16    2     -2.25      0.00
  -12   16    1     -1.76      0.00
   12   16    0      1.62      0.00
   12   16    1      1.25      0.00
   12   16    2     -2.75      0.00
   12   16    3      4.63      0.00
   12   16    4      0.11      0.00
  -12   18    9      0.21      0.00
  -12   18    8      1.90      0.00
  -12   18    7     -1.26      0.00
  -12   18    6     -0.24      0.00
  -12   18    5     -2.14      0.00
  -12   18    4     -1.20      0.00
  -12   18    3     -1.15      0.00
  -12   18    2      0.01      0.00
  -12   18    1      1.15      0.00
   12   18    0     -1.39      0.00
  -13    1   20      2.69      0.00
  -13    1   19     -4.13      0.00
  -13    1   18     -0.15      0.00
  -13    1   17      0.43      0.00
  -13    1   16      0.64      0.00
  -13    1   15      2.87      0.00
  -13    1   14      3.30      0.00
  -13    1   13     -0.86      0.00
  -13    1   12      4.34      0.00
  -13    1   11     -2.70      0.00
  -13    1   10     -2.90      0.00
  -13    1    9     -1.26      0.00
  -13    1    8     -3.25      0.00
  -13    1    7     12.13      0.00
  -13    1    6      9.39      0.00
  -13    1    5      0.07      0.00
  -13    1    4      7.94      0.00
  -13    1    3     -5.15      0.00
  -13    1    2      3.97      0.00
  -13    1    1     -4.06      0.00
   13    1    0      0.46      0.00
   13    1    1     -1.70      0.00
   13    1    2      0.93      0.00
   13    1    3     -0.58      0.00
   13    1    4      2.55      0.00
   13    1    5     -0.26      0.00
   13    1    6     -1.30      0.00
   13    1    7     -3.78      0.00
   13    1    8     -0.38      0.00
   13    1    9     -2.06      0.00
   13    1   10      0.48      0.00
  -13    3   20     -3.02      0.00
  -13    3   19     -4.04      0.00
  -13    3   18     -0.19      0.00
  -13    3   17     -0.33      0.00
  -13    3   16      0.80      0.00
  -13    3   15     -1.22      0.00
  -13    3   14     -3.79      0.00
  -13    3   13      1.31      0.00
  -13    3   12     -3.58      0.00
  -13    3   11     -1.03      0.00
  -13    3   10      3.27      0.00
  -13    3    9      1.13      0.00
  -13    3    8      3.21      0.00
  -13    3    7      4.22      0.00
  -13    3    6     -6.66      0.00
  -13    3    5     -4.59      0.00
  -13    3    4     -1.25      0.00
  -13    3    3     -0.14      0.00
  -13    3    2      4.80      0.00
  -13    3    1     -3.65      0.00
   13    3    0      6.03      0.00
   13    3    1     -0.10      0.00
   13    3    2      0.88      0.00
   13    3    3      1.60      0.00
   13    3    4     -0.80      0.00
   13    3    5      0.85      0.00
   13    3    6      2.63      0.00
   13    3    7     -1.22      0.00
   13    3    8      0.39      0.00
   13    3    9     -2.47      0.00
   13    3   10      0.81      0.00
  -13    5   19      3.73      0.00
  -13    5   18      3.26      0.00
  -13    5   17      2.64      0.00
  -13    5   16     -0.49      0.00
  -13    5   15     -2.84      0.00
  -13    5   14      0.37      0.00
  -13    5   13     -1.47      0.00
  -13    5   12     -3.57      0.00
  -13    5   11      2.71      0.00
  -13    5   10     -3.51      0.00
  -13    5    9      1.68      0.00
  -13    5    8     -5.78      0.00
  -13    5    7     -2.39      0.00
  -13    5    6     -2.21      0.00
  -13    5    5      7.32      0.00
  -13    5    4     -0.43      0.00
  -13    5    3      2.05      0.00
  -13    5    2     -1.70      0.00
  -13    5    1      0.43      0.00
   13    5    0     -4.20      0.00
   13    5    1      4.87      0.00
   13    5    2     -1.43      0.00
   13    5    3     -2.59      0.00
   13    5    4     -3.19      0.00
   13    5    5     -3.92      0.00
   13    5    6     -0.15      0.00
   13    5    7     -2.49      0.00
   13    5    8      0.87      0.00
   13    5    9      2.82      0.00
  -13    7   19      3.97      0.00
  -13    7   18      1.13      0.00
  -13    7   17     -1.25      0.00
  -13    7   16     -1.38      0.00
  -13    7   15     -3.09      0.00
  -13    7   14     -0.68      0.00
  -13    7   13      2.24      0.00
  -13    7   12      2.51      0.00
  -13    7   11     -2.35      0.00
  -13    7   10      4.22      0.00
  -13    7    9      2.73      0.00
  -13    7    8      4.29      0.00
  -13    7    7     -0.65      0.00
  -13    7    6      0.71      0.00
  -13    7    5     -4.41      0.00
  -13    7    4      1.11      0.00
  -13    7    3     -0.65      0.00
  -13    7    2    -10.66      0.00
  -13    7    1     -3.37      0.00
   13    7    0     -3.70      0.00
   13    7    1     -0.37      0.00
   13    7    2     -3.22      0.00
   13    7    3      0.27      0.00
   13    7    4      6.15      0.00
   13    7    5     -1.90      0.00
   13    7    6     -2.40      0.00
   13    7    7      1.36      0.00
   13    7    8     -2.34      0.00
  -13    9   17     -3.65      0.00
  -13    9   16     -0.44      0.00
  -13    9   15      3.63      0.00
  -13    9   14      0.09      0.00
  -13    9   13      4.26      0.00
  -13    9   12     -1.19      0.00
  -13    9   11      0.36      0.00
  -13    9   10     -1.22      0.00
  -13    9    9     -8.41      0.00
  -13    9    8      2.67      0.00
  -13    9    7     -0.73      0.00
  -13    9    6      0.30      0.00
  -13    9    5     -5.46      0.00
  -13    9    4     -6.84      0.00
  -13    9    3     -1.74      0.00
  -13    9    2      3.08      0.00
  -13    9    1      0.39      0.00
   13    9    0     -0.14      0.00
   13    9    1     -7.16      0.00
   13    9    2     -0.76      0.00
   13    9    3      0.58      0.00
   13    9    4     -0.67      0.00
   13    9    5      3.40      0.00
   13    9    6      1.91      0.00
   13    9    7      2.23      0.00
  -13   11   16      4.00      0.00
  -13   11   15      3.21      0.00
  -13   11   14      0.31      0.00
  -13   11   13     -2.84      0.00
  -13   11   12     -1.88      0.00
  -13   11   11      0.42      0.00
  -13   11   10     -2.85      0.00
  -13   11    9      1.34      0.00
  -13   11    8     -1.78      0.00
  -13   11    7     -4.71      0.00
  -13   11    6     -1.74      0.00
  -13   11    5      0.21      0.00
  -13   11    4      3.16      0.00
  -13   11    3     -2.85      0.00
  -13   11    2      4.12      0.00
  -13   11    1      1.54      0.00
   13   11    0     -0.19      0.00
   13   11    1      2.78      0.00
   13   11    2     -1.84      0.00
   13   11    3     -2.12      0.00
   13   11    4     -2.87      0.00
   13   11    5      2.14      0.00
   13   11    6     -1.42      0.00
  -13   13   15     -3.39      0.00
  -13   13   14     -1.35      0.00
  -13   13   13     -2.42      0.00
  -13   13   12      3.22      0.00
  -13   13   11      1.10      0.00
  -13   13   10     -1.56      0.00
  -13   13    9      1.90      0.00
  -13   13    8     -0.44      0.00
  -13   13    7      1.60      0.00
  -13   13    6      1.03      0.00
  -13   13    5      3.07      0.00
  -13   13    4      0.37      0.00
  -13   13    3      0.88      0.00
  -13   13    2     -0.75      0.00
  -13   13    1     -3.34      0.00
   13   13    0      3.08      0.00
   13   13    1      1.39      0.00
   13   13    2      1.15      0.00
   13   13    3     -3.85      0.00
   13   13    4      1.44      0.00
   13   13    5     -2.46      0.00
  -13   15   13      1.79      0.00
  -13   15   12      0.66      0.00
  -13   15   11     -2.32      0.00
  -13   15   10      4.69      0.00
  -13   15    9     -1.56      0.00
  -13   15    8     -0.21      0.00
  -13   15    7      3.11      0.00
  -13   15    6      1.15      0.00
  -13   15    5      1.59      0.00
  -13   15    4     -0.13      0.00
  -13   15    3      1.00      0.00
  -13   15    2     -1.27      0.00
  -13   15    1      1.31      0.00
   13   15    0      4.35      0.00
   13   15    1     -2.16      0.00
   13   15    2      4.79      0.00
   13   15    3      2.70      0.00
  -13   17   10     -0.81      0.00
  -13   17    9     -1.34      0.00
  -13   17    8      2.63      0.00
  -13   17    7      0.30      0.00
  -13   17    6      1.19      0.00
  -13   17    5     -1.67      0.00
  -13   17    4      0.26      0.00
  -13   17    3     -0.88      0.00
  -13   17    2      0.12      0.00
  -13   17    1      4.16      0.00
  -14    0   18      0.65      0.00
  -14    0   16      0.25      0.00
  -14    0   14      0.39      0.00
  -14    0   12     -3.09      0.00
  -14    0   10     -6.31      0.00
  -14    0    8     -0.85      0.00
  -14    0    6     24.42      0.00
  -14    0    4      9.24      0.00
  -14    0    2      1.99      0.00
   14    0    0      0.58      0.00
   14    0    2      2.38      0.00
   14    0    4      1.24      0.00
   14    0    6     -1.29      0.00
   14    0    8     -0.60      0.00
  -14    2   19      0.87      0.00
  -14    2   18      2.29      0.00
  -14    2   17      2.50      0.00
  -14    2   16      2.77      0.00
  -14    2   15      1.89      0.00
  -14    2   14     -2.09      0.00
  -14    2   13      1.67      0.00
  -14    2   12      1.85      0.00
  -14    2   11     -1.28      0.00
  -14    2   10      2.00      0.00
  -14    2    9     10.47      0.00
  -14    2    8     -0.22      0.00
  -14    2    7     13.66      0.00
  -14    2    6     -0.68      0.00
  -14    2    5     -5.79      0.00
  -14    2    4      0.62      0.00
  -14    2    3     -5.33      0.00
  -14    2    2      3.99      0.00
  -14    2    1     -0.48      0.00
   14    2    0      1.90      0.00
   14    2    1     -1.27      0.00
   14    2    2      1.78      0.00
   14    2    3     -1.37      0.00
   14    2    4     -0.09      0.00
   14    2    5      0.52      0.00
   14    2    6      1.68      0.00
   14    2    7     -0.75      0.00
   14    2    8     -1.47      0.00
  -14    4   19      0.06      0.00
  -14    4   18      1.52      0.00
  -14    4   17     -1.27      0.00
  -14    4   16     -0.39      0.00
  -14    4   15     -0.77      0.00
  -14    4   14     -0.38      0.00
  -14    4   13      1.63      0.00
  -14    4   12      1.06      0.00
  -14    4   11      0.69      0.00
  -14    4   10      4.24      0.00
  -14    4    9     -4.20      0.00
  -14    4    8     -1.49      0.00
  -14    4    7     -0.80      0.00
  -14    4    6     -9.90      0.00
  -14    4    5      2.89      0.00
  -14    4    4      1.99      0.00
  -14    4    3      3.43      0.00
  -14    4    2      0.62      0.00
  -14    4    1      2.25      0.00
   14    4    0      1.51      0.00
   14    4    1     -0.01      0.00
   14    4    2     -3.28      0.00
   14    4    3     -2.65      0.00
   14    4    4     -1.63      0.00
   14    4    5     -4.80      0.00
   14    4    6      0.99      0.00
   14    4    7     -1.67      0.00
   14    4    8      0.23      0.00
  -14    6   19      2.85      0.00
  -14    6   18      1.11      0.00
  -14    6   17     -1.69      0.00
  -14    6   16      0.14      0.00
  -14    6   15     -0.53      0.00
  -14    6   14     -2.48      0.00
  -14    6   13      0.91      0.00
  -14    6   12      0.76      0.00
  -14    6   11     -1.80      0.00
  -14    6   10     -3.90      0.00
  -14    6    9     -6.71      0.00
  -14    6    8      2.08      0.00
  -14    6    7     -2.34      0.00
  -14    6    6      3.11      0.00
  -14    6    5      5.42      0.00
  -14    6    4     -2.88      0.00
  -14    6    3      1.75      0.00
  -14    6    2     -2.29      0.00
  -14    6    1     -1.91      0.00
   14    6    0     -5.18      0.00
   14    6    1     -1.27      0.00
   14    6    2      2.14      0.00
   14    6    3      0.88      0.00
   14    6    4      0.06      0.00
   14    6    5     -1.94      0.00
   14    6    6     -0.77      0.00
   14    6    7      0.38      0.00
   14    6    8      0.82      0.00
  -14    8   18     -2.50      0.00
  -14    8   17     -0.25      0.00
  -14    8   16     -3.32      0.00
  -14    8   15      0.01      0.00
  -14    8   14      1.93      0.00
  -14    8   13     -2.15      0.00
  -14    8   12     -1.16      0.00
  -14    8   11      3.33      0.00
  -14    8   10     -0.37      0.00
  -14    8    9     -1.47      0.00
  -14    8    8     -0.14      0.00
  -14    8    7     -0.42      0.00
  -14    8    6      2.72      0.00
  -14    8    5     -1.72      0.00
  -14    8    4     -4.79      0.00
  -14    8    3     -7.90      0.00
  -14    8    2     -2.42      0.00
  -14    8    1      0.31      0.00
   14    8    0     -2.42      0.00
   14    8    1     -0.60      0.00
   14    8    2      0.23      0.00
   14    8    3     -1.13      0.00
   14    8    4      0.93      0.00
   14    8    5      3.18      0.00
   14    8    6     -0.69      0.00
   14    8    7     -1.54      0.00
  -14   10   16     -0.24      0.00
  -14   10   15      0.57      0.00
  -14   10   14      2.36      0.00
  -14   10   13     -1.63      0.00
  -14   10   12     -0.83      0.00
  -14   10   11     -0.59      0.00
  -14   10   10     -0.98      0.00
  -14   10    9      6.01      0.00
  -14   10    8      1.11      0.00
  -14   10    7     -1.45      0.00
  -14   10    6     -5.69      0.00
  -14   10    5     -3.45      0.00
  -14   10    4      2.16      0.00
  -14   10    3      2.31      0.00
  -14   10    2      0.10      0.00
  -14   10    1     -0.18      0.00
   14   10    0      3.22      0.00
   14   10    1     -1.50      0.00
   14   10    2     -3.58      0.00
   14   10    3     -1.43      0.00
   14   10    4     -0.42      0.00
   14   10    5     -0.99      0.00
  -14   12   15     -0.54      0.00
  -14   12   14     -1.53      0.00
  -14   12   13      0.34      0.00
  -14   12   12     -0.48      0.00
  -14   12   11     -0.08      0.00
  -14   12   10      1.05      0.00
  -14   12    9     -3.62      0.00
  -14   12    8     -2.70      0.00
  -14   12    7     -1.14      0.00
  -14   12    6     -2.48      0.00
  -14   12    5      0.66      0.00
  -14   12    4      1.46      0.00
  -14   12    3      3.24      0.00
  -14   12    2      1.07      0.00
  -14   12    1     -3.19      0.00
   14   12    0      0.87      0.00
   14   12    1      2.97      0.00
   14   12    2     -1.61      0.00
   14   12    3      2.90      0.00
   14   12    4     -2.87      0.00
   14   12    5      3.13      0.00
  -14   14   14     -0.04      0.00
  -14   14   13      1.33      0.00
  -14   14   12      0.22      0.00
  -14   14   11     -4.08      0.00
  -14   14   10     -1.18      0.00
  -14   14    9     -0.99      0.00
  -14   14    8      0.50      0.00
  -14   14    7      0.22      0.00
  -14   14    6      3.29      0.00
  -14   14    5      1.78      0.00
  -14   14    4      0.44      0.00
  -14   14    3      0.16      0.00
  -14   14    2     -3.21      0.00
  -14   14    1     -1.30      0.00
   14   14    0     -0.16      0.00
   14   14    1      0.79      0.00
   14   14    2      6.44      0.00
   14   14    3     -3.38      0.00
  -14   16   11      2.23      0.00
  -14   16   10      0.94      0.00
  -14   16    9      1.18      0.00
  -14   16    8      2.13      0.00
  -14   16    7      1.32      0.00
  -14   16    6      0.12      0.00
  -14   16    5      0.24      0.00
  -14   16    4     -0.99      0.00
  -14   16    3     -1.26      0.00
  -14   16    2     -2.64      0.00
  -14   16    1      1.87      0.00
  -15    1   19      2.67      0.00
  -15    1   18     -1.17      0.00
  -15    1   17      1.68      0.00
  -15    1   16      1.99      0.00
  -15    1   15     -2.19      0.00
  -15    1   14     -2.03      0.00
  -15    1   13     -6.01      0.00
  -15    1   12     -2.57      0.00
  -15    1   11     -0.62      0.00
  -15    1   10     -3.99      0.00
  -15    1    9      9.53      0.00
  -15    1    8     -0.75      0.00
  -15    1    7     13.76      0.00
  -15    1    6      8.04      0.00
  -15    1    5      0.83      0.00
  -15    1    4      5.07      0.00
  -15    1    3     -0.82      0.00
  -15    1    2      1.00      0.00
  -15    1    1      1.37      0.00
   15    1    0      2.74      0.00
   15    1    1      1.24      0.00
   15    1    2      0.11      0.00
   15    1    3     -0.35      0.00
   15    1    4     -0.69      0.00
   15    1    5     -1.24      0.00
   15    1    6      0.42      0.00
   15    1    7     -0.02      0.00
  -15    3   19      0.27      0.00
  -15    3   18      2.97      0.00
  -15    3   17      2.71      0.00
  -15    3   16     -3.36      0.00
  -15    3   15     -2.96      0.00
  -15    3   14      1.46      0.00
  -15    3   13     -0.80      0.00
  -15    3   12      5.32      0.00
  -15    3   11     -0.55      0.00
  -15    3   10     10.20      0.00
  -15    3    9      1.83      0.00
  -15    3    8      0.70      0.00
  -15    3    7      3.17      0.00
  -15    3    6     -6.29      0.00
  -15    3    5     -0.79      0.00
  -15    3    4      0.37      0.00
  -15    3    3      1.46      0.00
  -15    3    2      0.69      0.00
  -15    3    1     -0.73      0.00
   15    3    0     -2.01      0.00
   15    3    1     -2.05      0.00
   15    3    2     -1.42      0.00
   15    3    3     -1.15      0.00
   15    3    4     -0.82      0.00
   15    3    5     -2.34      0.00
   15    3    6     -0.38      0.00
   15    3    7     -0.54      0.00
  -15    5   18      3.30      0.00
  -15    5   17     -1.18      0.00
  -15    5   16      1.52      0.00
  -15    5   15      1.70      0.00
  -15    5   14     -0.47      0.00
  -15    5   13      2.83      0.00
  -15    5   12     -2.48      0.00
  -15    5   11      3.07      0.00
  -15    5   10      0.08      0.00
  -15    5    9     -4.29      0.00
  -15    5    8     -0.82      0.00
  -15    5    7     -1.31      0.00
  -15    5    6     -4.10      0.00
  -15    5    5      3.54      0.00
  -15    5    4      1.47      0.00
  -15    5    3     -0.57      0.00
  -15    5    2      0.04      0.00
  -15    5    1      1.04      0.00
   15    5    0     -0.56      0.00
   15    5    1      0.67      0.00
   15    5    2      0.52      0.00
   15    5    3     -2.26      0.00
   15    5    4      1.17      0.00
   15    5    5     -2.26      0.00
   15    5    6      0.25      0.00
   15    5    7      1.59      0.00
  -15    7   18     -2.73      0.00
  -15    7   17      0.58      0.00
  -15    7   16      0.22      0.00
  -15    7   15     -3.17      0.00
  -15    7   14      3.99      0.00
  -15    7   13     -2.27      0.00
  -15    7   12     -4.86      0.00
  -15    7   11      1.19      0.00
  -15    7   10     -2.55      0.00
  -15    7    9     -0.06      0.00
  -15    7    8      0.02      0.00
  -15    7    7     -0.97      0.00
  -15    7    6      3.15      0.00
  -15    7    5      1.36      0.00
  -15    7    4     -1.42      0.00
  -15    7    3     -1.23      0.00
  -15    7    2     -2.92      0.00
  -15    7    1     -1.35      0.00
   15    7    0      0.17      0.00
   15    7    1     -0.99      0.00
   15    7    2      0.38      0.00
   15    7    3     -1.61      0.00
   15    7    4      0.39      0.00
   15    7    5      0.31      0.00
   15    7    6     -1.31      0.00
  -15    9   16      0.06      0.00
  -15    9   15     -1.69      0.00
  -15    9   14     -2.28      0.00
  -15    9   13     -0.34      0.00
  -15    9   12      1.14      0.00
  -15    9   11     -3.54      0.00
  -15    9   10     -3.04      0.00
  -15    9    9      0.85      0.00
  -15    9    8      0.45      0.00
  -15    9    7      4.65      0.00
  -15    9    6     -0.53      0.00
  -15    9    5     -3.84      0.00
  -15    9    4     -3.94      0.00
  -15    9    3      2.38      0.00
  -15    9    2      1.54      0.00
  -15    9    1     -0.08      0.00
   15    9    0     -2.37      0.00
   15    9    1     -2.34      0.00
   15    9    2     -0.40      0.00
   15    9    3      1.08      0.00
   15    9    4     -1.09      0.00
   15    9    5     -0.48      0.00
  -15   11   15      2.56      0.00
  -15   11   14     -2.11      0.00
  -15   11   13      0.90      0.00
  -15   11   12      2.77      0.00
  -15   11   11      0.36      0.00
  -15   11   10      5.01      0.00
  -15   11    9     -0.53      0.00
  -15   11    8     -1.87      0.00
  -15   11    7      0.47      0.00
  -15   11    6     -0.00      0.00
  -15   11    5     -0.14      0.00
  -15   11    4     -0.90      0.00
  -15   11    3      1.21      0.00
  -15   11    2      0.84      0.00
  -15   11    1     -0.15      0.00
   15   11    0      2.57      0.00
   15   11    1      2.06      0.00
   15   11    2      2.94      0.00
   15   11    3      0.37      0.00
   15   11    4      2.85      0.00
  -15   13   14      0.25      0.00
  -15   13   13      0.79      0.00
  -15   13   12      0.81      0.00
  -15   13   11      1.94      0.00
  -15   13   10     -0.81      0.00
  -15   13    9     -4.57      0.00
  -15   13    8      0.85      0.00
  -15   13    7     -3.27      0.00
  -15   13    6     -0.45      0.00
  -15   13    5      1.52      0.00
  -15   13    4      1.45      0.00
  -15   13    3      0.57      0.00
  -15   13    2     -0.79      0.00
  -15   13    1      1.26      0.00
   15   13    0     -0.27      0.00
   15   13    1      2.49      0.00
   15   13    2     -3.11      0.00
  -15   15   11     -0.28      0.00
  -15   15   10     -3.87      0.00
  -15   15    9      1.86      0.00
  -15   15    8      0.50      0.00
  -15   15    7      2.36      0.00
  -15   15    6     -0.58      0.00
  -15   15    5      0.94      0.00
  -15   15    4      0.58      0.00
  -15   15    3     -0.22      0.00
  -15   15    2     -0.47      0.00
  -15   15    1     -0.22      0.00
  -16    0   18      0.15      0.00
  -16    0   16      4.43      0.00
  -16    0   14      2.94      0.00
  -16    0   12     -1.76      0.00
  -16    0   10     -6.48      0.00
  -16    0    8     -2.53      0.00
  -16    0    6      2.18      0.00
  -16    0    4      1.62      0.00
  -16    0    2      0.94      0.00
   16    0    0      3.22      0.00
   16    0    2      1.21      0.00
   16    0    4     -1.17      0.00
  -16    2   18     -1.44      0.00
  -16    2   17      2.70      0.00
  -16    2   16      0.36      0.00
  -16    2   15     -4.59      0.00
  -16    2   14     -1.71      0.00
  -16    2   13     -3.54      0.00
  -16    2   12      0.92      0.00
  -16    2   11      0.62      0.00
  -16    2   10      3.07      0.00
  -16    2    9      2.65      0.00
  -16    2    8      3.02      0.00
  -16    2    7      3.00      0.00
  -16    2    6      0.67      0.00
  -16    2    5     -0.14      0.00
  -16    2    4      0.78      0.00
  -16    2    3     -0.62      0.00
  -16    2    2      2.32      0.00
  -16    2    1      3.12      0.00
   16    2    0     -1.60      0.00
   16    2    1      0.97      0.00
   16    2    2     -0.26      0.00
   16    2    3      0.39      0.00
   16    2    4     -0.41      0.00
   16    2    5      0.47      0.00
   16    2    6     -0.79      0.00
  -16    4   18      1.57      0.00
  -16    4   17     -3.58      0.00
  -16    4   16     -1.82      0.00
  -16    4   15      1.27      0.00
  -16    4   14      0.99      0.00
  -16    4   13      3.95      0.00
  -16    4   12      1.14      0.00
  -16    4   11      2.64      0.00
  -16    4   10      1.68      0.00
  -16    4    9      1.75      0.00
  -16    4    8     -3.71      0.00
  -16    4    7      0.76      0.00
  -16    4    6      0.81      0.00
  -16    4    5      0.10      0.00
  -16    4    4      2.64      0.00
  -16    4    3     -0.93      0.00
  -16    4    2     -0.54      0.00
  -16    4    1     -1.95      0.00
   16    4    0     -0.13      0.00
   16    4    1     -0.68      0.00
   16    4    2     -0.59      0.00
   16    4    3     -1.90      0.00
   16    4    4      0.73      0.00
   16    4    5     -1.31      0.00
  -16    6   17      0.58      0.00
  -16    6   16      1.99      0.00
  -16    6   15     -1.01      0.00
  -16    6   14      1.50      0.00
  -16    6   13     -0.10      0.00
  -16    6   12     -0.96      0.00
  -16    6   11      0.20      0.00
  -16    6   10     -0.43      0.00
  -16    6    9     -0.88      0.00
  -16    6    8     -1.06      0.00
  -16    6    7     -0.71      0.00
  -16    6    6     -3.27      0.00
  -16    6    5      3.77      0.00
  -16    6    4     -2.73      0.00
  -16    6    3     -0.77      0.00
  -16    6    2     -1.32      0.00
  -16    6    1     -0.29      0.00
   16    6    0     -0.53      0.00
   16    6    1     -0.52      0.00
   16    6    2     -0.55      0.00
   16    6    3     -2.21      0.00
   16    6    4     -0.49      0.00
   16    6    5      0.43      0.00
  -16    8   16      1.59      0.00
  -16    8   15      2.62      0.00
  -16    8   14     -4.84      0.00
  -16    8   13     -2.41      0.00
  -16    8   12      2.58      0.00
  -16    8   11     -1.25      0.00
  -16    8   10     -0.11      0.00
  -16    8    9      0.05      0.00
  -16    8    8     -2.47      0.00
  -16    8    7     -1.47      0.00
  -16    8    6     -0.61      0.00
  -16    8    5      0.81      0.00
  -16    8    4     -3.59      0.00
  -16    8    3     -0.49      0.00
  -16    8    2     -1.80      0.00
  -16    8    1      2.12      0.00
   16    8    0     -1.19      0.00
   16    8    1      0.98      0.00
   16    8    2      2.44      0.00
   16    8    3      2.66      0.00
   16    8    4     -1.56      0.00
  -16   10   15     -2.05      0.00
  -16   10   14     -1.16      0.00
  -16   10   13     -3.70      0.00
  -16   10   12     -2.56      0.00
  -16   10   11      0.54      0.00
  -16   10   10      2.00      0.00
  -16   10    9     -0.19      0.00
  -16   10    8      1.22      0.00
  -16   10    7     -1.12      0.00
  -16   10    6      0.90      0.00
  -16   10    5      2.21      0.00
  -16   10    4      1.71      0.00
  -16   10    3      1.81      0.00
  -16   10    2      0.48      0.00
  -16   10    1     -1.61      0.00
   16   10    0      1.66      0.00
   16   10    1     -0.50      0.00
   16   10    2     -0.19      0.00
  -16   12   14      0.61      0.00
  -16   12   13      3.20      0.00
  -16   12   12      0.35      0.00
  -16   12   11      1.74      0.00
  -16   12   10      2.17      0.00
  -16   12    9     -1.61      0.00
  -16   12    8      3.58      0.00
  -16   12    7      0.85      0.00
  -16   12    6      0.12      0.00
  -16   12    5     -0.51      0.00
  -16   12    4      1.32      0.00
  -16   12    3     -0.19      0.00
  -16   12    2     -0.01      0.00
  -16   12    1     -0.26      0.00
   16   12    0     -1.40      0.00
   16   12    1     -2.58      0.00
  -16   14   11      1.76      0.00
  -16   14   10     -4.48      0.00
  -16   14    9      0.50      0.00
  -16   14    8     -0.41      0.00
  -16   14    7      2.24      0.00
  -16   14    6     -0.52      0.00
  -16   14    5     -0.49      0.00
  -16   14    4     -0.97      0.00
  -16   14    3      0.96      0.00
  -16   14    2      1.42      0.00
  -17    1   17     -2.18      0.00
  -17    1   16     -0.26      0.00
  -17    1   15     -0.69      0.00
  -17    1   14      0.23      0.00
  -17    1   13      1.00      0.00
  -17    1   12     -1.98      0.00
  -17    1   11     -0.34      0.00
  -17    1   10      1.86      0.00
  -17    1    9      1.14      0.00
  -17    1    8      2.01      0.00
  -17    1    7     -1.49      0.00
  -17    1    6      1.26      0.00
  -17    1    5     -0.74      0.00
  -17    1    4      3.88      0.00
  -17    1    3      0.22      0.00
  -17    1    2      0.04      0.00
  -17    1    1      0.60      0.00
   17    1    0      1.97      0.00
   17    1    1     -2.20      0.00
   17    1    2      0.20      0.00
   17    1    3     -0.58      0.00
   17    1    4      3.71      0.00
  -17    3   17     -1.15      0.00
  -17    3   16     -0.94      0.00
  -17    3   15     -1.64      0.00
  -17    3   14     -0.09      0.00
  -17    3   13     -0.84      0.00
  -17    3   12      0.56      0.00
  -17    3   11      0.52      0.00
  -17    3   10     -3.63      0.00
  -17    3    9      3.76      0.00
  -17    3    8     -1.31      0.00
  -17    3    7     -2.02      0.00
  -17    3    6     -0.63      0.00
  -17    3    5      0.64      0.00
  -17    3    4      0.43      0.00
  -17    3    3     -0.57      0.00
  -17    3    2      1.62      0.00
  -17    3    1     -1.84      0.00
   17    3    0     -0.58      0.00
   17    3    1     -0.53      0.00
   17    3    2     -1.10      0.00
   17    3    3     -0.29      0.00
   17    3    4     -3.28      0.00
  -17    5   17      0.05      0.00
  -17    5   16      0.29      0.00
  -17    5   15      1.82      0.00
  -17    5   14      1.52      0.00
  -17    5   13     -0.06      0.00
  -17    5   12      1.69      0.00
  -17    5   11      0.29      0.00
  -17    5   10      0.42      0.00
  -17    5    9      1.05      0.00
  -17    5    8     -1.69      0.00
  -17    5    7      4.27      0.00
  -17    5    6     -3.26      0.00
  -17    5    5      1.70      0.00
  -17    5    4     -2.11      0.00
  -17    5    3      1.09      0.00
  -17    5    2     -1.41      0.00
  -17    5    1      0.23      0.00
   17    5    0     -0.54      0.00
   17    5    1     -0.89      0.00
   17    5    2     -0.38      0.00
   17    5    3     -3.20      0.00
   17    5    4      0.17      0.00
  -17    7   16     -1.54      0.00
  -17    7   15      4.79      0.00
  -17    7   14     -1.34      0.00
  -17    7   13     -1.55      0.00
  -17    7   12      2.30      0.00
  -17    7   11     -0.88      0.00
  -17    7   10      0.94      0.00
  -17    7    9     -1.97      0.00
  -17    7    8      0.92      0.00
  -17    7    7     -0.56      0.00
  -17    7    6     -1.35      0.00
  -17    7    5      0.32      0.00
  -17    7    4     -3.26      0.00
  -17    7    3      0.29      0.00
  -17    7    2     -1.76      0.00
  -17    7    1      0.68      0.00
   17    7    0      0.99      0.00
   17    7    1     -0.68      0.00
   17    7    2      2.94      0.00
   17    7    3     -1.54      0.00
  -17    9   15     -3.88      0.00
  -17    9   14     -0.10      0.00
  -17    9   13      2.56      0.00
  -17    9   12     -4.27      0.00
  -17    9   11      0.07      0.00
  -17    9   10      0.94      0.00
  -17    9    9     -2.96      0.00
  -17    9    8      0.41      0.00
  -17    9    7     -2.94      0.00
  -17    9    6      0.72      0.00
  -17    9    5     -1.16      0.00
  -17    9    4     -1.11      0.00
  -17    9    3     -1.24      0.00
  -17    9    2      0.57      0.00
  -17    9    1     -0.31      0.00
   17    9    0     -1.73      0.00
   17    9    1     -0.34      0.00
  -17   11   13     -1.08      0.00
  -17   11   12      1.52      0.00
  -17   11   11     -0.24      0.00
  -17   11   10     -1.06      0.00
  -17   11    9     -0.96      0.00
  -17   11    8     -1.32      0.00
  -17   11    7      0.28      0.00
  -17   11    6      1.12      0.00
  -17   11    5      0.70      0.00
  -17   11    4      0.77      0.00
  -17   11    3     -1.18      0.00
  -17   11    2      1.78      0.00
  -17   11    1      2.17      0.00
   17   11    0      0.91      0.00
  -17   13   10      0.10      0.00
  -17   13    9      0.67      0.00
  -17   13    8     -1.18      0.00
  -17   13    7      2.17      0.00
  -17   13    6      2.62      0.00
  -17   13    5      3.01      0.00
  -17   13    3      2.21      0.00
  -18    0   16     -1.80      0.00
  -18    0   14     -2.21      0.00
  -18    0   12     -0.59      0.00
  -18    0   10     -1.13      0.00
  -18    0    8      4.67      0.00
  -18    0    6      4.03      0.00
  -18    0    4      1.65      0.00
  -18    0    2      2.65      0.00
   18    0    0     -4.32      0.00
   18    0    2      1.71      0.00
  -18    2   16     -0.29      0.00
  -18    2   15      0.90      0.00
  -18    2   14      0.81      0.00
  -18    2   13     -1.13      0.00
  -18    2   12      1.11      0.00
  -18    2   11      5.33      0.00
  -18    2   10     -0.50      0.00
  -18    2    9      1.81      0.00
  -18    2    8      0.10      0.00
  -18    2    7      1.29      0.00
  -18    2    6     -2.41      0.00
  -18    2    5      2.70      0.00
  -18    2    4      1.88      0.00
  -18    2    3     -2.16      0.00
  -18    2    2      1.38      0.00
  -18    2    1     -0.12      0.00
   18    2    0      1.73      0.00
   18    2    1     -1.33      0.00
   18    2    2     -0.51      0.00
  -18    4   16     -0.28      0.00
  -18    4   15     -0.42      0.00
  -18    4   14      0.06      0.00
  -18    4   13     -2.34      0.00
  -18    4   12      0.27      0.00
  -18    4   11     -0.78      0.00
  -18    4   10     -1.15      0.00
  -18    4    9      0.33      0.00
  -18    4    8     -3.98      0.00
  -18    4    7     -0.67      0.00
  -18    4    6      0.08      0.00
  -18    4    5      3.00      0.00
  -18    4    4     -2.98      0.00
  -18    4    3      1.61      0.00
  -18    4    2     -1.99      0.00
  -18    4    1      1.62      0.00
   18    4    0      0.47      0.00
   18    4    1     -0.14      0.00
   18    4    2     -3.61      0.00
  -18    6   16     -2.29      0.00
  -18    6   15      0.26      0.00
  -18    6   14     -0.98      0.00
  -18    6   13     -1.62      0.00
  -18    6   12      0.86      0.00
  -18    6   11     -2.14      0.00
  -18    6   10      2.45      0.00
  -18    6    9     -0.49      0.00
  -18    6    8     -1.27      0.00
  -18    6    7     -1.35      0.00
  -18    6    6     -0.29      0.00
  -18    6    5      0.39      0.00
  -18    6    4      0.47      0.00
  -18    6    3     -0.52      0.00
  -18    6    2     -2.10      0.00
  -18    6    1     -1.38      0.00
   18    6    0     -2.81      0.00
   18    6    1     -0.80      0.00
  -18    8   13      4.79      0.00
  -18    8   12      1.51      0.00
  -18    8   11      1.34      0.00
  -18    8   10      0.84      0.00
  -18    8    9     -0.43      0.00
  -18    8    8      0.87      0.00
  -18    8    7     -1.80      0.00
  -18    8    6      0.33      0.00
  -18    8    5     -0.37      0.00
  -18    8    4      1.05      0.00
  -18    8    3     -1.16      0.00
  -18    8    2     -0.46      0.00
  -18    8    1      0.00      0.00
   18    8    0      4.70      0.00
  -18   10   11     -1.59      0.00
  -18   10   10     -1.64      0.00
  -18   10    9     -0.11      0.00
  -18   10    8     -0.15      0.00
  -18   10    7      2.00      0.00
  -18   10    6     -0.38      0.00
  -18   10    5     -0.47      0.00
  -18   10    4     -0.50      0.00
  -18   10    3     -0.07      0.00
  -18   10    2     -0.97      0.00
  -19    1   15      0.66      0.00
  -19    1   14      3.33      0.00
  -19    1   13     -4.82      0.00
  -19    1   12     -2.40      0.00
  -19    1   11     -0.89      0.00
  -19    1   10     -0.67      0.00
  -19    1    9      3.46      0.00
  -19    1    8      0.68      0.00
  -19    1    7      3.75      0.00
  -19    1    6      0.26      0.00
  -19    1    5     -0.86      0.00
  -19    1    4      2.48      0.00
  -19    1    3     -0.46      0.00
  -19    1    2     -1.05      0.00
  -19    1    1     -3.08      0.00
   19    1    0     -0.58      0.00
  -19    3   15      0.64      0.00
  -19    3   14     -2.15      0.00
  -19    3   13     -0.59      0.00
  -19    3   12      2.29      0.00
  -19    3   11      0.81      0.00
  -19    3   10      0.90      0.00
  -19    3    9      2.30      0.00
  -19    3    8      0.10      0.00
  -19    3    7     -1.31      0.00
  -19    3    6     -2.14      0.00
  -19    3    5      1.26      0.00
  -19    3    4     -2.46      0.00
  -19    3    3      0.39      0.00
  -19    3    2      0.34      0.00
  -19    3    1     -0.63      0.00
   19    3    0      2.09      0.00
  -19    5   14     -1.86      0.00
  -19    5   13      1.25      0.00
  -19    5   12      3.02      0.00
  -19    5   11     -0.33      0.00
  -19    5   10     -1.78      0.00
  -19    5    9     -0.52      0.00
  -19    5    8     -1.53      0.00
  -19    5    7     -1.71      0.00
  -19    5    6      0.34      0.00
  -19    5    5     -2.31      0.00
  -19    5    4     -0.11      0.00
  -19    5    3      1.09      0.00
  -19    5    2      0.69      0.00
  -19    5    1      2.26      0.00
   19    5    0     -2.58      0.00
  -19    7   12     -0.72      0.00
  -19    7   11     -0.64      0.00
  -19    7   10     -0.76      0.00
  -19    7    9     -2.64      0.00
  -19    7    8     -1.47      0.00
  -19    7    7     -0.20      0.00
  -19    7    6      1.04      0.00
  -19    7    5      0.44      0.00
  -19    7    4     -0.09      0.00
  -19    7    3     -1.99      0.00
  -19    7    2     -0.66      0.00
  -19    9    9     -0.27      0.00
  -19    9    8     -1.06      0.00
  -19    9    7      1.85      0.00
  -19    9    6      1.33      0.00
  -19    9    5      2.66      0.00
  -19    9    4     -2.23      0.00
  -20    0   12     -0.89      0.00
  -20    0   10     -5.65      0.00
  -20    0    8     -1.10      0.00
  -20    0    6      3.02      0.00
  -20    0    4      3.92      0.00
  -20    2   14     -3.96      0.00
  -20    2   13     -4.89      0.00
  -20    2   12      0.34      0.00
  -20    2   11     -0.74      0.00
  -20    2   10      1.95      0.00
  -20    2    9      4.04      0.00
  -20    2    8      1.47      0.00
  -20    2    7      1.16      0.00
  -20    2    6      0.83      0.00
  -20    2    5     -0.35      0.00
  -20    2    4     -0.05      0.00
  -20    2    3     -5.90      0.00
  -20    2    2      0.66      0.00
  -20    4   13     -0.09      0.00
  -20    4   12      1.16      0.00
  -20    4   11      2.38      0.00
  -20    4   10      2.31      0.00
  -20    4    9     -1.41      0.00
  -20    4    8     -1.84      0.00
  -20    4    7     -0.90      0.00
  -20    4    6     -2.31      0.00
  -20    4    5      0.64      0.00
  -20    4    4     -2.11      0.00
  -20    4    3      1.22      0.00
  -20    6   11     -0.97      0.00
  -20    6   10     -0.42      0.00
  -20    6    9     -3.26      0.00
  -20    6    8     -1.44      0.00
  -20    6    7     -2.78      0.00
  -20    6    6     -1.75      0.00
  -20    6    5     -1.36      0.00
  -21    1    9      0.39      0.00
  -21    1    8      1.88      0.00
  -21    1    7     -0.97      0.00
  -21    3    9      2.89      0.00
  -21    3    8     -2.27      0.00
   20    0    0     -2.65      0.00
   20    2    0      1.65      0.00
   20    4    0      2.15      0.00
   19    7    0      1.75      0.00
   19    9    0      2.54      0.00
   18   10    0      1.32      0.00
   17   13    0      1.01      0.00
   16   14    0     -0.15      0.00
   15   15    0      0.11      0.00
   14   16    0      2.82      0.00
   13   17    0      1.83      0.00
   14   18    0     -1.78      0.00
   13   19    0     -2.81      0.00
    9   21    0      0.52      0.00
    8   22    0      2.30      0.00
    5   23    0      4.62      0.00
    7   23    0      2.76      0.00
   19    1    1     -4.05      0.00
  -20    2    1     -1.10      0.00
   20    2    1      0.38      0.00
   19    3    1     -2.20      0.00
  -20    4    1      2.50      0.00
   19    5    1      2.75      0.00
  -20    6    1     -3.34      0.00
  -19    7    1     -6.81      0.00
   19    7    1      1.45      0.00
   18    8    1     -2.70      0.00
  -19    9    1      3.30      0.00
  -18   10    1      0.44      0.00
   18   10    1      2.50      0.00
   17   11    1      1.67      0.00
  -18   12    1      0.41      0.00
  -17   13    1     -0.60      0.00
  -16   14    1      0.51      0.00
   16   14    1      0.54      0.00
   15   15    1     -2.43      0.00
   14   16    1     -2.34      0.00
  -15   17    1      0.57      0.00
   13   17    1      5.11      0.00
  -14   18    1      2.77      0.00
   12   18    1      3.00      0.00
  -13   19    1     -1.71      0.00
   11   19    1      1.05      0.00
  -12   20    1     -1.35      0.00
   10   20    1      1.36      0.00
  -11   21    1     -3.42      0.00
    9   21    1     -4.91      0.00
   -8   22    1     -0.46      0.00
    8   22    1     -2.40      0.00
   -7   23    1     -0.18      0.00
   -5   23    1      0.41      0.00
   -3   23    1      1.45      0.00
   -1   23    1      2.48      0.00
    5   23    1     -0.56      0.00
  -20    0    2      1.41      0.00
  -21    1    2      0.17      0.00
   19    1    2     -2.46      0.00
  -21    3    2      0.08      0.00
   19    3    2      2.57      0.00
  -20    4    2     -1.40      0.00
   19    5    2     -1.62      0.00
  -20    6    2      3.16      0.00
   18    6    2      0.56      0.00
  -20    8    2     -4.53      0.00
   18    8    2      2.59      0.00
  -19    9    2     -1.91      0.00
   17    9    2     -3.60      0.00
  -19   11    2      1.33      0.00
   17   11    2      0.06      0.00
  -18   12    2      1.55      0.00
   16   12    2      0.62      0.00
  -17   13    2     -1.36      0.00
   15   15    2      1.88      0.00
  -16   16    2     -0.21      0.00
   14   16    2      0.17      0.00
  -15   17    2     -1.67      0.00
   13   17    2     -3.31      0.00
  -14   18    2      3.08      0.00
   12   18    2      2.71      0.00
  -13   19    2     -0.81      0.00
   11   19    2     -0.28      0.00
  -12   20    2      0.57      0.00
   10   20    2     -0.76      0.00
  -11   21    2      1.51      0.00
    9   21    2      2.98      0.00
   -8   22    2     -1.19      0.00
    6   22    2     -2.24      0.00
    8   22    2     -1.55      0.00
   -7   23    2     -1.18      0.00
   -5   23    2      2.25      0.00
   -3   23    2     -2.44      0.00
   -1   23    2      3.42      0.00
    3   23    2      1.97      0.00
    5   23    2     -4.35      0.00
  -21    1    3     -0.56      0.00
   19    1    3     -1.31      0.00
   18    2    3     -6.48      0.00
  -21    3    3      0.41      0.00
   18    4    3      1.27      0.00
  -21    5    3     -1.38      0.00
  -20    6    3     -0.89      0.00
   18    6    3     -1.39      0.00
  -20    8    3      0.14      0.00
   -8    8    3     -1.35      0.00
  -19    9    3      0.12      0.00
   17    9    3      2.17      0.00
   16   10    3      0.75      0.00
  -19   11    3     -0.53      0.00
  -18   12    3      2.65      0.00
   16   12    3     -2.02      0.00
   15   13    3      1.71      0.00
  -17   15    3      1.26      0.00
  -16   16    3      2.69      0.00
   14   16    3      3.26      0.00
  -15   17    3     -2.38      0.00
   13   17    3      3.06      0.00
  -14   18    3      0.25      0.00
   12   18    3      1.19      0.00
  -13   19    3      1.94      0.00
   11   19    3      2.95      0.00
  -12   20    3     -1.66      0.00
   10   20    3      0.98      0.00
  -11   21    3     -0.96      0.00
    7   21    3      0.15      0.00
    9   21    3     -1.16      0.00
  -10   22    3     -1.94      0.00
   -8   22    3     -1.88      0.00
    6   22    3      4.08      0.00
   -7   23    3     -0.58      0.00
   -5   23    3     -3.25      0.00
   -3   23    3      1.33      0.00
   -1   23    3     -2.85      0.00
    3   23    3      0.13      0.00
    5   23    3      0.14      0.00
   18    0    4      1.99      0.00
  -21    1    4      4.42      0.00
   18    2    4      0.27      0.00
  -21    3    4     -3.67      0.00
   18    4    4     -2.19      0.00
  -21    5    4     -0.43      0.00
  -20    6    4      0.72      0.00
   17    7    4     -1.68      0.00
  -20    8    4     -1.37      0.00
   17    9    4      0.63      0.00
   16   10    4      2.21      0.00
  -19   11    4     -0.30      0.00
  -18   12    4     -4.32      0.00
  -17   13    4     -3.16      0.00
   15   13    4     -3.21      0.00
  -18   14    4      1.08      0.00
   14   14    4      1.87      0.00
  -17   15    4     -1.13      0.00
   13   15    4     -3.57      0.00
  -16   16    4      0.27      0.00
  -15   17    4     -0.54      0.00
  -14   18    4     -1.46      0.00
  -13   19    4      0.46      0.00
  -12   20    4      0.46      0.00
    8   20    4      2.14      0.00
  -11   21    4      0.91      0.00
    7   21    4     -1.22      0.00
  -10   22    4      0.44      0.00
   -8   22    4     -1.57      0.00
    4   22    4     -0.73      0.00
    6   22    4     -2.40      0.00
   -7   23    4     -2.11      0.00
   -5   23    4      2.04      0.00
   -3   23    4     -0.85      0.00
   -1   23    4      2.99      0.00
    1   23    4     -1.67      0.00
    3   23    4      3.93      0.00
  -21    1    5      1.87      0.00
   17    1    5     -1.18      0.00
  -21    3    5      1.07      0.00
   17    3    5      0.68      0.00
  -21    5    5     -1.04      0.00
   17    5    5     -0.54      0.00
  -21    7    5     -0.75      0.00
   17    7    5     -0.06      0.00
  -20    8    5      0.55      0.00
   16    8    5     -0.33      0.00
  -20   10    5     -0.75      0.00
   16   10    5     -0.05      0.00
  -19   11    5      2.52      0.00
   15   11    5      3.82      0.00
  -18   12    5      2.69      0.00
  -18   14    5     -0.70      0.00
   14   14    5     -2.04      0.00
  -17   15    5     -1.06      0.00
   13   15    5      1.40      0.00
  -16   16    5      0.60      0.00
   12   16    5     -0.10      0.00
  -15   17    5      0.78      0.00
   11   17    5      4.55      0.00
  -14   18    5     -1.03      0.00
   10   18    5      0.11      0.00
  -13   19    5      0.40      0.00
    9   19    5     -0.93      0.00
  -12   20    5     -0.60      0.00
    8   20    5     -1.92      0.00
  -11   21    5     -0.66      0.00
    5   21    5      6.23      0.00
    7   21    5      4.57      0.00
   -8   22    5     -0.51      0.00
    4   22    5     -2.10      0.00
    6   22    5     -0.17      0.00
   -7   23    5      0.56      0.00
   -5   23    5     -2.87      0.00
   -3   23    5      2.46      0.00
   -1   23    5     -2.66      0.00
    1   23    5      1.46      0.00
    3   23    5     -1.83      0.00
   16    0    6      2.55      0.00
  -21    1    6      2.84      0.00
   17    1    6      1.01      0.00
  -21    3    6     -2.27      0.00
   17    3    6     -3.19      0.00
   16    4    6      0.51      0.00
  -21    5    6      1.27      0.00
   16    6    6     -0.43      0.00
  -21    7    6     -0.29      0.00
  -20    8    6     -1.57      0.00
   16    8    6      1.63      0.00
   15    9    6      2.15      0.00
  -20   10    6      0.26      0.00
   14   10    6     -1.83      0.00
  -19   11    6     -2.26      0.00
   15   11    6     -0.03      0.00
  -18   12    6     -1.97      0.00
   14   12    6      2.55      0.00
   13   13    6      1.24      0.00
  -18   14    6      1.61      0.00
  -17   15    6     -0.48      0.00
  -16   16    6     -1.30      0.00
   12   16    6     -0.34      0.00
  -15   17    6      1.14      0.00
   11   17    6     -0.13      0.00
  -14   18    6     -1.50      0.00
   10   18    6      3.42      0.00
  -13   19    6     -0.09      0.00
    9   19    6      0.79      0.00
  -12   20    6     -0.22      0.00
    6   20    6     -8.34      0.00
    8   20    6     -2.62      0.00
  -11   21    6      0.99      0.00
    5   21    6      0.80      0.00
   -8   22    6     -1.32      0.00
   -6   22    6      2.74      0.00
   -4   22    6     -1.07      0.00
    2   22    6      2.73      0.00
    4   22    6      5.97      0.00
   -7   23    6     -1.97      0.00
   -5   23    6      2.12      0.00
   -3   23    6     -1.77      0.00
   -1   23    6     -0.08      0.00
    1   23    6     -2.49      0.00
   16    2    7      1.74      0.00
  -21    3    7      3.77      0.00
   16    4    7     -1.96      0.00
  -21    5    7     -2.32      0.00
   16    6    7     -0.14      0.00
  -21    7    7     -0.80      0.00
   15    7    7     -2.22      0.00
  -20    8    7      1.34      0.00
   15    9    7      0.90      0.00
  -20   10    7      2.75      0.00
   14   10    7      1.36      0.00
  -19   11    7      1.02      0.00
   13   11    7     -1.98      0.00
  -18   12    7     -2.69      0.00
   13   13    7      0.25      0.00
  -18   14    7      1.89      0.00
   12   14    7     -0.07      0.00
  -17   15    7      0.24      0.00
   11   15    7     -0.81      0.00
  -16   16    7     -2.45      0.00
   10   16    7      1.19      0.00
  -15   17    7     -0.89      0.00
    9   17    7     -5.21      0.00
  -14   18    7     -0.30      0.00
    8   18    7     -0.45      0.00
  -13   19    7      0.72      0.00
    7   19    7      2.04      0.00
  -12   20    7     -1.46      0.00
    6   20    7      4.00      0.00
  -11   21    7      3.10      0.00
   -9   21    7      0.91      0.00
    3   21    7     -5.71      0.00
    5   21    7     -5.12      0.00
   -8   22    7      1.43      0.00
   -6   22    7     -1.91      0.00
   -4   22    7      2.78      0.00
    0   22    7      2.62      0.00
    2   22    7     -0.20      0.00
   -5   23    7     -0.36      0.00
   -3   23    7      3.25      0.00
   -1   23    7      1.40      0.00
   15    1    8     -0.60      0.00
   15    3    8     -1.35      0.00
  -21    5    8      0.49      0.00
   15    5    8      1.41      0.00
  -21    7    8     -2.76      0.00
   15    7    8      1.39      0.00
  -20    8    8     -0.92      0.00
   14    8    8     -1.07      0.00
   13    9    8      1.69      0.00
  -20   10    8      0.95      0.00
   14   10    8      0.87      0.00
  -19   11    8      2.45      0.00
   13   11    8      0.98      0.00
  -18   12    8     -1.48      0.00
   12   12    8      0.16      0.00
  -18   14    8      0.87      0.00
  -17   15    8      2.50      0.00
   11   15    8      0.17      0.00
  -16   16    8      1.40      0.00
   10   16    8      0.04      0.00
  -15   17    8     -0.19      0.00
    9   17    8      1.45      0.00
  -14   18    8     -1.41      0.00
    8   18    8     -1.45      0.00
  -13   19    8      0.25      0.00
    5   19    8     -8.08      0.00
    7   19    8     -2.71      0.00
  -12   20    8     -4.73      0.00
    4   20    8      1.86      0.00
    6   20    8     -0.45      0.00
   -9   21    8     -0.92      0.00
    3   21    8      0.76      0.00
   -8   22    8     -2.29      0.00
   -6   22    8      1.88      0.00
   -4   22    8     -0.86      0.00
   -2   22    8      0.24      0.00
    0   22    8     -2.08      0.00
    2   22    8     -1.10      0.00
   15    1    9      1.69      0.00
   14    2    9      0.32      0.00
   14    4    9     -3.56      0.00
  -21    5    9     -3.36      0.00
   14    6    9     -0.05      0.00
  -21    7    9     -1.24      0.00
   13    7    9     -1.40      0.00
  -20    8    9      0.32      0.00
   13    9    9     -2.56      0.00
  -20   10    9     -0.78      0.00
   12   10    9      1.46      0.00
  -19   11    9      0.35      0.00
  -18   12    9      1.16      0.00
   12   12    9      0.84      0.00
   11   13    9      0.20      0.00
  -18   14    9     -0.51      0.00
   10   14    9     -0.69      0.00
  -17   15    9      1.40      0.00
    9   15    9     -0.38      0.00
  -16   16    9      1.30      0.00
    8   16    9     -2.20      0.00
  -15   17    9      1.49      0.00
    7   17    9      1.39      0.00
  -14   18    9     -0.05      0.00
    6   18    9      3.57      0.00
  -13   19    9      4.40      0.00
  -11   19    9      1.56      0.00
    5   19    9      3.51      0.00
  -12   20    9     -1.00      0.00
  -10   20    9     -0.86      0.00
    2   20    9     -1.96      0.00
    4   20    9     -5.08      0.00
   -9   21    9      0.88      0.00
   -7   21    9     -1.51      0.00
   -5   21    9      0.77      0.00
   -1   21    9      0.52      0.00
    1   21    9      1.92      0.00
    3   21    9     -0.64      0.00
   -6   22    9      1.34      0.00
   -4   22    9      1.16      0.00
   -2   22    9     -0.39      0.00
    0   22    9     -1.82      0.00
   14    0   10     -0.28      0.00
  -21    1   10     -2.90      0.00
   14    2   10     -1.79      0.00
  -21    3   10      4.21      0.00
   14    4   10      0.87      0.00
  -21    5   10      1.31      0.00
   13    5   10     -0.58      0.00
  -21    7   10     -4.73      0.00
   13    7   10     -0.12      0.00
  -20    8   10     -1.87      0.00
   12    8   10      1.69      0.00
  -19    9   10      1.54      0.00
   11    9   10     -1.73      0.00
  -20   10   10      1.24      0.00
   12   10   10     -2.04      0.00
  -19   11   10     -1.49      0.00
   11   11   10      0.99      0.00
  -18   12   10      0.41      0.00
   10   12   10      0.66      0.00
  -18   14   10     -0.98      0.00
   10   14   10     -1.34      0.00
  -17   15   10      0.31      0.00
    9   15   10     -1.73      0.00
  -16   16   10      0.67      0.00
    8   16   10     -0.58      0.00
  -15   17   10      1.55      0.00
    7   17   10     -2.99      0.00
  -14   18   10     -3.11      0.00
  -12   18   10     -3.89      0.00
    4   18   10     -2.65      0.00
    6   18   10     -1.35      0.00
  -13   19   10      0.61      0.00
  -11   19   10      1.12      0.00
    3   19   10      4.67      0.00
    5   19   10      1.87      0.00
  -10   20   10      0.06      0.00
    0   20   10     -1.28      0.00
    2   20   10     -0.97      0.00
   -9   21   10     -0.48      0.00
   -7   21   10     -3.24      0.00
   -5   21   10     -2.40      0.00
   -3   21   10     -1.83      0.00
   -1   21   10      4.90      0.00
    1   21   10     -0.96      0.00
  -21    1   11     -4.01      0.00
   13    1   11      2.67      0.00
  -21    3   11      0.20      0.00
   13    3   11     -2.53      0.00
   12    4   11      0.63      0.00
  -21    5   11      2.36      0.00
   12    6   11      0.11      0.00
  -21    7   11      0.06      0.00
  -20    8   11     -1.46      0.00
   12    8   11     -0.22      0.00
  -19    9   11     -0.08      0.00
   11    9   11      2.20      0.00
  -20   10   11      0.49      0.00
   10   10   11     -2.10      0.00
  -19   11   11     -0.84      0.00
  -18   12   11     -0.73      0.00
   10   12   11      0.84      0.00
  -17   13   11      1.52      0.00
    9   13   11      2.61      0.00
    8   14   11      3.40      0.00
  -17   15   11     -1.04      0.00
    7   15   11      1.08      0.00
  -16   16   11     -2.34      0.00
    6   16   11      2.90      0.00
  -15   17   11      1.04      0.00
  -13   17   11      2.47      0.00
    5   17   11      3.99      0.00
  -12   18   11      1.92      0.00
    2   18   11     -0.22      0.00
    4   18   11     -0.45      0.00
  -11   19   11      1.07      0.00
    1   19   11      3.89      0.00
    3   19   11      0.01      0.00
  -10   20   11     -1.00      0.00
   -8   20   11      1.32      0.00
   -6   20   11      0.87      0.00
   -4   20   11      2.30      0.00
   -2   20   11     -2.55      0.00
    0   20   11      1.99      0.00
   -7   21   11     -3.01      0.00
   -5   21   11     -0.11      0.00
   -3   21   11      1.16      0.00
   -1   21   11     -0.55      0.00
   12    0   12     -1.64      0.00
  -21    1   12      0.01      0.00
   12    2   12      0.69      0.00
  -21    3   12      0.10      0.00
   12    4   12      0.09      0.00
  -21    5   12      1.63      0.00
   11    5   12      1.92      0.00
  -20    6   12      0.55      0.00
   11    7   12      1.02      0.00
  -20    8   12      0.90      0.00
   10    8   12     -2.24      0.00
  -19    9   12      4.01      0.00
    9    9   12      1.46      0.00
  -18   10   12      1.04      0.00
   10   10   12      1.22      0.00
  -19   11   12     -2.20      0.00
    9   11   12      0.47      0.00
  -18   12   12     -0.45      0.00
    8   12   12     -2.11      0.00
  -17   13   12      1.08      0.00
    7   13   12     -0.52      0.00
  -16   14   12     -0.31      0.00
  -15   15   12     -3.38      0.00
    7   15   12      1.69      0.00
  -14   16   12     -0.80      0.00
    6   16   12     -0.38      0.00
  -13   17   12     -4.35      0.00
    3   17   12      0.39      0.00
    5   17   12      0.38      0.00
  -12   18   12     -2.72      0.00
  -10   18   12      1.27      0.00
    0   18   12     -2.66      0.00
    2   18   12     -1.38      0.00
  -11   19   12      2.07      0.00
   -9   19   12      0.66      0.00
   -7   19   12      0.11      0.00
   -1   19   12     -1.44      0.00
    1   19   12     -1.18      0.00
   -8   20   12      1.39      0.00
   -6   20   12      0.05      0.00
   -4   20   12     -0.26      0.00
   -2   20   12      0.68      0.00
  -21    1   13     -3.53      0.00
   11    1   13      1.17      0.00
  -21    3   13     -1.04      0.00
   11    3   13     -1.42      0.00
   10    4   13     -2.21      0.00
  -21    5   13      2.59      0.00
  -20    6   13      1.75      0.00
   10    6   13      0.13      0.00
  -19    7   13     -2.18      0.00
    9    7   13      2.16      0.00
  -20    8   13     -0.70      0.00
   10    8   13      0.95      0.00
  -19    9   13      1.33      0.00
    9    9   13     -1.57      0.00
  -18   10   13     -2.00      0.00
    8   10   13     -2.91      0.00
  -19   11   13      1.37      0.00
    7   11   13     -0.12      0.00
  -18   12   13     -1.01      0.00
    2   12   13      1.58      0.00
    8   12   13      1.81      0.00
  -17   13   13      0.50      0.00
    7   13   13     -0.46      0.00
  -16   14   13      2.16      0.00
    6   14   13      0.91      0.00
  -15   15   13     -1.11      0.00
    5   15   13     -0.10      0.00
  -14   16   13      0.86      0.00
  -12   16   13      2.12      0.00
    4   16   13      0.49      0.00
  -13   17   13      0.56      0.00
  -11   17   13     -1.21      0.00
    1   17   13      4.92      0.00
    3   17   13      0.13      0.00
  -12   18   13     -2.54      0.00
  -10   18   13     -1.62      0.00
   -8   18   13      0.19      0.00
   -2   18   13      1.55      0.00
    0   18   13      3.45      0.00
    2   18   13      2.34      0.00
   -9   19   13      0.85      0.00
   -7   19   13     -0.08      0.00
   -5   19   13     -0.04      0.00
   -3   19   13      1.49      0.00
   -1   19   13      0.29      0.00
  -20    0   14     11.20      0.00
   10    0   14     -2.54      0.00
  -21    1   14      3.69      0.00
    9    1   14     -1.96      0.00
   10    2   14      0.66      0.00
  -21    3   14     -4.10      0.00
    9    3   14      2.72      0.00
  -20    4   14     -3.59      0.00
    9    5   14      0.04      0.00
  -20    6   14      1.41      0.00
  -19    7   14     -2.12      0.00
    9    7   14     -0.38      0.00
  -18    8   14     -2.58      0.00
    8    8   14      2.14      0.00
  -19    9   14      0.77      0.00
    7    9   14      1.40      0.00
  -18   10   14      0.53      0.00
    6   10   14      0.20      0.00
  -17   11   14     -2.54      0.00
    7   11   14     -3.01      0.00
    6   12   14      0.68      0.00
  -17   13   14     -0.57      0.00
    5   13   14     -0.74      0.00
  -16   14   14      0.93      0.00
    4   14   14      1.71      0.00
  -15   15   14      1.56      0.00
  -13   15   14      0.55      0.00
    3   15   14     -0.49      0.00
  -14   16   14      0.10      0.00
  -12   16   14      0.35      0.00
  -10   16   14      4.81      0.00
    2   16   14     -1.25      0.00
  -11   17   14     -0.29      0.00
   -9   17   14     -1.15      0.00
   -1   17   14     -1.79      0.00
    1   17   14     -2.63      0.00
  -10   18   14     -2.15      0.00
   -8   18   14      0.03      0.00
   -6   18   14     -0.30      0.00
   -4   18   14     -1.68      0.00
   -2   18   14      0.41      0.00
   -7   19   14      0.08      0.00
   -5   19   14      1.83      0.00
  -21    1   15      6.75      0.00
    9    1   15     -1.08      0.00
  -20    2   15      5.91      0.00
    8    2   15     -3.55      0.00
  -20    4   15     -0.66      0.00
    8    4   15      1.68      0.00
  -19    5   15     -1.66      0.00
  -20    6   15     -3.07      0.00
    8    6   15      0.45      0.00
  -19    7   15      0.20      0.00
    7    7   15      0.57      0.00
  -18    8   15      0.33      0.00
    6    8   15      4.86      0.00
  -19    9   15     -0.52      0.00
    5    9   15     -0.02      0.00
    7    9   15      1.17      0.00
  -18   10   15     -0.97      0.00
    6   10   15      1.77      0.00
  -17   11   15     -1.62      0.00
    5   11   15     -2.03      0.00
  -16   12   15     -0.81      0.00
    4   12   15     -0.14      0.00
  -15   13   15     -0.78      0.00
    3   13   15      0.77      0.00
  -14   14   15     -1.35      0.00
  -12   14   15     -1.97      0.00
    2   14   15      1.29      0.00
  -13   15   15     -0.24      0.00
  -11   15   15     -1.31      0.00
    1   15   15      1.31      0.00
  -12   16   15      1.76      0.00
  -10   16   15      1.33      0.00
   -2   16   15     -0.02      0.00
    0   16   15      1.64      0.00
  -11   17   15      1.88      0.00
   -9   17   15     -0.38      0.00
   -7   17   15      2.02      0.00
   -5   17   15      0.60      0.00
   -3   17   15      2.47      0.00
   -1   17   15     -0.95      0.00
   -6   18   15     -0.99      0.00
  -20    0   16     -1.99      0.00
    6    0   16     -7.47      0.00
  -19    1   16     -2.68      0.00
    7    1   16     -0.16      0.00
  -20    2   16      0.42      0.00
  -19    3   16      2.04      0.00
    7    3   16     -2.48      0.00
  -20    4   16      2.06      0.00
    6    4   16      2.28      0.00
  -19    5   16      0.36      0.00
    7    5   16     -0.32      0.00
    6    6   16     -4.02      0.00
  -19    7   16     -2.44      0.00
    5    7   16     -3.97      0.00
  -18    8   16      3.33      0.00
    6    8   16     -0.10      0.00
  -17    9   16      2.42      0.00
    5    9   16      1.94      0.00
  -16   10   16     -4.11      0.00
    4   10   16      0.92      0.00
  -17   11   16     -1.39      0.00
  -15   11   16      0.58      0.00
    3   11   16     -1.57      0.00
  -16   12   16      0.31      0.00
  -14   12   16      3.19      0.00
    2   12   16     -0.64      0.00
  -15   13   16     -0.21      0.00
  -13   13   16     -1.15      0.00
    1   13   16     -0.13      0.00
  -14   14   16      0.15      0.00
  -12   14   16     -3.42      0.00
    0   14   16      0.26      0.00
  -13   15   16     -1.08      0.00
  -11   15   16     -2.15      0.00
   -9   15   16     -1.01      0.00
   -3   15   16      0.59      0.00
   -1   15   16      0.81      0.00
  -10   16   16     -0.66      0.00
   -8   16   16     -1.27      0.00
   -6   16   16      1.41      0.00
   -4   16   16     -3.66      0.00
   -2   16   16     -1.58      0.00
   -7   17   16     -0.31      0.00
  -19    1   17     -2.79      0.00
    5    1   17     -4.54      0.00
  -18    2   17     -4.72      0.00
    6    2   17     -1.17      0.00
  -19    3   17     -0.96      0.00
    5    3   17     -1.04      0.00
  -18    4   17      0.73      0.00
  -19    5   17      0.62      0.00
    5    5   17      4.37      0.00
  -18    6   17      0.98      0.00
    4    6   17      0.12      0.00
  -17    7   17      0.47      0.00
    5    7   17     -1.63      0.00
  -18    8   17     -1.66      0.00
  -16    8   17     -0.21      0.00
    4    8   17     -1.13      0.00
  -17    9   17      2.81      0.00
  -15    9   17      0.03      0.00
    3    9   17      0.60      0.00
  -16   10   17      0.98      0.00
  -14   10   17      0.54      0.00
    2   10   17     -0.82      0.00
  -15   11   17     -1.16      0.00
  -13   11   17      3.12      0.00
    1   11   17     -2.79      0.00
  -14   12   17      0.70      0.00
  -12   12   17      2.68      0.00
    0   12   17     -0.04      0.00
  -13   13   17      2.54      0.00
  -11   13   17      0.05      0.00
   -1   13   17      0.45      0.00
  -12   14   17      0.87      0.00
  -10   14   17     -2.16      0.00
   -8   14   17      0.80      0.00
   -6   14   17     -0.24      0.00
   -4   14   17     -0.70      0.00
   -2   14   17     -1.68      0.00
   -9   15   17     -0.88      0.00
   -7   15   17     -2.19      0.00
   -5   15   17      1.94      0.00
   -3   15   17      1.77      0.00
  -18    0   18      6.64      0.00
    4    0   18     -0.44      0.00
  -19    1   18      2.76      0.00
  -17    1   18      1.92      0.00
    3    1   18     -3.13      0.00
  -18    2   18     -0.96      0.00
    4    2   18     -1.11      0.00
  -17    3   18      0.83      0.00
    3    3   18     -0.32      0.00
  -18    4   18     -2.60      0.00
    4    4   18     -2.01      0.00
  -17    5   18     -1.35      0.00
    3    5   18      0.62      0.00
  -16    6   18      0.33      0.00
    2    6   18     -1.13      0.00
  -17    7   18      0.41      0.00
    3    7   18     -0.64      0.00
  -16    8   18     -0.19      0.00
    2    8   18      2.62      0.00
  -15    9   18     -2.02      0.00
  -13    9   18     -0.84      0.00
   -1    9   18     -0.69      0.00
    1    9   18      1.88      0.00
  -14   10   18     -3.40      0.00
    0   10   18      0.39      0.00
  -13   11   18     -3.34      0.00
  -11   11   18      1.11      0.00
   -3   11   18      2.30      0.00
   -1   11   18      0.76      0.00
  -12   12   18     -0.70      0.00
  -10   12   18     -0.76      0.00
   -6   12   18      0.01      0.00
   -4   12   18      0.96      0.00
   -2   12   18     -0.71      0.00
  -11   13   18      1.28      0.00
   -9   13   18     -2.19      0.00
   -7   13   18     -1.21      0.00
   -5   13   18      0.36      0.00
   -3   13   18      1.93      0.00
   -8   14   18      0.41      0.00
   -6   14   18     -0.48      0.00
  -17    1   19      3.39      0.00
    1    1   19      2.79      0.00
  -16    2   19     -0.83      0.00
    2    2   19     -2.21      0.00
  -17    3   19     -0.79      0.00
    1    3   19     -3.00      0.00
  -16    4   19     -1.48      0.00
    2    4   19     -0.34      0.00
  -17    5   19     -1.11      0.00
  -15    5   19      3.27      0.00
    1    5   19      0.75      0.00
  -16    6   19      3.60      0.00
    0    6   19     -2.56      0.00
  -15    7   19      4.61      0.00
   -1    7   19     -1.24      0.00
    1    7   19     -2.38      0.00
  -14    8   19      2.67      0.00
   -2    8   19     -0.08      0.00
    0    8   19      1.07      0.00
  -13    9   19      1.71      0.00
   -5    9   19      0.62      0.00
   -3    9   19     -2.14      0.00
   -1    9   19      2.45      0.00
  -14   10   19      2.11      0.00
  -12   10   19      0.18      0.00
  -10   10   19     -0.86      0.00
   -8   10   19     -0.86      0.00
   -6   10   19      0.19      0.00
   -4   10   19     -2.25      0.00
   -2   10   19     -1.29      0.00
  -11   11   19      0.09      0.00
   -9   11   19      0.59      0.00
   -7   11   19     -0.27      0.00
   -5   11   19      0.03      0.00
   -3   11   19      0.79      0.00
  -10   12   19      0.32      0.00
   -8   12   19      1.01      0.00
   -6   12   19     -0.18      0.00
  -16    0   20     -5.56      0.00
  -14    0   20      2.50      0.00
   -2    0   20      3.20      0.00
    0    0   20     -1.66      0.00
  -15    1   20     -2.40      0.00
   -1    1   20     -1.19      0.00
  -16    2   20      1.25      0.00
  -14    2   20     -1.36      0.00
   -2    2   20     -1.70      0.00
    0    2   20      1.48      0.00
  -15    3   20     -0.13      0.00
   -1    3   20      0.49      0.00
  -16    4   20     -1.27      0.00
  -14    4   20     -4.71      0.00
   -2    4   20     -1.51      0.00
    0    4   20     -0.55      0.00
  -15    5   20     -0.40      0.00
  -13    5   20      1.05      0.00
   -3    5   20      0.13      0.00
   -1    5   20      2.17      0.00
  -14    6   20     -0.95      0.00
  -12    6   20      1.89      0.00
   -4    6   20      1.04      0.00
   -2    6   20      2.85      0.00
  -13    7   20     -1.11      0.00
  -11    7   20      1.83      0.00
   -9    7   20     -1.50      0.00
   -5    7   20      0.10      0.00
   -3    7   20      1.44      0.00
  -12    8   20     -1.26      0.00
  -10    8   20      2.59      0.00
   -8    8   20     -2.16      0.00
   -6    8   20     -0.50      0.00
   -4    8   20      1.62      0.00
  -11    9   20      0.70      0.00
   -9    9   20      1.39      0.00
   -7    9   20     -0.01      0.00
   -5    9   20      0.19      0.00
  -10   10   20     -0.24      0.00
   -8   10   20     -0.03      0.00
   -6   10   20     -0.18      0.00
    0    0    0      0.00      0.00
# SQUEEZE RESULTS (Version = 260615)
# Note: Data are Listed for all Voids in the P1 Unit Cell
# i.e. Centre of Gravity, Solvent Accessible Volume,
# Recovered number of Electrons in the Void and
# Details about the Squeezed Material
loop_
  _platon_squeeze_void_nr
  _platon_squeeze_void_average_x
  _platon_squeeze_void_average_y
  _platon_squeeze_void_average_z
  _platon_squeeze_void_volume
  _platon_squeeze_void_count_electrons
  _platon_squeeze_void_content
   1 -0.010  0.002 -0.011      2221       951 ' '
_platon_squeeze_void_probe_radius                  1.20
_platon_squeeze_details
)
TITL DSMSAL in C2/c; 120K; GV-1000
CELL   17.0602   18.8603   16.9468     90.00    113.19     90.00
SPGR C2/c
# Solvent Accessible Volume =    2252.3
# Electrons Found in S.A.V. =     950.3
# Note: Atoms in Void as Cxxx and Qxxx all others
C101 0.468 0.157 0.226 !       3.04 eA-3
C102 0.455 0.359 0.372 !       3.00 eA-3
C103 0.736 0.361 0.404 !       2.90 eA-3
C104 0.518 0.417 0.081 !       2.61 eA-3
C105 0.361 0.405 0.072 !       2.57 eA-3
C106 0.204 0.307 0.077 !       2.55 eA-3
C107 0.477 0.297 0.408 !       2.29 eA-3
C108 0.472 0.088 0.196 !       2.08 eA-3
C109 0.403 0.379 0.277 !       1.97 eA-3
C110 0.300 0.395 0.148 !       1.93 eA-3
C111 0.518 0.282 0.463 !       1.81 eA-3
C112 0.296 0.372 0.032 !       1.72 eA-3
C113 0.420 0.201 0.207 !       1.68 eA-3
C114 0.581 0.205 0.301 !       1.67 eA-3
Q115 0.363 0.360 0.355 !       1.63 eA-3
C116 0.301 0.294 0.047 !       1.62 eA-3
C117 0.140 0.924 0.303 !       1.56 eA-3
C118 0.640 0.424 0.303 !       1.56 eA-3
C119 0.550 0.237 0.159 !       1.54 eA-3
C120 0.531 0.377 0.428 !       1.50 eA-3
Q121 0.370 0.341 0.382 !       1.45 eA-3
C122 0.313 0.217 0.009 !       1.36 eA-3
Q123 0.720 0.347 0.097 !       1.36 eA-3
Q124 0.277 0.451 0.380 !       0.94 eA-3
Q125 0.033 0.388 0.343 !       0.93 eA-3
C126 0.652 0.157 0.404 !       0.90 eA-3
C127 0.544 0.407 0.348 !       0.82 eA-3
Q128 0.730 0.411 0.095 !       0.80 eA-3
Q129 0.140 0.301 0.236 !       0.77 eA-3
Q130 0.751 0.288 0.130 !       0.77 eA-3
Q131 0.957 0.437 0.459 !       0.75 eA-3
Q132 0.845 0.147 0.026 !       0.75 eA-3
Q133 0.818 0.107 0.350 !       0.75 eA-3
C134 0.326 0.279 0.122 !       0.74 eA-3
C135 0.386 0.182 0.082 !       0.74 eA-3
Q136 0.841 0.395 0.054 !       0.71 eA-3
Q137 0.965 0.449 0.042 !       0.70 eA-3
Q138 0.237 0.479 0.325 !       0.70 eA-3
Q139 0.842 0.467 0.228 !       0.70 eA-3
C140 0.582 0.298 0.390 !       0.69 eA-3
Q141 0.205 0.189 0.246 !       0.68 eA-3
Q142 0.264 0.063 0.214 !       0.67 eA-3
C143 0.498 0.407 0.257 !       0.67 eA-3
Q144 0.045 0.187 0.347 !       0.64 eA-3
C145 0.686 0.330 0.301 !       0.63 eA-3
Q146 0.919 0.503 0.479 !       0.62 eA-3
Q147 0.236 0.341 0.435 !       0.61 eA-3
C148 0.503 0.377 0.222 !       0.61 eA-3
Q149 0.299 0.080 0.278 !       0.60 eA-3
C150 0.435 0.391 0.213 !       0.59 eA-3
C151 0.567 0.308 0.279 !       0.59 eA-3
Q152 0.716 0.135 0.186 !       0.59 eA-3
Q153 0.218 0.357 0.390 !       0.58 eA-3
Q154 0.392 0.168 0.292 !       0.58 eA-3
C155 0.586 0.215 0.437 !       0.56 eA-3
Q156 0.623 0.316 0.174 !       0.54 eA-3
C157 0.623 0.272 0.208 !       0.53 eA-3
Q158 0.201 0.263 0.298 !       0.53 eA-3
Q159 0.084 0.074 0.330 !       0.52 eA-3
Q160 0.779 0.395 0.107 !       0.52 eA-3
Q161 0.716 0.392 0.045 !       0.51 eA-3
C162 0.544 0.339 0.263 !       0.51 eA-3
C163 0.265 0.217 0.082 !       0.51 eA-3
)
;
_shelx_fab_checksum              79662
loop_
_space_group_symop_operation_xyz
'x, y, z'
'-x, y, -z+1/2'
'x+1/2, y+1/2, z'
'-x+1/2, y+1/2, -z+1/2'
'-x, -y, -z'
'x, -y, z-1/2'
'-x+1/2, -y+1/2, -z'
'x+1/2, -y+1/2, z-1/2'
loop_
_atom_site_label
_atom_site_type_symbol
_atom_site_fract_x
_atom_site_fract_y
_atom_site_fract_z
_atom_site_U_iso_or_equiv
_atom_site_adp_type
_atom_site_occupancy
_atom_site_site_symmetry_order
_atom_site_calc_flag
_atom_site_refinement_flags_posn
_atom_site_refinement_flags_adp
Zn1 Zn 0.25031(2) 0.37429(2) 0.41858(2) 0.02719(13) Uani 1 1 d . .
Li1 Li 0.0802(3) 0.3836(2) 0.2478(3) 0.0253(8) Uani 1 1 d . .
O11 O 0.15730(12) 0.40125(12) 0.45297(12) 0.0365(5) Uani 1 1 d . .
O12 O 0.03434(11) 0.38547(9) 0.34013(11) 0.0256(4) Uani 1 1 d . .
C101 C 0.07830(16) 0.41057(13) 0.41282(15) 0.0265(5) Uani 1 1 d . .
C102 C 0.03727(15) 0.45603(14) 0.45792(15) 0.0260(5) Uani 1 1 d . .
C103 C 0.08414(17) 0.51023(16) 0.51241(17) 0.0331(6) Uani 1 1 d . .
H103 H 0.1420 0.5173 0.5209 0.040 Uiso 1 1 calc R U
C104 C -0.04749(16) 0.44645(15) 0.44596(17) 0.0316(5) Uani 1 1 d . .
H104 H -0.0803 0.4100 0.4090 0.038 Uiso 1 1 calc R U
O21 O 0.25173(14) 0.28411(11) 0.36914(13) 0.0391(5) Uani 1 1 d . .
O22 O 0.13896(12) 0.29879(10) 0.24451(13) 0.0333(4) Uani 1 1 d . .
C201 C 0.20049(17) 0.26408(14) 0.29438(17) 0.0302(5) Uani 1 1 d . .
C202 C 0.21949(18) 0.19285(15) 0.26681(18) 0.0340(6) Uani 1 1 d . .
C203 C 0.2871(2) 0.15232(17) 0.32199(18) 0.0405(7) Uani 1 1 d . .
H203 H 0.3213 0.1697 0.3776 0.049 Uiso 1 1 calc R U
C204 C 0.3045(2) 0.08691(16) 0.29595(19) 0.0428(7) Uani 1 1 d . .
H204 H 0.3510 0.0597 0.3336 0.051 Uiso 1 1 calc R U
C205 C 0.25429(19) 0.06063(15) 0.21484(19) 0.0359(6) Uani 1 1 d . .
C206 C 0.18584(19) 0.10002(17) 0.16054(19) 0.0393(7) Uani 1 1 d . .
H206 H 0.1500 0.0815 0.1061 0.047 Uiso 1 1 calc R U
C207 C 0.16952(19) 0.16632(17) 0.18542(19) 0.0404(7) Uani 1 1 d . .
H207 H 0.1240 0.1940 0.1469 0.048 Uiso 1 1 calc R U
C208 C 0.27534(18) -0.01071(15) 0.18784(18) 0.0342(6) Uani 1 1 d . .
O23 O 0.21854(13) -0.03771(11) 0.12071(14) 0.0433(5) Uani 1 1 d . .
O24 O 0.34472(14) -0.03852(11) 0.23093(14) 0.0412(5) Uani 1 1 d . .
N11 N 0.34203(14) 0.36586(12) 0.53933(14) 0.0286(5) Uani 1 1 d . .
C11 C 0.35711(19) 0.42347(15) 0.58991(19) 0.0402(7) Uani 1 1 d . .
H11 H 0.3239 0.4649 0.5680 0.048 Uiso 1 1 calc R U
C12 C 0.4187(2) 0.42488(15) 0.6721(2) 0.0421(7) Uani 1 1 d . .
H12 H 0.4284 0.4669 0.7055 0.050 Uiso 1 1 calc R U
C13 C 0.46668(16) 0.36429(14) 0.70591(17) 0.0312(6) Uani 1 1 d . .
C14 C 0.45032(16) 0.30436(14) 0.65370(17) 0.0303(5) Uani 1 1 d . .
H14 H 0.4818 0.2620 0.6744 0.036 Uiso 1 1 calc R U
C15 C 0.38791(16) 0.30732(14) 0.57162(17) 0.0297(5) Uani 1 1 d . .
H15 H 0.3771 0.2662 0.5366 0.036 Uiso 1 1 calc R U
loop_
_atom_site_aniso_label
_atom_site_aniso_U_11
_atom_site_aniso_U_22
_atom_site_aniso_U_33
_atom_site_aniso_U_23
_atom_site_aniso_U_13
_atom_site_aniso_U_12
Zn1 0.0237(2) 0.02183(19) 0.0216(2) 0.00166(12) -0.00647(14) -0.00145(12)
Li1 0.0226(19) 0.0204(18) 0.027(2) 0.0017(15) 0.0035(16) 0.0008(15)
O11 0.0245(9) 0.0503(12) 0.0209(9) -0.0047(8) -0.0058(7) 0.0070(8)
O12 0.0224(8) 0.0262(8) 0.0191(8) -0.0024(6) -0.0017(7) -0.0008(7)
C101 0.0250(12) 0.0273(12) 0.0181(11) 0.0007(9) -0.0011(9) -0.0011(10)
C102 0.0223(11) 0.0318(12) 0.0161(10) 0.0001(9) -0.0007(9) -0.0013(9)
C103 0.0238(11) 0.0429(15) 0.0268(13) -0.0093(11) 0.0036(10) -0.0068(11)
C104 0.0246(12) 0.0363(14) 0.0264(12) -0.0097(10) 0.0019(10) -0.0073(10)
O21 0.0446(11) 0.0311(10) 0.0302(10) -0.0060(8) 0.0025(9) 0.0131(9)
O22 0.0313(9) 0.0271(9) 0.0346(10) -0.0008(8) 0.0056(8) 0.0070(7)
C201 0.0296(12) 0.0289(13) 0.0286(13) 0.0002(10) 0.0077(10) 0.0064(10)
C202 0.0332(13) 0.0300(13) 0.0299(13) -0.0022(11) 0.0030(11) 0.0110(11)
C203 0.0478(17) 0.0357(15) 0.0251(13) -0.0024(11) 0.0005(12) 0.0159(13)
C204 0.0467(17) 0.0348(15) 0.0301(14) -0.0020(12) -0.0031(13) 0.0170(13)
C205 0.0358(14) 0.0294(13) 0.0326(14) -0.0044(11) 0.0028(12) 0.0084(11)
C206 0.0353(14) 0.0373(15) 0.0318(14) -0.0077(12) -0.0013(12) 0.0108(12)
C207 0.0340(14) 0.0379(15) 0.0328(14) -0.0056(12) -0.0046(11) 0.0148(12)
C208 0.0355(14) 0.0305(13) 0.0294(13) -0.0033(11) 0.0050(11) 0.0076(11)
O23 0.0356(10) 0.0349(10) 0.0438(12) -0.0129(9) -0.0010(9) 0.0092(9)
O24 0.0409(11) 0.0317(10) 0.0383(11) -0.0052(8) 0.0022(9) 0.0168(9)
N11 0.0237(10) 0.0273(11) 0.0221(10) 0.0010(8) -0.0046(8) 0.0007(8)
C11 0.0362(15) 0.0276(13) 0.0328(15) -0.0020(11) -0.0121(12) 0.0081(11)
C12 0.0397(15) 0.0273(13) 0.0340(15) -0.0064(11) -0.0125(12) 0.0045(12)
C13 0.0235(12) 0.0289(13) 0.0257(14) -0.0002(10) -0.0071(11) -0.0002(10)
C14 0.0252(12) 0.0252(12) 0.0271(13) 0.0010(10) -0.0042(10) 0.0012(10)
C15 0.0268(12) 0.0248(12) 0.0263(13) -0.0011(10) -0.0015(10) -0.0010(10)
loop_
_atom_type_symbol
_atom_type_description
_atom_type_scat_dispersion_real
_atom_type_scat_dispersion_imag
_atom_type_scat_source
C C 0.0181 0.0091 'International Tables Vol C Tables 4.2.6.8 and 6.1.1.4'
H H 0.0000 0.0000 'International Tables Vol C Tables 4.2.6.8 and 6.1.1.4'
Li Li 0.0008 0.0003 'International Tables Vol C Tables 4.2.6.8 and 6.1.1.4'
N N 0.0311 0.0180 'International Tables Vol C Tables 4.2.6.8 and 6.1.1.4'
O O 0.0492 0.0322 'International Tables Vol C Tables 4.2.6.8 and 6.1.1.4'
Zn Zn -1.5491 0.6778 'International Tables Vol C Tables 4.2.6.8 and 6.1.1.4'
loop_
_exptl_crystal_face_index_h
_exptl_crystal_face_index_k
_exptl_crystal_face_index_l
_exptl_crystal_face_perp_dist
_exptl_oxdiff_crystal_face_indexfrac_h
_exptl_oxdiff_crystal_face_indexfrac_k
_exptl_oxdiff_crystal_face_indexfrac_l
_exptl_oxdiff_crystal_face_x
_exptl_oxdiff_crystal_face_y
_exptl_oxdiff_crystal_face_z
8 7 -8 0.0181 7.9983 7.0068 -7.9842 -1.0357 0.0133 -0.0725
-7 -8 7 0.0115 -7.0051 -8.0077 6.9893 0.9985 -0.0595 -0.0492
-5 10 6 0.0198 -4.9463 10.0059 5.9648 -0.0132 0.4453 0.9104
5 -10 -6 0.0235 4.9463 -10.0059 -5.9648 0.0132 -0.4453 -0.9104
7 -1 5 0.0919 6.9930 -1.0392 5.0116 0.0069 0.8746 -0.4779
-7 -1 -5 0.0892 -7.0001 -0.9627 -5.0082 0.0915 -0.9256 0.3577
loop_
_geom_angle_atom_site_label_1
_geom_angle_atom_site_label_2
_geom_angle_atom_site_label_3
_geom_angle
_geom_angle_site_symmetry_1
_geom_angle_site_symmetry_3
_geom_angle_publ_flag
O11 Zn1 Li1 72.68(9) . . ?
O11 Zn1 N11 96.50(9) . . yes
O21 Zn1 Li1 79.32(10) . . ?
O21 Zn1 O11 121.03(10) . . yes
O21 Zn1 O23 124.18(11) . 4 yes
O21 Zn1 N11 103.60(9) . . yes
O23 Zn1 Li1 85.18(10) 4 . ?
O23 Zn1 O11 104.10(10) 4 . yes
O23 Zn1 N11 101.89(9) 4 . yes
N11 Zn1 Li1 168.39(10) . . ?
Li1 Li1 Zn1 122.1(2) 2 . ?
O12 Li1 Zn1 168.4(2) 2 . ?
O12 Li1 Zn1 77.80(14) . . ?
O12 Li1 Li1 44.40(14) . 2 ?
O12 Li1 Li1 46.49(14) 2 2 ?
O12 Li1 O12 90.86(19) 2 . yes
O22 Li1 Zn1 71.27(14) . . ?
O22 Li1 Li1 122.66(14) . 2 ?
O22 Li1 O12 112.1(2) . 2 yes
O22 Li1 O12 114.2(2) . . yes
O24 Li1 Zn1 64.15(13) 4 . ?
O24 Li1 Li1 126.80(16) 4 2 ?
O24 Li1 O12 106.3(2) 4 . yes
O24 Li1 O12 122.4(2) 4 2 yes
O24 Li1 O22 109.5(2) 4 . yes
C101 O11 Zn1 133.97(17) . . ?
Li1 O12 Li1 89.11(19) 2 . yes
C101 O12 Li1 120.4(2) . . ?
C101 O12 Li1 142.6(2) . 2 ?
O11 C101 C102 114.9(2) . . ?
O12 C101 O11 125.1(2) . . ?
O12 C101 C102 120.0(2) . . ?
C103 C102 C101 119.7(2) . . ?
C104 C102 C101 121.4(2) . . ?
C104 C102 C103 118.9(3) . . ?
C102 C103 H103 119.5 . . ?
C104 C103 C102 120.9(2) 5_566 . ?
C104 C103 H103 119.5 5_566 . ?
C102 C104 H104 119.9 . . ?
C103 C104 C102 120.2(2) 5_566 . ?
C103 C104 H104 119.9 5_566 . ?
C201 O21 Zn1 125.31(18) . . ?
C201 O22 Li1 137.5(2) . . ?
O21 C201 C202 115.2(2) . . ?
O22 C201 O21 125.6(2) . . ?
O22 C201 C202 119.2(2) . . ?
C203 C202 C201 120.4(2) . . ?
C203 C202 C207 119.2(3) . . ?
C207 C202 C201 120.4(2) . . ?
C202 C203 H203 120.0 . . ?
C204 C203 C202 120.1(3) . . ?
C204 C203 H203 120.0 . . ?
C203 C204 H204 119.8 . . ?
C203 C204 C205 120.5(3) . . ?
C205 C204 H204 119.8 . . ?
C204 C205 C208 119.3(2) . . ?
C206 C205 C204 119.7(3) . . ?
C206 C205 C208 121.1(3) . . ?
C205 C206 H206 120.0 . . ?
C207 C206 C205 120.1(3) . . ?
C207 C206 H206 120.0 . . ?
C202 C207 H207 119.8 . . ?
C206 C207 C202 120.5(3) . . ?
C206 C207 H207 119.8 . . ?
O23 C208 C205 116.0(2) . . ?
O24 C208 C205 119.1(2) . . ?
O24 C208 O23 124.9(3) . . ?
C208 O23 Zn1 115.70(18) . 4_545 ?
C208 O24 Li1 149.6(2) . 4_545 ?
C11 N11 Zn1 117.15(18) . . ?
C15 N11 Zn1 124.73(18) . . ?
C15 N11 C11 118.1(2) . . ?
N11 C11 H11 118.7 . . ?
N11 C11 C12 122.6(3) . . ?
C12 C11 H11 118.7 . . ?
C11 C12 H12 120.3 . . ?
C11 C12 C13 119.5(3) . . ?
C13 C12 H12 120.3 . . ?
C12 C13 C13 120.65(18) . 2_656 ?
C12 C13 C14 117.8(2) . . ?
C14 C13 C13 121.55(17) . 2_656 ?
C13 C14 H14 120.4 . . ?
C15 C14 C13 119.3(2) . . ?
C15 C14 H14 120.4 . . ?
N11 C15 C14 122.7(2) . . ?
N11 C15 H15 118.7 . . ?
C14 C15 H15 118.7 . . ?
loop_
_geom_bond_atom_site_label_1
_geom_bond_atom_site_label_2
_geom_bond_distance
_geom_bond_site_symmetry_2
_geom_bond_publ_flag
Zn1 Li1 3.196(4) . ?
Zn1 O11 1.961(2) . yes
Zn1 O21 1.9004(19) . yes
Zn1 O23 1.939(2) 4 yes
Zn1 N11 2.034(2) . yes
Li1 Li1 2.766(8) 2 ?
Li1 O12 1.935(4) 2 yes
Li1 O12 2.006(5) . yes
Li1 O22 1.901(4) . yes
Li1 O24 1.888(5) 4 yes
O11 C101 1.260(3) . ?
O12 Li1 1.935(4) 2 ?
O12 C101 1.256(3) . ?
C101 C102 1.493(4) . ?
C102 C103 1.398(4) . ?
C102 C104 1.391(4) . ?
C103 H103 0.9500 . ?
C103 C104 1.380(4) 5_566 ?
C104 C103 1.380(4) 5_566 ?
C104 H104 0.9500 . ?
O21 C201 1.280(3) . ?
O22 C201 1.243(3) . ?
C201 C202 1.499(4) . ?
C202 C203 1.393(4) . ?
C202 C207 1.398(4) . ?
C203 H203 0.9500 . ?
C203 C204 1.381(4) . ?
C204 H204 0.9500 . ?
C204 C205 1.393(4) . ?
C205 C206 1.384(4) . ?
C205 C208 1.509(4) . ?
C206 H206 0.9500 . ?
C206 C207 1.382(4) . ?
C207 H207 0.9500 . ?
C208 O23 1.274(4) . ?
C208 O24 1.236(3) . ?
O23 Zn1 1.939(2) 4_545 ?
O24 Li1 1.888(4) 4_545 ?
N11 C11 1.345(4) . ?
N11 C15 1.339(3) . ?
C11 H11 0.9500 . ?
C11 C12 1.376(4) . ?
C12 H12 0.9500 . ?
C12 C13 1.391(4) . ?
C13 C13 1.479(5) 2_656 ?
C13 C14 1.394(4) . ?
C14 H14 0.9500 . ?
C14 C15 1.380(4) . ?
C15 H15 0.9500 . ?
