#------------------------------------------------------------------------------
#$Date: 2017-03-04 15:16:02 +0200 (Sat, 04 Mar 2017) $
#$Revision: 193438 $
#$URL: file:///home/coder/svn-repositories/cod/cif/4/34/50/4345013.cif $
#------------------------------------------------------------------------------
#
# This file is available in the Crystallography Open Database (COD),
# http://www.crystallography.net/
#
# All data on this site have been placed in the public domain by the
# contributors.
#
data_4345013
loop_
_publ_author_name
'Sapianik, Aleksandr A.'
'Zorina-Tikhonova, Ekaterina N'
'Kiskin, Mikhail A.'
'Samsonenko, Denis G.'
'Kovalenko, Konstantin A.'
'Sidorov, Alexey A.'
'Eremenko, Igor L.'
'Dybtsev, Danil N.'
'Blake, Alexander J.'
'Argent, Stephen P.'
'Schr\"oder, Martin'
'Fedin, Vladimir P.'
_publ_section_title
;
 Rational Synthesis and Investigation of Porous Metal-Organic Framework
 Materials from a Preorganized Heterometallic Carboxylate Building Block.
;
_journal_issue                   3
_journal_name_full               'Inorganic chemistry'
_journal_page_first              1599
_journal_page_last               1608
_journal_paper_doi               10.1021/acs.inorgchem.6b02713
_journal_volume                  56
_journal_year                    2017
_chemical_formula_sum            'C40 H31 Br3 Li2 N4 O14 Zn2'
_chemical_formula_weight         1176.04
_space_group_crystal_system      monoclinic
_space_group_IT_number           15
_space_group_name_Hall           '-C 2yc'
_space_group_name_H-M_alt        'C 1 2/c 1'
_symmetry_space_group_name_Hall  '-C 2yc'
_symmetry_space_group_name_H-M   'C 1 2/c 1'
_atom_sites_solution_hydrogens   geom
_atom_sites_solution_primary     direct
_atom_sites_solution_secondary   difmap
_audit_creation_method           SHELXL-2014/7
_cell_angle_alpha                90
_cell_angle_beta                 115.411(6)
_cell_angle_gamma                90
_cell_formula_units_Z            4
_cell_length_a                   17.8034(9)
_cell_length_b                   18.4763(7)
_cell_length_c                   17.1568(9)
_cell_measurement_reflns_used    3271
_cell_measurement_temperature    130(2)
_cell_measurement_theta_max      27.17
_cell_measurement_theta_min      3.96
_cell_volume                     5097.6(5)
_computing_cell_refinement       'CrysAlisPro 1.171.38.41 (Rigaku OD, 2015)'
_computing_data_collection       'CrysAlisPro 1.171.38.41 (Rigaku OD, 2015)'
_computing_data_reduction        'CrysAlisPro 1.171.38.41 (Rigaku OD, 2015)'
_computing_molecular_graphics    'ShelXle (H\"ubschle, 2011)'
_computing_publication_material  'CIFTAB-2014 (Sheldrick, 2015)'
_computing_structure_refinement  'SHELXL-2014 (Sheldrick, 2015)'
_computing_structure_solution    'SHELXT-2014 (Sheldrick, 2015)'
_diffrn_ambient_temperature      130(2)
_diffrn_detector                 'CCD plate'
_diffrn_detector_area_resol_mean 10.6168
_diffrn_detector_type            AtlasS2
_diffrn_measured_fraction_theta_full 0.996
_diffrn_measured_fraction_theta_max 0.996
_diffrn_measurement_device       'four-circle diffractometer'
_diffrn_measurement_device_type  'New Xcalibur, AtlasS2'
_diffrn_measurement_method       '\w scans'
_diffrn_radiation_monochromator  graphite
_diffrn_radiation_probe          x-ray
_diffrn_radiation_source         'fine-focus sealed tube'
_diffrn_radiation_type           MoK\a
_diffrn_radiation_wavelength     0.71073
_diffrn_reflns_av_R_equivalents  0.0301
_diffrn_reflns_av_unetI/netI     0.0459
_diffrn_reflns_Laue_measured_fraction_full 0.996
_diffrn_reflns_Laue_measured_fraction_max 0.996
_diffrn_reflns_limit_h_max       21
_diffrn_reflns_limit_h_min       -16
_diffrn_reflns_limit_k_max       20
_diffrn_reflns_limit_k_min       -22
_diffrn_reflns_limit_l_max       20
_diffrn_reflns_limit_l_min       -20
_diffrn_reflns_number            12067
_diffrn_reflns_point_group_measured_fraction_full 0.996
_diffrn_reflns_point_group_measured_fraction_max 0.996
_diffrn_reflns_theta_full        25.680
_diffrn_reflns_theta_max         25.680
_diffrn_reflns_theta_min         3.359
_diffrn_source                   'sealed X-ray tube'
_exptl_absorpt_coefficient_mu    3.354
_exptl_absorpt_correction_T_max  1.00000
_exptl_absorpt_correction_T_min  0.81699
_exptl_absorpt_correction_type   multi-scan
_exptl_absorpt_process_details
;
CrysAlisPro 1.171.38.41 (Rigaku Oxford Diffraction, 2015)
Empirical absorption correction using spherical harmonics,
implemented in SCALE3 ABSPACK scaling algorithm.
;
_exptl_crystal_colour            colorless
_exptl_crystal_density_diffrn    1.532
_exptl_crystal_description       stick
_exptl_crystal_F_000             2328
_exptl_crystal_size_max          0.49
_exptl_crystal_size_mid          0.06
_exptl_crystal_size_min          0.04
_refine_diff_density_max         1.769
_refine_diff_density_min         -0.713
_refine_diff_density_rms         0.110
_refine_ls_extinction_method     none
_refine_ls_goodness_of_fit_ref   1.030
_refine_ls_hydrogen_treatment    constr
_refine_ls_matrix_type           full
_refine_ls_number_parameters     302
_refine_ls_number_reflns         4828
_refine_ls_number_restraints     43
_refine_ls_restrained_S_all      1.074
_refine_ls_R_factor_all          0.0775
_refine_ls_R_factor_gt           0.0606
_refine_ls_shift/su_max          0.000
_refine_ls_shift/su_mean         0.000
_refine_ls_structure_factor_coef Fsqd
_refine_ls_weighting_details
'w=1/[\s^2^(Fo^2^)+(0.1036P)^2^+22.2290P] where P=(Fo^2^+2Fc^2^)/3'
_refine_ls_weighting_scheme      calc
_refine_ls_wR_factor_gt          0.1707
_refine_ls_wR_factor_ref         0.1805
_reflns_Friedel_coverage         0.000
_reflns_number_gt                3790
_reflns_number_total             4828
_reflns_threshold_expression     >2\s(I)
_cod_data_source_file            ic6b02713_si_002.cif
_cod_data_source_block           3
_cod_depositor_comments
'Adding full bibliography for 4345011--4345015.cif.'
_cod_database_code               4345013
_shelx_shelxl_version_number     2014/7
_shelx_space_group_comment
;
The symmetry employed for this shelxl refinement is uniquely defined
by the following loop, which should always be used as a source of
symmetry information in preference to the above space-group names.
They are only intended as comments.
;
_shelx_estimated_absorpt_t_min   0.290
_shelx_estimated_absorpt_t_max   0.878
_shelx_res_file
;
 
    Br-DSMSAL_sq.res created by SHELXL-2014/7
 
 
TITL Br-DSMSAL in C2/c; 130K; Xcalibur
CELL  0.71073  17.8034  18.4763  17.1568   90.000  115.411   90.000
ZERR    4.000   0.0009   0.0007   0.0009    0.000    0.006    0.000
LATT  7
SYMM -X, Y, 1/2-Z
SFAC C   H    LI N   O  ZN BR
UNIT 160 124  8  16  56 8  12
 
LIST 4 ! automatically inserted. Change 6 to 4 for CHECKCIF!!
TEMP -143
 
L.S. 6 0   46
BOND $H
FMAP 2
PLAN 5
 
ISOR 0.005 0.007 BR3 BR4
 
SIMU 0.005 0.007 C26 C26' BR2
SIMU 0.01 0.02 C27 C27'
SIMU 0.01 0.01 BR3 BR4 BR3'
 
SUMP 1.00 0.000001 1 2 1 3 1 4 1 5
 
ABIN
ACTA 52
 
SIZE 0.49 0.06 0.04
 
WGHT    0.103600   22.229002
FVAR       0.64361   0.26401   0.09025   0.26211   0.38362
LI1   3    0.422595    0.389473    0.253450    11.00000    0.02805    0.02714 =
         0.01632    0.00000    0.00068    0.00319
ZN1   6    0.258065    0.376371    0.078428    11.00000    0.02320    0.02431 =
         0.01922   -0.00067    0.00025   -0.00050
O11   5    0.537100    0.391694    0.340337    11.00000    0.01902    0.03471 =
         0.01858   -0.00586    0.00217    0.00106
O12   5    0.656359    0.404538    0.457490    11.00000    0.02606    0.05099 =
         0.01617   -0.00666   -0.00042    0.01228
C11   1    0.579586    0.415069    0.414406    11.00000    0.02567    0.02691 =
         0.01677    0.00385    0.00449    0.00541
C12   1    0.538569    0.459815    0.458343    11.00000    0.02506    0.03632 =
         0.01354   -0.00206   -0.00050    0.00367
C13   1    0.462683    0.438887    0.453549    11.00000    0.02888    0.03790 =
         0.03359   -0.01036    0.00513   -0.00614
AFIX  43
H13   2    0.436381    0.396834    0.421655    11.00000   -1.20000
AFIX   0
C14   1    0.576463    0.521163    0.504833    11.00000    0.02298    0.04514 =
         0.03223   -0.00597    0.00986   -0.00235
BR1   7    0.678254    0.562968    0.509954    10.50000    0.04309    0.04835 =
         0.08306   -0.01876    0.03318   -0.00973
O21   5    0.226798    0.461657    0.123700    11.00000    0.04310    0.05061 =
         0.04273   -0.02337   -0.00166    0.01480
O22   5    0.350600    0.469290    0.232424    11.00000    0.03451    0.03953 =
         0.04029   -0.01223   -0.00068    0.01272
C21   1    0.280044    0.492523    0.188565    11.00000    0.03956    0.03369 =
         0.04015   -0.00765    0.01297    0.00663
C22   1    0.254887    0.563266    0.213386    11.00000    0.03874    0.03380 =
         0.03383   -0.00458    0.00412    0.01206
C23   1    0.293176    0.585642    0.297382    11.00000    0.04936    0.03765 =
         0.02986   -0.00215    0.00186    0.01590
AFIX  43
H23   2    0.334777    0.556052    0.338932    11.00000   -1.20000
AFIX   0
C24   1    0.272343    0.650438    0.322668    11.00000    0.05724    0.03644 =
         0.02439   -0.00733    0.01304    0.00712
AFIX  43
H24   2    0.299416    0.664147    0.381671    11.00000   -1.20000
AFIX   0
C25   1    0.214082    0.695421    0.265579    11.00000    0.02936    0.03384 =
         0.02710   -0.00792    0.00944    0.00670
PART 1
C26   1    0.181064    0.676642    0.171408    10.50000    0.06035    0.04447 =
         0.01517   -0.00155    0.00985    0.02914
C27   1    0.201977    0.614113    0.148077    10.50000    0.05891    0.03814 =
         0.01251    0.00315    0.01313    0.00671
BR2   7    0.110886    0.734389    0.080252    51.00000    0.06697    0.04892 =
         0.02749    0.00472    0.00813    0.03045
BR3   7    0.135806    0.595529    0.030804    21.00000    0.08300    0.07485 =
         0.03678   -0.02154   -0.01157    0.03960
BR3'  7    0.211399    0.619672    0.034601    31.00000    0.13862    0.07141 =
         0.03361   -0.00812    0.01563    0.04952
PART 2
C26'  1    0.168160    0.669771    0.191404    10.50000    0.06022    0.04569 =
         0.02083   -0.00654    0.00402    0.03131
AFIX  43
H26'  2    0.122409    0.697283    0.152342    10.50000   -1.20000
AFIX   0
C27'  1    0.185115    0.598160    0.165562    10.50000    0.05578    0.04873 =
         0.02689   -0.01279    0.00258    0.00255
BR4   7    0.094610    0.564536    0.056984    41.00000    0.06765    0.07994 =
         0.06713   -0.04612   -0.02328    0.02729
PART 0
C28   1    0.194044    0.766344    0.295082    11.00000    0.02788    0.02821 =
         0.03035   -0.00502    0.01023   -0.00008
O23   5    0.243363    0.784461    0.372046    11.00000    0.03441    0.03036 =
         0.02912   -0.00798    0.00598    0.00223
O24   5    0.132625    0.801665    0.246719    11.00000    0.03601    0.03065 =
         0.03241   -0.00454    0.00882    0.00789
N1    4    0.161506    0.368894   -0.039999    11.00000    0.02203    0.02901 =
         0.01763   -0.00305   -0.00294    0.00040
C31   1    0.115682    0.309294   -0.071234    11.00000    0.02430    0.03006 =
         0.02124    0.00196    0.00281   -0.00189
AFIX  43
H31   2    0.127625    0.267499   -0.035670    11.00000   -1.20000
AFIX   0
C32   1    0.051502    0.306318   -0.153488    11.00000    0.02565    0.02825 =
         0.02681   -0.00252    0.00304   -0.00445
AFIX  43
H32   2    0.019988    0.263245   -0.173993    11.00000   -1.20000
AFIX   0
C33   1    0.034053    0.367177   -0.205318    11.00000    0.02529    0.03042 =
         0.02088   -0.00107   -0.00002    0.00251
C34   1    0.080868    0.428750   -0.172338    11.00000    0.04000    0.02819 =
         0.03035    0.00672   -0.00274   -0.00612
AFIX  43
H34   2    0.069901    0.471463   -0.206283    11.00000   -1.20000
AFIX   0
C35   1    0.143649    0.427737   -0.089753    11.00000    0.03305    0.02728 =
         0.02851    0.00154   -0.00630   -0.00773
AFIX  43
H35   2    0.175341    0.470459   -0.067460    11.00000   -1.20000
AFIX   0
HKLF 4
 
REM  Br-DSMSAL in C2/c; 130K; Xcalibur
REM R1 =  0.0606 for    3790 Fo > 4sig(Fo)  and  0.0775 for all    4828 data
REM    302 parameters refined using     43 restraints
 
END
 
WGHT      0.1036     22.2294
 
REM Highest difference peak  1.769,  deepest hole -0.713,  1-sigma level  0.110
Q1    1   0.4220  0.3382  0.4344  11.00000  0.05    1.77
Q2    1   0.1419  0.5985 -0.0621  11.00000  0.05    0.94
Q3    1   0.2197  0.3784  0.1014  11.00000  0.05    0.83
Q4    1   0.2468  0.5905 -0.0145  11.00000  0.05    0.70
Q5    1  -0.0041  0.5505 -0.0355  11.00000  0.05    0.66
;
_shelx_res_checksum              90027
_shelx_hkl_file
;
   0   0  -3 63.8156 24.1760   4
   0   0   3 15.7876 23.5192   4
   0   0   4 2217.18 66.2919   4
   0   0  -4 2206.87 64.4734   4
   0   0   5 59.2927 35.4248   4
   0   0  -5 38.3649 29.5069   4
   0   0   6 11561.5 170.998   4
   0   0  -6 11121.3 168.241   4
   0   0   7-8.89858 32.5175   4
   0   0  -7-5.60456 30.3495   4
   0   0   8 15338.1 231.907   4
   0   0  -8 15092.5 225.819   4
   0   0  -9 11.4694 31.5384   4
   0   0   9 24.0951 35.4430   4
   0   0  10 231.604 44.2922   4
   0   0 -10 236.420 44.7408   4
   0   0 -11 66.2405 51.9117   3
   0   0 -11 4.25355 34.9999   4
   0   0  11 62.2324 39.8670   4
   0   0 -12 7949.81 259.902   3
   0   0  12 7812.93 206.242   4
   0   0  13 6.22720 44.9478   4
   0   0 -13 0.32773 54.1690   3
   0   0  14 1322.24 98.9966   4
   0   0 -14 1466.91 135.267   3
   0   0  15 49.5182 52.4293   4
   0   0 -15-30.5062 60.4421   3
   0   0 -16 284.660 87.9308   3
   0   0  16 410.961 74.7478   4
   0   0  17-3.36524 53.3396   4
   0   0 -17 18.2649 70.9596   3
   0   0 -18 3287.75 225.031   3
   0   2  -2 16836.6 168.757   4
   0  -2  -3 26586.4 229.182   3
   0   2   3 26109.2 229.623   3
   0   2  -3 26405.8 233.834   4
   0  -2   3 26741.0 236.270   4
   0   2  -4 17960.9 212.533   4
   0   2   4 15635.6 117.876   4
   0   2   4 17675.5 214.391   3
   0  -2   4 17751.6 210.904   4
   0  -2  -4 17228.3 119.330   4
   0  -2  -4 17666.8 210.361   3
   0  -2  -5 6982.04 92.4445   4
   0   2  -5 7052.18 146.958   4
   0  -2   5 6940.50 150.882   4
   0  -2  -5 7048.91 148.368   3
   0   2   5 6563.97 92.0155   4
   0  -2   6 8057.06 169.521   4
   0   2   6 8023.46 116.079   4
   0  -2  -6 7844.33 111.019   4
   0   2  -6 7882.90 166.142   4
   0  -2  -6 7941.01 172.856   3
   0   2   7 16233.0 181.384   4
   0  -2   7 16693.3 259.438   4
   0   2  -7 15268.3 138.336   2
   0  -2  -7 15895.0 177.573   4
   0   2  -7 15793.4 245.985   4
   0  -2  -7 15647.0 260.981   3
   0  -2  -8 52.2147 40.0161   3
   0   2  -8 67.4035 36.1390   4
   0  -2  -8 39.5501 26.4075   4
   0   2   8 39.0699 25.8886   4
   0  -2   8-8.23036 40.3867   4
   0   2  -8 43.4405 14.2682   2
   0   2  -9 850.321 31.6677   2
   0   2  -9 1312.27 85.4593   4
   0   2   9 1321.46 66.4326   4
   0  -2  -9 1209.64 93.7999   3
   0  -2  -9 1324.23 63.8615   4
   0  -2   9 1355.45 88.3154   4
   0  -2 -10 68.9426 50.0089   3
   0   2  10 74.8734 34.2682   4
   0  -2  10-3.02384 43.1173   4
   0   2 -10 20.0571 42.2898   4
   0  -2  11 6859.00 201.493   4
   0  -2 -11 6738.36 225.036   3
   0   2  11 6929.66 162.007   4
   0   2 -11 6674.31 198.767   4
   0  -2  12 1337.04 101.296   4
   0  -2 -12 1293.12 111.497   3
   0   2  12 1231.22 78.1818   4
   0   2 -12 1196.17 95.4324   4
   0   2  13 159.512 42.5102   4
   0  -2 -13 138.956 65.5045   3
   0  -2  13 287.108 69.6994   4
   0   2  14 422.368 60.0146   4
   0  -2  14 313.156 62.9461   4
   0  -2 -14 452.237 92.3932   3
   0  -2 -15 1442.36 136.532   3
   0   2  15 1411.18 93.6500   4
   0   2 -15 1471.38 146.653   3
   0  -2  15 1384.25 116.496   4
   0  -2 -16-47.1084 76.5811   3
   0   2 -16 70.9776 74.6618   3
   0  -2  16 19.8573 59.4451   4
   0  -2 -17 2185.02 178.653   3
   0  -2  17 2112.65 148.885   4
   0   2 -17 2210.23 187.696   3
   0  -2 -18 496.712 106.566   3
   0  -2  18 502.539 88.6522   4
   0   2 -18 437.252 116.467   3
   0  -4   0 54536.2 314.516   4
   0   4   0 55067.1 304.235   4
   0  -4   1 2908.99 86.2294   4
   0   4   1 3015.36 65.3889   4
   0   4  -1 2824.79 82.5400   4
   0  -4  -1 2757.44 65.1032   4
   0  -4  -2 3988.46 62.8871   4
   0   4  -2 4111.52 108.713   4
   0  -4   2 3980.52 108.894   4
   0  -4   3 8509.13 161.746   4
   0   4  -3 8512.11 163.155   4
   0   4   3 8309.97 143.410   3
   0   4   4 313.865 45.3851   3
   0  -4   4 363.645 57.3391   4
   0   4  -4 283.225 48.0197   4
   0   4   5 605.733 53.7949   3
   0  -4  -5 630.372 57.7375   3
   0   4  -5 664.511 56.3947   4
   0  -4   5 609.451 65.0710   4
   0  -4  -6 399.839 53.5361   3
   0   4   6 399.137 52.3994   3
   0   4  -6 375.956 49.1427   4
   0  -4   6 420.793 61.1663   4
   0  -4   7 688.240 70.7791   4
   0  -4  -7 594.768 64.8861   3
   0   4  -7 528.503 55.5166   4
   0  -4   8 12660.1 258.605   4
   0   4  -8 12443.8 253.799   4
   0  -4  -8 12506.6 254.403   3
   0   4   9 141.705 19.5543   1
   0  -4   9 120.941 46.2215   4
   0   4   9 138.141 18.2205   2
   0  -4  -9 78.5781 43.9536   3
   0   4  -9 116.019 42.1958   4
   0   4 -10 1140.27 91.7953   4
   0  -4 -10 1087.44 94.4250   3
   0  -4  10 1079.58 94.4047   4
   0   4 -10 1128.37 53.7339   2
   0  -4  11 381.492 72.1727   4
   0   4 -11 372.371 66.1961   4
   0   4 -11 349.040 32.9061   2
   0  -4 -11 378.488 68.8740   3
   0   4 -12 1650.51 115.640   4
   0   4 -12 1352.61 51.8904   2
   0  -4 -12 1743.15 126.554   3
   0   4 -12 1151.05 44.2030   1
   0  -4  12 1707.84 121.060   4
   0  -4 -13 515.320 84.8671   3
   0  -4  13 464.740 80.7861   4
   0  -4 -14 104.184 67.9336   3
   0  -4  14 47.6738 59.4675   4
   0  -4  15 93.7716 62.1223   4
   0  -4 -15 147.338 69.8983   3
   0  -4 -16 1060.37 124.681   3
   0  -4  16 1017.80 118.796   4
   0  -4 -17 67.8250 75.3161   3
   0   4 -17 92.5820 93.3364   3
   0  -4  17-37.2505 65.7223   4
   0  -4  18 817.634 119.908   4
   0  -4 -18 875.762 130.881   3
   0   4 -18 857.258 142.695   3
   0  -6   0 49904.3 364.936   4
   0   6   0 49436.5 358.175   4
   0   6  -1 1606.70 76.1766   4
   0  -6  -1 1612.57 67.2467   4
   0  -6   1 1716.80 82.4552   4
   0   6   1 1583.89 62.4434   4
   0  -6  -2 19646.5 186.258   4
   0  -6   2 19910.8 265.510   4
   0   6  -2 19439.2 258.440   4
   0  -6  -3 23548.7 175.811   4
   0  -6   3 23567.8 305.259   4
   0   6  -3 23563.9 301.924   4
   0  -6  -4 168.450 17.4494   4
   0   6  -4 218.063 46.6962   4
   0  -6   4 256.166 55.4682   4
   0   6   5 1352.77 76.9586   3
   0   6  -5 1262.71 83.4221   4
   0  -6   5 1354.27 91.2470   4
   0   6  -6 280.965 49.9784   4
   0  -6   6 261.983 56.1421   4
   0   6   6 360.372 52.5791   3
   0  -6   7 3469.03 147.282   4
   0   6  -7 3372.32 143.820   4
   0   6   7 3293.86 133.663   3
   0   6   8 1417.35 97.9406   3
   0  -6   8 1404.14 102.705   4
   0   6  -8 1463.22 101.797   4
   0   6  -9 32899.3 465.640   4
   0  -6   9 32037.6 464.702   4
   0   6 -10 9.40808 41.1866   4
   0  -6 -10 27.6736 48.7407   3
   0  -6  10-19.4158 57.0874   4
   0   6 -11 19224.6 259.263   2
   0   6  11 17532.6 197.679   2
   0   6 -11 18964.1 384.290   4
   0  -6 -11 19338.8 376.718   3
   0   6  11 18053.1 204.769   1
   0  -6  11 19350.4 394.919   4
   0  -6 -12 109.359 56.9589   3
   0  -6  12-24.1534 56.1197   4
   0   6 -12 6.13900 30.2986   2
   0   6  12 22.6210 13.0401   2
   0   6  12 29.5138 14.9660   1
   0   6 -13 186.188 33.5964   2
   0  -6 -13 258.891 72.7579   3
   0  -6  13 185.532 72.4270   4
   0   6 -14 70.2438 21.7304   1
   0  -6 -14 99.9898 61.9185   3
   0  -6  14 169.384 78.1136   4
   0   6 -14 71.0120 26.5836   2
   0  -6  15 4638.43 227.782   4
   0  -6 -15 4986.50 237.480   3
   0  -6  16 778.841 115.469   4
   0  -6 -16 837.371 114.839   3
   0  -6 -17 968.528 128.988   3
   0  -6  17 863.693 119.135   4
   0  -6 -18 225.001 85.6014   3
   0  -6  18 294.259 103.259   4
   0   8   0 359.293 47.2966   4
   0  -8   0 303.028 48.6326   4
   0   8  -1-12.7730 37.2197   4
   0  -8   1 9.54216 39.7718   4
   0  -8  -1 15.3575 33.3016   4
   0   8  -2 849.473 70.1332   4
   0  -8   2 796.971 72.0980   4
   0  -8  -2 805.918 53.5268   4
   0  -8   3 734.609 71.2275   4
   0   8  -3 880.007 75.8085   4
   0  -8  -3 830.010 49.3984   4
   0  -8  -4 6841.66 111.161   4
   0  -8   4 6963.90 198.270   4
   0   8  -4 7159.30 196.738   4
   0   8   5 2242.93 105.006   3
   0  -8   5 2276.46 124.976   4
   0  -8  -5 1547.41 47.2365   4
   0   8  -5 2309.18 121.463   4
   0  -8   6 7563.50 221.037   4
   0   8   6 7191.44 190.112   3
   0   8  -6 7561.05 219.416   4
   0   8  -7 98.0414 53.5323   4
   0   8   7-7.53913 37.5087   3
   0  -8   7 33.7023 55.9141   4
   0   8   8 8044.86 221.566   3
   0   8  -8 8196.57 246.319   4
   0  -8   8 8073.46 245.286   4
   0   8  -9 273.197 67.7929   4
   0  -8   9 183.266 61.2856   4
   0   8   9 232.038 55.5551   3
   0  -8  10 1296.59 118.176   4
   0  -8  11 465.303 89.0334   4
   0   8 -12 2044.26 105.275   2
   0   8  12 2050.31 86.3978   2
   0   8  12 2111.45 87.7575   1
   0  -8  12 2070.18 147.785   4
   0   8 -13 91.9682 38.3885   2
   0   8  13 53.2019 24.3094   2
   0   8  13 95.4777 27.0597   1
   0  -8  13 57.2693 68.2715   4
   0  -8  14 1297.85 135.202   4
   0  -8  15 239.558 92.1194   4
   0  -8  16 457.709 103.898   4
   0  -8  17 193.119 97.0431   4
   0 -10   0 918.108 73.5543   4
   0  10   0 937.830 71.2143   4
   0 -10   1 16357.3 287.706   4
   0 -10  -1 16575.5 262.110   4
   0  10  -1 16709.2 285.301   4
   0  10  -2 2591.73 121.172   4
   0 -10   2 2568.58 125.032   4
   0 -10  -2 2574.81 101.878   4
   0 -10  -3 2333.29 91.4372   4
   0  10  -3 2446.09 125.090   4
   0 -10   3 2266.66 126.131   4
   0 -10  -4 75.7490 30.8120   4
   0 -10   4-5.54378 54.3389   4
   0  10  -4 17.6862 46.1115   4
   0  10  -5 237.683 59.1929   4
   0 -10   5 283.862 63.4658   4
   0 -10  -5 278.788 31.2052   4
   0  10  -6 85.8211 50.8665   4
   0 -10  -6 21.1412 11.8250   4
   0 -10   6 71.0570 60.0728   4
   0  10   6 72.2186 39.1397   3
   0  10   7 518.750 64.5017   3
   0  10  -7 617.807 85.5745   4
   0 -10   7 583.286 85.2843   4
   0  10   8 302.245 58.3582   3
   0 -10   8 223.442 70.6860   4
   0  10   9 3231.08 158.825   3
   0 -10   9 3382.51 184.061   4
   0  10  10 1454.33 112.767   3
   0 -10  10 1595.52 134.777   4
   0  10  11 1727.57 130.070   3
   0 -10  11 1896.93 149.025   4
   0 -10  12 186.152 81.4249   4
   0  10 -13 65.7866 45.8345   2
   0  10  13 68.6103 37.6722   1
   0 -10  13 43.1892 77.2695   4
   0 -10  14 403.061 94.1457   4
   0 -10  15 152.756 84.9810   4
   0 -10  16 190.140 83.0351   4
   0 -12   0 8779.43 224.558   4
   0 -12  -1 3375.69 136.536   4
   0 -12   1 3494.55 152.680   4
   0 -12  -2 723.503 68.6380   4
   0  12  -2 758.759 80.0936   4
   0 -12   2 723.143 82.6968   4
   0  12  -3 294.951 60.6710   4
   0 -12  -3 174.749 41.0105   4
   0 -12   3 303.484 67.7165   4
   0  12  -4 713.054 83.5230   4
   0 -12  -4 634.982 55.1246   4
   0 -12   4 611.535 82.8774   4
   0 -12  -5 1115.10 61.7902   4
   0  12  -5 1113.13 103.226   4
   0 -12   5 1017.81 104.001   4
   0 -12  -6 6934.26 123.302   4
   0 -12   6 7591.28 260.237   4
   0 -12   7 399.536 82.8275   4
   0  12   7 443.204 68.3783   3
   0  12   8 96.5580 50.8988   3
   0 -12   8 173.388 72.5261   4
   0 -12   9 1927.72 152.175   4
   0  12   9 1980.03 130.318   3
   0 -12  10 585.195 101.155   4
   0  12  10 697.306 89.7020   3
   0 -12  11 1721.27 158.543   4
   0 -12  12 1091.54 131.935   4
   0 -12  13-11.5818 81.9513   4
   0 -12  14 1231.50 146.900   4
   0 -12  15 53.2955 92.9767   4
   0 -14   0 25.4556 49.8124   4
   0 -14   1 577.739 78.3894   4
   0 -14  -1 602.919 74.3132   4
   0 -14   2 192.469 60.6569   4
   0 -14  -2 238.959 56.8614   4
   0 -14  -3 6038.79 182.928   4
   0 -14   3 5934.50 226.574   4
   0 -14  -4 148.122 42.4680   4
   0 -14   4 130.400 66.4321   4
   0 -14   5 2326.35 158.795   4
   0 -14  -5 2245.33 99.6159   4
   0 -14   6 499.028 92.0206   4
   0 -14  -6 431.798 44.9057   4
   0  14   7 306.630 66.0542   3
   0 -14   7 287.434 82.6826   4
   0  14   8 89.7797 54.0954   3
   0 -14   8 7.94604 71.0803   4
   0 -14   9 1469.24 145.551   4
   0 -14  10 814.759 122.882   4
   0 -14  11 1205.18 143.487   4
   0 -14  12 80.7607 76.1596   4
   0 -14  13 1023.96 141.773   4
   0 -14  14 102.318 90.4361   4
   0 -16   0 7040.17 239.754   4
   0 -16  -1 540.522 80.7916   4
   0 -16   1 426.755 79.3408   4
   0 -16   2 2556.78 158.792   4
   0 -16  -2 2547.96 136.245   4
   0 -16  -3 15.5613 43.5481   4
   0 -16   3 45.4828 65.0367   4
   0 -16  -4 8.49261 41.4554   4
   0 -16   4 51.6471 67.0838   4
   0 -16   5 8.85948 65.4867   4
   0 -16  -5 159.029 52.1885   4
   0 -16   6 1467.75 139.336   4
   0 -16  -6 870.706 59.6738   4
   0 -16  -7 453.177 40.2627   4
   0 -16   7 689.598 112.378   4
   0 -16   8 1651.78 158.571   4
   0 -16   9 200.128 86.0474   4
   0 -16  10 49.6875 79.2774   4
   0 -16  11 39.9168 78.8333   4
   0 -16  12 2802.81 226.151   4
   0 -16  13 94.4191 91.1883   4
   0 -18   0 123.651 67.2772   4
   0 -18  -1 21.5922 56.6503   4
   0 -18   1 94.6402 67.3066   4
   0 -18   2 492.190 94.0860   4
   0 -18  -2 499.918 78.8942   4
   0 -18  -3 292.141 68.8619   4
   0 -18   3 253.504 82.0477   4
   0 -18  -4 167.359 60.8100   4
   0 -18   4 135.022 81.8724   4
   0 -18   5 69.2106 76.6763   4
   0 -18  -5 163.764 52.3246   4
   0 -18  -6 332.800 53.7073   4
   0 -18   6 232.207 93.9293   4
   0 -18   7 26.7522 74.1247   4
   0 -18   8 86.5197 93.1437   4
   0 -18   9 1028.43 144.749   4
   0 -18  10-161.781 96.6742   4
   0 -18  11-13.3653 87.6267   4
   0 -20   0 2093.33 158.858   4
   0 -20  -1 243.512 74.2010   4
   0 -20   1 144.160 78.6941   4
   0 -20   2 1268.82 139.292   4
   0 -20  -2 1128.25 113.983   4
   0 -20  -3 329.015 75.5145   4
   0 -20   3 237.596 89.9718   4
   0 -20   4 230.012 94.2266   4
   0 -20  -4 432.918 77.5606   4
   0 -20   5 202.183 91.3697   4
   0 -20   6 1329.78 152.844   4
   0 -20   7 60.6492 84.3578   4
   0 -20   8 558.008 116.290   4
   0 -22   0 162.598 77.7345   4
   0 -22   1 179.674 91.8881   4
   0 -22  -1 495.220 99.6859   4
   0 -22  -2 51.2053 65.2355   4
   0 -22   2 112.222 93.0995   4
   0 -22   3 1585.44 174.994   4
   0 -22   4 159.473 92.4749   4
   1   1 -19 1057.78 143.299   3
   1  -1 -19 970.107 138.498   3
   1  -1 -18-85.5089 71.2695   3
  -1  -1  18 63.2660 65.2340   4
   1   1 -18-51.8956 73.8322   3
   1  -1 -17-0.40834 67.6333   3
  -1   1  17 145.472 56.8222   4
  -1  -1  17-35.5603 54.3865   4
   1   1 -17-79.5995 82.3078   3
   1  -1 -16 454.493 93.0805   3
  -1  -1  16 365.037 73.9432   4
   1   1 -16 359.777 92.1766   3
  -1   1  16 341.967 63.0328   4
   1   1 -15 1954.25 156.591   3
  -1   1  15 1920.95 113.580   4
  -1  -1  15 1938.18 125.514   4
   1  -1 -15 1913.65 146.929   3
   1  -1 -14 159.307 67.0149   3
  -1   1  14-31.3365 41.9680   4
  -1  -1  14 139.308 56.6668   4
   1  -1 -13 1298.08 116.630   3
  -1  -1  13 1336.53 97.4128   4
  -1   1  13 1334.28 87.1416   4
   1  -1 -12 3642.07 172.688   3
  -1  -1  12 3674.18 147.549   4
  -1   1  12 3723.42 133.061   4
  -1  -1  11 1803.57 102.610   4
   1  -1 -11 1672.71 114.838   3
  -1   1  11 1753.83 88.8484   4
   1  -1 -10 1017.18 88.1203   3
  -1  -1  10 988.904 77.2051   4
  -1   1  10 1015.04 67.0815   4
  -1   1   9 48.9602 32.8161   4
  -1  -1   9 102.303 41.8991   4
  -1  -1   8 8453.91 176.413   4
  -1   1   8 8548.25 155.102   4
   1   1  -7 1356.09 73.3891   4
  -1  -1   7 1362.89 71.6915   4
  -1   1   7 1523.70 62.8937   4
   1   1  -6 219.240 46.2460   4
  -1   1   6 193.320 30.8049   4
  -1  -1   6 368.332 53.3131   4
   1   1  -6 271.388 21.6096   1
   1   1  -5 394.333 45.0164   4
  -1   1   5 204.344 26.4468   4
  -1  -1   5 405.624 48.2508   4
   1   1  -5 408.263 25.9297   1
  -1   1   4 316.094 28.3514   4
  -1  -1   4 468.304 46.0529   4
  -1  -1   3 241.189 40.0923   4
  -1   1  -2 35900.6 241.388   4
  -1  -1  -2 36512.1 248.935   3
  -1  -1  -2 36616.3 181.785   4
  -1   1  -2 36594.1 180.698   2
   1   1   2 36732.6 251.320   3
   1  -1   2 36344.1 242.263   4
   1   1   2 36224.7 165.596   1
   1  -1   3 28140.1 235.469   4
   1   1   3 28494.1 184.434   4
   1   1   3 28201.6 144.502   1
  -1  -1  -3 27908.5 188.880   4
  -1  -1  -3 28670.6 253.570   3
  -1   1  -3 28208.4 163.758   2
   1   1   3 28094.8 255.829   3
  -1   1  -3 28153.6 239.250   4
  -1   1  -4 28300.8 258.649   4
   1  -1   4 28327.2 260.927   4
  -1   1  -4 27824.2 168.207   2
   1   1   4 28446.4 212.753   4
  -1  -1  -4 28038.9 214.308   4
  -1  -1  -4 28020.4 284.286   3
  -1  -1  -5 30804.4 330.084   3
  -1   1  -5 30929.0 292.767   4
  -1  -1  -5 30966.0 247.923   4
  -1   1  -5 27850.7 173.656   2
   1   1   5 30627.6 247.288   4
   1  -1   5 31165.4 296.221   4
   1  -1   6 1010.26 68.6567   4
  -1  -1  -6 1014.59 79.0246   3
  -1  -1  -6 982.263 55.1650   4
  -1   1  -6 1028.91 64.6506   4
   1   1   6 1105.81 59.2671   4
  -1   1  -7 15966.2 240.390   4
   1   1   7 16036.0 214.846   4
   1  -1   7 15894.3 244.951   4
  -1  -1  -7 15873.7 279.109   3
  -1  -1  -7 15993.3 210.907   4
  -1  -1  -8 86.0326 49.7439   3
  -1   1  -8 100.102 37.8109   4
  -1  -1  -8 96.5615 32.7415   4
   1   1   8 95.8324 35.0074   4
   1  -1   8 272.153 75.3617   4
   1   1   9 69.5213 34.1884   4
  -1  -1  -9 94.3607 48.2301   3
  -1  -1  -9 70.8163 35.5548   4
  -1   1  -9 77.0859 37.3950   4
   1  -1   9 82.5646 38.7845   4
  -1  -1 -10 1514.40 111.343   3
   1  -1  10 1600.40 95.6162   4
  -1  -1 -10 1613.62 85.7684   4
   1   1  10 1526.23 84.4169   4
  -1   1 -10 1611.39 95.3237   4
  -1   1 -11 2293.49 116.991   4
   1   1  11 2523.84 110.560   4
  -1   1 -11 2380.37 147.595   3
   1  -1  11 2389.63 122.667   4
  -1  -1 -11 2349.08 107.657   4
  -1  -1 -11 2234.82 142.304   3
  -1  -1 -12 159.606 43.0403   4
  -1   1 -12 112.963 59.2264   3
   1   1  12 102.967 42.2740   4
  -1   1 -12 138.374 50.8429   4
  -1  -1 -12 69.8927 56.9482   3
   1  -1  12 146.200 49.7782   4
   1   1  13 116.915 49.3974   4
   1  -1  13 102.119 50.5304   4
  -1   1 -13 72.6356 48.1639   4
  -1  -1 -13 141.629 70.7540   3
  -1   1 -13 122.551 68.7921   3
  -1  -1 -14 247.901 78.9613   3
   1   1  14 169.683 54.8501   4
  -1   1 -14 195.064 80.7691   3
   1  -1  14 192.626 59.4778   4
  -1   1 -15-30.7090 72.4658   3
  -1  -1 -15-3.43301 69.1238   3
   1   1  15 17.0284 44.3606   4
   1  -1  15-4.88561 52.2305   4
  -1  -1 -16 837.999 117.666   3
  -1   1 -16 822.976 130.716   3
   1  -1  16 790.022 93.0872   4
  -1  -1 -17 124.880 84.5288   3
  -1   1 -17 93.5406 79.3592   3
   1  -1  17 254.378 77.5644   4
  -1   1 -18 54.8809 84.7260   3
  -1  -1 -18 261.406 94.3675   3
   1   3 -19 2093.83 203.093   3
   1  -3 -19 2151.26 190.678   3
  -1  -3  19 1806.04 153.596   4
   1  -3 -18 1.35779 70.2449   3
  -1  -3  18 31.2961 66.3673   4
   1   3 -18 122.142 94.0013   3
   1   3 -17 2555.40 202.934   3
   1  -3 -17 2614.78 188.452   3
  -1  -3  17 2453.81 165.937   4
  -1  -3  16 2474.85 161.751   4
   1  -3 -16 2335.06 168.659   3
  -1  -3  15 43.1470 57.7558   4
   1  -3 -15 118.340 69.8399   3
  -1   3  15 84.5473 39.7700   4
  -1  -3  14 2005.51 133.657   4
  -1   3  14 1836.47 90.6024   4
   1  -3 -14 1919.05 143.029   3
   1  -3 -13 4093.14 189.434   3
  -1   3  13 4079.09 124.465   4
  -1  -3  13 4291.38 180.797   4
   1  -3 -12 186.280 59.2549   3
  -1  -3  12 171.555 57.1178   4
  -1   3  12 168.429 35.8392   4
  -1  -3  11 6051.30 196.071   4
   1   3 -11 4718.62 84.4115   2
  -1   3  11 6092.25 133.511   4
   1  -3 -11 5985.16 202.289   3
   1   3 -10 2121.29 59.3118   1
  -1  -3  10 2531.42 126.278   4
   1  -3 -10 2544.80 128.195   3
  -1   3  10 2584.77 81.3338   4
  -1  -3   9 90.3580 46.6106   4
   1  -3  -9 82.4381 44.7390   3
  -1   3   9 28.0482 23.0732   4
   1   3  -9 63.4317 40.5852   4
  -1  -3   8 482.106 59.5353   4
   1  -3  -8 465.514 58.4053   3
  -1   3   8 534.732 35.7967   4
  -1   3   8 339.395 23.4590   2
   1   3  -8 508.938 61.4047   4
   1  -3  -7 2875.26 109.978   3
   1   3  -7 2908.24 113.232   4
  -1   3   7 2684.53 60.6598   2
  -1   3   7 2961.92 64.0162   4
  -1  -3   7 2966.39 114.378   4
  -1  -3   6 203.277 46.3319   4
  -1   3   6 237.018 19.3051   4
   1  -3  -6 261.409 44.1960   3
   1   3  -6 174.948 31.6647   4
   1   3  -5 10701.8 184.802   4
  -1  -3   5 10481.6 188.431   4
   1  -3  -5 10824.8 169.405   3
  -1   3   4 23181.9 221.413   3
   1  -3  -4 22442.9 221.270   3
   1   3  -4 22816.2 253.336   4
  -1  -3   4 23153.4 257.726   4
  -1  -3   3 2308.97 81.2520   4
   1   3  -3 2373.58 82.1189   4
  -1   3   3 2372.38 65.2897   3
   1  -3  -2 5445.63 70.4582   4
  -1  -3   2 6388.17 114.843   4
  -1   3   2 6023.50 70.5857   4
   1  -3  -1 8650.87 106.686   4
  -1   3   1 9198.29 107.538   4
   1  -3   0 12390.0 146.041   4
  -1   3   0 12382.6 146.298   4
   1  -3   1 301.575 43.2558   4
  -1   3  -1 268.335 37.0056   4
   1  -3   2 89.0746 36.9971   4
  -1   3  -2 189.507 38.8868   4
   1  -3   3 27050.0 280.155   4
  -1   3  -3 26019.2 269.576   4
   1   3   3 26970.9 265.531   3
   1   3   4 4398.77 122.479   3
  -1  -3  -4 4378.06 123.931   3
  -1  -3  -4 3794.70 65.9398   4
   1  -3   4 4471.81 128.286   4
  -1   3  -4 4089.58 113.965   4
   1  -3   5 47353.1 422.493   4
  -1  -3  -5 46361.5 247.727   4
   1   3   5 48238.9 424.529   3
  -1  -3  -5 47659.4 418.776   3
  -1   3  -6 3103.32 119.995   4
   1   3   6 2710.00 64.6594   1
  -1  -3  -6 2706.14 114.003   3
  -1  -3  -6 2597.15 65.9924   4
   1  -3   6 2947.52 122.590   4
  -1   3  -6 2979.11 81.2415   2
  -1   3  -7 55694.7 501.888   4
  -1  -3  -7 54879.6 515.652   3
  -1  -3  -7 55536.0 324.732   4
   1  -3   7 55212.2 502.503   4
  -1   3  -8 195.494 45.9655   4
  -1  -3  -8 43.1360 41.8697   3
  -1  -3  -8 44.2388 25.3718   4
   1   3   8 30.9002 11.9392   1
   1  -3   8 112.545 50.3465   4
  -1   3  -8 139.789 26.3126   2
  -1  -3  -9 11295.2 170.037   4
  -1  -3  -9 10919.1 262.800   3
   1  -3   9 10922.4 249.664   4
  -1   3  -9 11269.7 147.212   2
  -1   3  -9 11401.0 252.239   4
   1  -3  10 4988.95 180.593   4
  -1   3 -10 4896.51 173.828   4
  -1  -3 -10 4912.37 123.207   4
  -1  -3 -10 4606.86 184.133   3
  -1   3 -10 4291.71 90.7752   2
  -1   3 -11 2284.77 128.587   4
  -1  -3 -11 2253.81 139.426   3
   1  -3  11 2273.22 131.240   4
  -1  -3 -11 2194.35 91.0068   4
   1  -3  12 180.350 58.9933   4
  -1  -3 -12 150.166 62.6614   3
  -1   3 -12 217.327 58.0170   4
  -1  -3 -13 1750.82 136.107   3
  -1   3 -13 1742.15 123.528   4
   1  -3  13 1836.93 128.039   4
   1  -3  14 466.913 78.9308   4
  -1  -3 -14 511.767 97.5284   3
  -1   3 -15 664.777 113.992   3
  -1  -3 -15 579.553 100.111   3
   1  -3  15 570.469 91.9669   4
  -1  -3 -16 3454.09 214.941   3
   1  -3  16 3117.74 180.765   4
  -1   3 -16 3239.34 222.409   3
   1  -3  17 49.7972 62.4404   4
  -1   3 -17 77.0022 83.3280   3
  -1  -3 -17 56.4513 77.2514   3
  -1  -3 -18 184.664 92.8969   3
   1  -3  18 101.303 69.3756   4
  -1   3 -18-33.7051 79.7326   3
   1  -5 -18 70.1710 77.4098   3
  -1  -5  18 71.0591 77.8664   4
   1  -5 -17 255.939 81.4284   3
  -1  -5  17 287.996 91.5294   4
  -1  -5  16 534.593 98.8158   4
   1  -5 -16 631.457 102.589   3
   1  -5 -15 292.038 77.9423   3
  -1  -5  15 267.229 80.6957   4
   1   5 -14 352.186 28.9110   1
  -1  -5  14 260.236 75.5096   4
   1  -5 -14 308.817 75.1128   3
   1   5 -14 240.842 24.6362   2
   1   5 -13 3002.18 83.3046   1
   1   5 -13 3600.30 93.9144   2
  -1  -5  13 3755.38 185.728   4
   1  -5 -13 3663.26 175.825   3
   1   5 -12 5443.51 120.234   2
   1   5 -12 5115.53 116.752   1
  -1  -5  12 5502.28 209.277   4
   1  -5 -12 5503.89 203.800   3
   1  -5 -11 6021.23 204.681   3
  -1  -5  11 6195.69 212.244   4
  -1   5  11 4755.90 90.0494   1
  -1   5  10 1186.70 50.4613   2
  -1  -5  10 1441.19 107.656   4
   1  -5 -10 1177.71 89.7345   3
   1   5  -9 412.377 57.7339   4
  -1  -5   9 333.576 60.5595   4
   1  -5  -9 384.194 55.9846   3
  -1   5   9 428.628 36.6638   2
   1  -5  -8 656.545 63.2393   3
  -1  -5   8 648.656 74.8416   4
   1   5  -8 631.112 65.5677   4
  -1  -5   7 6807.54 187.772   4
  -1   5   7 7198.64 175.412   3
   1   5  -7 6944.97 193.086   4
   1  -5  -7 6915.52 171.678   3
  -1  -5   6 2770.93 120.360   4
  -1   5   6 2718.54 102.787   3
   1   5  -6 2938.37 120.316   4
   1   5  -5 8524.83 188.562   4
  -1  -5   5 8284.57 188.688   4
  -1   5   5 8337.55 158.436   3
  -1  -5   4 53113.0 446.507   4
   1   5  -4 53338.8 440.843   4
  -1   5   3 2773.15 57.8831   4
  -1  -5   3 2881.11 108.408   4
   1  -5  -3 2652.53 60.1057   4
   1   5  -3 2993.45 103.271   4
  -1  -5   2 1216.96 72.4356   4
  -1   5   2 1049.78 47.7667   4
   1  -5  -2 1117.61 50.0325   4
   1  -5  -1 5649.53 114.517   4
  -1   5   1 5463.65 109.365   4
  -1  -5   1 5763.98 125.098   4
  -1  -5   0 178.818 36.9366   4
   1  -5   0 177.206 39.5822   4
  -1   5   0 131.874 33.7562   4
   1  -5   1 34244.9 318.138   4
  -1  -5  -1 35095.7 243.447   4
  -1   5  -1 34063.2 315.660   4
   1  -5   2 3415.63 114.711   4
  -1   5  -2 3409.40 111.172   4
   1  -5   3 41966.8 397.533   4
  -1   5  -3 41009.4 391.534   4
   1   5   4 6258.00 152.312   3
   1  -5   4 6291.95 166.720   4
  -1   5  -4 6398.10 166.562   4
   1  -5   5 2791.44 121.999   4
   1   5   5 2603.56 106.391   3
  -1   5  -5 2711.26 114.585   4
   1  -5   6 2341.93 120.363   4
  -1   5  -6 2368.00 110.482   4
   1   5   6 2263.26 108.988   3
   1  -5   7 2892.98 133.473   4
  -1  -5  -7 2114.84 49.6596   4
  -1   5  -7 2636.10 122.933   4
  -1  -5  -7 2667.69 127.032   3
   1   5   7 2805.27 127.644   3
   1   5   8 635.052 43.2577   1
  -1   5  -8 612.222 66.7289   4
  -1  -5  -8 634.220 74.9704   3
  -1   5  -8 622.580 50.6058   2
  -1  -5  -8 497.809 28.1901   4
   1  -5   8 591.911 75.3320   4
  -1   5  -9 1628.92 105.033   4
   1   5   9 1673.54 63.0583   1
  -1   5  -9 1757.40 76.6589   2
   1  -5   9 1583.48 111.279   4
  -1  -5  -9 1611.38 110.205   3
   1  -5  10 2727.44 146.014   4
  -1   5 -10 2765.61 142.768   4
  -1   5 -10 2902.91 97.8769   2
   1   5  10 2218.50 70.4308   1
  -1  -5 -10 2656.37 144.518   3
  -1  -5 -11 1812.74 127.312   3
  -1   5 -11 1914.73 128.133   4
  -1   5 -11 2048.06 78.5226   2
   1  -5  11 1827.18 126.466   4
   1   5  11 1264.68 41.3880   2
   1  -5  12-18.4172 57.4181   4
  -1  -5 -12-14.8470 52.5486   3
  -1   5 -12 26.6336 26.0612   2
  -1  -5 -13 5325.27 232.096   3
   1  -5  13 5519.66 226.134   4
  -1  -5 -14 5133.17 236.408   3
   1  -5  14 5299.71 227.624   4
  -1  -5 -15 519.913 97.6477   3
   1  -5  15 588.327 94.9534   4
  -1  -5 -16 346.694 92.8324   3
   1  -5  16 292.438 85.0095   4
   1  -5  17 155.928 78.9549   4
  -1  -5 -17 211.760 93.4338   3
  -1   5 -17 216.269 102.609   3
  -1  -7  18 369.592 105.791   4
  -1  -7  17 183.918 88.4005   4
  -1  -7  16 1060.97 127.442   4
   1   7 -15 1887.52 77.8641   1
  -1  -7  15 2370.72 173.245   4
   1   7 -14 982.457 64.1344   1
  -1  -7  14 1140.85 119.299   4
   1   7 -14 1162.71 73.0441   2
  -1   7  13 1241.41 57.0741   1
  -1  -7  13 1728.60 137.342   4
  -1   7  13 1289.76 55.2901   2
  -1   7  12 460.338 40.9824   2
  -1  -7  12 572.886 92.6261   4
  -1   7  11 2244.92 87.2043   2
  -1  -7  11 2399.37 146.740   4
  -1  -7  10 1077.36 104.394   4
   1   7  -9 1011.53 92.5743   4
  -1  -7   9 1046.92 98.7775   4
   1   7  -8 395.936 66.3369   4
  -1  -7   8 375.096 66.8344   4
  -1   7   8 358.108 54.2573   3
  -1  -7   7 2993.10 141.927   4
   1   7  -7 3252.80 144.146   4
  -1   7   7 3039.35 120.790   3
   1   7  -6 441.891 62.8170   4
  -1   7   6 486.218 53.5462   3
  -1  -7   6 395.432 64.2660   4
   1   7  -5 1130.66 81.9979   4
  -1   7   5 1145.45 70.1173   3
  -1  -7   5 1072.08 82.7786   4
  -1  -7   4 8048.89 198.612   4
   1  -7  -4 8087.46 108.814   4
   1   7  -4 8291.08 198.560   4
   1   7  -3 8841.53 194.827   4
  -1  -7   3 8633.18 195.373   4
  -1   7   3 8924.22 130.865   4
   1  -7  -3 8742.61 132.976   4
  -1  -7   2 121.786 45.2993   4
   1  -7  -2 119.757 32.5018   4
  -1   7   2 150.117 31.8597   4
  -1   7   1 1831.28 80.7871   4
   1  -7  -1 1830.90 82.1951   4
  -1  -7   1 1969.72 89.6203   4
  -1   7   0 100.837 37.3699   4
  -1  -7   0 119.706 39.3488   4
   1  -7   0 90.5790 42.3626   4
   1  -7   1 3160.09 117.486   4
  -1  -7  -1 3215.88 96.4842   4
  -1   7  -1 3161.98 114.773   4
  -1  -7  -2 1053.79 53.5438   4
   1  -7   2 1038.49 79.3830   4
  -1   7  -2 1107.73 80.1318   4
  -1   7  -3 63.5305 39.9845   4
  -1  -7  -3 27.6292 23.7490   4
   1  -7   3 32.8844 45.0499   4
  -1  -7  -4 522.527 32.2651   4
   1  -7   4 486.628 65.6413   4
  -1   7  -4 484.110 63.0278   4
   1   7   5 228.596 48.3430   3
   1  -7   5 229.287 54.2111   4
  -1  -7  -5 149.612 16.1987   4
  -1   7  -5 254.045 53.1638   4
  -1   7  -6 318.280 63.2983   4
   1   7   6 216.714 50.1583   3
   1  -7   6 236.805 59.2551   4
   1   7   7 5733.46 184.534   3
  -1   7  -7 5927.12 198.971   4
   1  -7   7 5667.54 199.204   4
  -1   7  -8 6975.51 222.178   4
   1   7   8 6845.36 213.180   3
   1  -7   8 6684.57 224.100   4
   1   7   9 138.591 50.2596   3
  -1   7  -9 165.669 55.7537   4
   1  -7   9 99.0442 58.2809   4
  -1   7 -10 5219.34 206.026   4
   1  -7  10 5182.60 211.205   4
  -1   7 -10 5199.64 152.347   2
   1   7  10 5321.15 133.343   1
   1  -7  11 1632.59 130.322   4
   1   7  11 1733.01 76.2677   1
  -1   7 -11 1709.83 90.2288   2
   1  -7  12 914.469 117.218   4
  -1   7 -12 763.966 63.6631   2
   1   7  12 753.871 47.2172   1
   1   7  12 638.633 42.8201   2
   1  -7  13 145.357 69.9147   4
   1   7  13 106.714 18.2006   1
   1   7  13 91.1754 16.4107   2
  -1   7 -13 135.847 39.3305   2
   1  -7  14 2524.52 173.954   4
   1  -7  15 60.2160 70.5408   4
   1  -7  16 984.785 125.875   4
   1  -7  17 147.973 86.0438   4
  -1  -9  17-72.9531 86.6322   4
  -1  -9  16 1610.60 156.796   4
   1   9 -15 307.241 54.0194   1
  -1  -9  15 293.472 89.9619   4
  -1   9  14 1715.79 80.0838   1
  -1  -9  14 1939.54 157.781   4
  -1  -9  13 109.528 68.6046   4
  -1   9  13 79.0049 33.5502   2
  -1   9  12 97.1719 39.5432   2
  -1  -9  12 157.972 74.2480   4
  -1  -9  11 925.225 108.891   4
  -1  -9  10 1481.53 124.761   4
  -1   9  10 1373.48 106.775   3
  -1  -9   9 1320.54 116.138   4
  -1   9   9 1239.97 98.4223   3
   1   9  -8 160.094 59.6465   4
  -1  -9   8 150.140 60.2763   4
  -1   9   8 115.848 44.8313   3
  -1   9   7 1540.97 93.3716   3
   1   9  -7 1677.07 116.040   4
  -1  -9   7 1557.43 114.179   4
  -1   9   6 679.339 64.6626   3
   1   9  -6 724.231 79.4918   4
  -1  -9   6 722.243 85.5590   4
   1   9  -5 528.094 67.2358   4
   1  -9  -5 561.155 36.5419   4
  -1  -9   5 508.177 72.0177   4
  -1  -9   4 14905.5 292.770   4
   1  -9  -4 15373.6 187.870   4
  -1   9   3 188.170 33.3711   4
  -1  -9   3 150.287 49.1837   4
   1  -9  -3 189.238 37.6914   4
  -1   9   2 32724.5 325.871   4
  -1  -9   2 33304.7 402.742   4
   1  -9  -2 33685.8 337.089   4
   1  -9  -1 3655.71 123.716   4
  -1   9   1 3524.48 117.985   4
  -1  -9   1 3438.28 129.860   4
   1  -9   0 72.0929 39.7991   4
  -1  -9   0 100.266 43.1997   4
  -1   9   0 131.940 44.5808   4
  -1   9  -1 6983.13 182.572   4
  -1  -9  -1 6510.66 156.929   4
   1  -9   1 6861.35 186.462   4
   1  -9   2 5024.61 166.675   4
  -1   9  -2 5202.92 165.165   4
  -1  -9  -2 4906.31 126.636   4
  -1   9  -3 1583.41 102.510   4
  -1  -9  -3 1591.88 69.6416   4
   1  -9   3 1551.35 104.086   4
   1  -9   4 2446.78 130.562   4
  -1   9  -4 2547.54 130.550   4
  -1  -9  -4 2568.11 75.9564   4
  -1  -9  -5 53.7258 20.2484   4
   1  -9   5 22.6136 49.4995   4
  -1   9  -5 64.0138 48.3739   4
  -1   9  -6 716.786 80.7018   4
   1   9   6 681.550 71.8119   3
   1  -9   6 732.346 85.6841   4
   1   9   7 147.904 50.4026   3
   1  -9   7 218.130 68.0334   4
  -1   9  -7 195.182 59.3979   4
   1   9   8 310.903 60.7475   3
   1  -9   8 369.285 74.2646   4
  -1   9  -8 316.116 71.6261   4
   1   9   9 574.068 78.1453   3
   1  -9   9 523.374 87.7453   4
   1   9  10 3532.94 177.232   3
   1  -9  10 3562.19 190.371   4
   1  -9  11 130.378 71.5728   4
   1   9  11 121.329 41.0342   1
  -1   9 -11 104.952 46.3511   2
  -1   9 -12 313.546 62.2734   2
   1   9  12 228.699 44.0159   1
   1  -9  12 243.654 85.6302   4
   1  -9  13 470.240 93.8272   4
   1   9  13 348.051 43.5140   1
  -1   9 -13 409.921 65.9252   2
   1  -9  14 1206.04 139.056   4
   1  -9  15 139.173 82.9632   4
   1  -9  16 2697.64 199.621   4
  -1 -11  16 2242.59 189.395   4
  -1 -11  15 986.656 133.317   4
  -1 -11  14 907.934 131.505   4
  -1 -11  13 2978.66 197.240   4
  -1 -11  12 853.020 120.031   4
  -1  11  12 852.537 78.3916   2
  -1 -11  11 139.769 75.1913   4
  -1  11  11 99.6716 58.0189   3
  -1  11  10 631.806 82.3528   3
  -1 -11  10 594.435 97.2350   4
  -1  11   9 2303.16 131.918   3
  -1 -11   9 2408.13 158.727   4
  -1 -11   8 12148.0 329.397   4
  -1  11   8 12086.7 273.609   3
  -1 -11   7 4783.01 205.908   4
  -1  11   7 4843.08 169.698   3
   1 -11  -6 3023.28 76.9170   4
  -1 -11   6 3340.13 166.490   4
   1 -11  -5 2857.13 88.5701   4
  -1 -11   5 2582.80 144.983   4
  -1 -11   4 710.723 83.8498   4
   1 -11  -4 770.496 58.8944   4
   1 -11  -3 536.951 54.4403   4
  -1 -11   3 500.658 74.4139   4
  -1  11   2 3756.60 126.620   4
   1 -11  -2 3952.16 134.936   4
  -1 -11   2 3902.22 155.844   4
  -1  11   1 22737.9 325.260   4
   1 -11  -1 22631.2 332.047   4
  -1 -11   1 22291.0 346.738   4
  -1  11   0 67.7593 38.8950   4
   1 -11   0 73.0692 44.1659   4
  -1 -11   0 37.3791 40.8317   4
  -1  11  -1 8439.53 220.386   4
   1 -11   1 8373.91 223.163   4
  -1 -11  -1 8439.34 196.753   4
   1 -11   2 5699.45 194.558   4
  -1 -11  -2 5986.17 157.906   4
  -1  11  -2 6049.25 195.156   4
  -1 -11  -3 5919.70 147.134   4
   1 -11   3 5818.60 202.505   4
  -1  11  -3 6172.66 202.777   4
  -1 -11  -4 2736.39 93.3369   4
   1 -11   4 2727.75 147.891   4
  -1  11  -4 2866.85 147.001   4
   1 -11   5 708.246 91.0714   4
  -1  11  -5 715.658 84.1681   4
  -1 -11  -5 687.336 45.8594   4
  -1  11  -6 31.6806 47.2866   4
   1 -11   6 91.3186 59.8468   4
   1  11   6 12.2054 38.9063   3
  -1 -11  -6 32.6655 17.0695   4
   1 -11   7 2886.66 167.706   4
   1  11   7 2736.90 142.900   3
   1  11   8 5925.52 210.440   3
   1 -11   8 5858.17 240.185   4
   1 -11   9 806.680 104.019   4
   1  11   9 860.551 95.4914   3
   1 -11  10 3071.87 187.677   4
   1 -11  11 532.243 103.358   4
  -1  11 -12 2739.21 147.870   2
   1 -11  12 3204.80 203.870   4
   1  11  12 2994.38 135.511   1
   1 -11  13 1523.17 150.860   4
   1  11  13 1546.56 98.2884   1
   1 -11  14 17.4305 78.9772   4
   1 -11  15 320.768 96.0035   4
   1 -11  16 1321.02 157.004   4
  -1 -13  15 179.248 98.1777   4
  -1 -13  14 1455.38 156.254   4
  -1 -13  13 48.9002 78.4350   4
  -1 -13  12 29.9767 74.4165   4
  -1 -13  11 483.321 103.611   4
  -1 -13  10 135.280 79.4798   4
  -1  13  10 119.335 57.1510   3
  -1 -13   9 757.085 114.072   4
  -1  13   9 631.769 81.1353   3
  -1  13   8-75.0191 49.6133   3
  -1 -13   8 69.2673 71.3858   4
  -1 -13   7 581.269 95.0510   4
  -1  13   7 439.989 65.4485   3
  -1 -13   6 132.480 69.2251   4
   1 -13  -6 161.399 32.1543   4
   1 -13  -5 3324.26 111.755   4
  -1 -13   5 3201.75 171.273   4
   1 -13  -4 816.895 67.9866   4
  -1 -13   4 845.216 94.9659   4
  -1 -13   3 712.503 90.1320   4
   1 -13  -3 672.049 67.7247   4
   1 -13  -2 2853.25 126.473   4
  -1 -13   2 2686.95 141.935   4
  -1  13   1 1768.76 104.147   4
   1 -13  -1 1764.71 108.847   4
  -1 -13   1 1873.22 118.524   4
  -1 -13   0 829.069 81.7460   4
  -1  13   0 754.505 76.9462   4
   1 -13   0 777.523 81.8785   4
   1 -13   1 1148.06 101.488   4
  -1  13  -1 1286.21 101.022   4
  -1 -13  -1 1214.71 90.2485   4
  -1  13  -2 1997.45 127.909   4
   1 -13   2 1903.77 128.085   4
  -1 -13  -2 1913.59 108.152   4
  -1 -13  -3 202.475 46.8505   4
  -1  13  -3 269.409 64.5506   4
   1 -13   3 237.105 70.3995   4
   1 -13   4 1641.16 129.338   4
  -1  13  -4 1661.73 124.024   4
  -1 -13  -4 1750.74 88.6241   4
  -1 -13  -5 6428.30 147.854   4
   1 -13   5 6579.37 248.420   4
   1 -13   6 1239.68 123.061   4
  -1 -13  -6 1173.86 58.2889   4
   1 -13   7 851.561 113.773   4
  -1 -13  -7 514.475 26.9008   4
   1  13   7 760.838 87.2025   3
   1 -13   8 486.028 93.5565   4
   1 -13   9 489.694 101.058   4
   1 -13  10 2595.59 185.140   4
   1 -13  11 438.572 100.262   4
   1 -13  12 169.986 91.9328   4
   1 -13  13 1370.30 152.751   4
   1 -13  14 127.366 84.0072   4
  -1 -15  14 272.679 103.267   4
  -1 -15  13 1335.19 162.864   4
  -1 -15  12 1079.11 148.091   4
  -1 -15  11-40.0771 87.0779   4
  -1 -15  10 3312.76 214.026   4
  -1 -15   9 84.4946 76.4365   4
  -1  15   8 1502.81 118.012   3
  -1 -15   8 1795.79 158.385   4
  -1  15   7 1510.50 118.236   3
  -1 -15   7 1257.83 133.362   4
   1 -15  -6 56.2895 36.3516   4
  -1 -15   6 42.7866 67.9792   4
   1 -15  -5 1965.40 99.4646   4
  -1 -15   5 1874.28 147.221   4
  -1 -15   4 59.8013 62.7517   4
   1 -15  -4 66.1847 43.4266   4
  -1 -15   3 819.295 97.6071   4
   1 -15  -3 831.570 80.6479   4
   1 -15  -2 766.809 81.7405   4
  -1 -15   2 835.997 96.3478   4
  -1 -15   1 1528.43 117.427   4
   1 -15  -1 1542.61 112.323   4
  -1 -15   0 229.782 63.0317   4
   1 -15   0 255.242 68.0921   4
  -1 -15  -1 89.5739 56.6352   4
   1 -15   1 0.83040 54.1561   4
  -1 -15  -2 139.321 49.4574   4
   1 -15   2 181.801 66.8493   4
  -1 -15  -3 466.043 65.0723   4
   1 -15   3 455.061 88.2483   4
  -1 -15  -4 494.781 63.1886   4
   1 -15   4 545.608 94.4935   4
  -1 -15  -5 2366.83 104.580   4
   1 -15   5 2318.25 166.490   4
   1 -15   6 380.072 91.4960   4
  -1 -15  -6 380.056 46.8877   4
   1 -15   7 1794.64 157.176   4
  -1 -15  -7 1198.71 52.0480   4
   1 -15   8 294.501 88.2439   4
   1 -15   9 404.920 96.1621   4
   1 -15  10 310.100 91.3470   4
   1 -15  11 617.002 116.722   4
   1 -15  12 28.6902 83.0216   4
   1 -15  13 995.544 149.509   4
  -1 -17  12-9.11351 90.5796   4
  -1 -17  11 514.468 112.841   4
  -1 -17  10 3066.03 222.323   4
  -1 -17   9 929.169 135.243   4
  -1 -17   8 3126.16 213.296   4
  -1 -17   7 2676.67 187.559   4
   1 -17  -6 242.368 52.0922   4
  -1 -17   6 173.090 80.1276   4
   1 -17  -5 452.334 65.3059   4
  -1 -17   5 497.276 98.8837   4
   1 -17  -4 377.730 74.2266   4
  -1 -17   4 41.7489 67.6586   4
   1 -17  -3 49.5956 50.9694   4
  -1 -17   3 42.0123 60.9616   4
  -1 -17   2 2197.86 153.446   4
   1 -17  -2 2278.17 137.557   4
   1 -17  -1 1614.28 125.297   4
  -1 -17   1 1705.08 132.492   4
  -1 -17   0 134.290 64.3213   4
   1 -17   0 140.873 62.0085   4
  -1 -17  -1 42.8789 51.5422   4
   1 -17   1 38.4496 58.6367   4
  -1 -17  -2 2781.13 147.091   4
   1 -17   2 2617.00 170.743   4
  -1 -17  -3-90.3745 57.9836   4
   1 -17   3 82.7831 70.0682   4
  -1 -17  -4 718.900 78.0955   4
   1 -17   4 751.433 115.140   4
  -1 -17  -5 689.547 70.7994   4
   1 -17   5 665.678 107.540   4
   1 -17   6 1874.49 159.807   4
  -1 -17  -6 1952.33 93.9707   4
   1 -17   7 1880.91 167.154   4
   1 -17   8 1064.99 140.981   4
   1 -17   9 2.84616 80.0657   4
   1 -17  10 3717.58 244.634   4
   1 -17  11 406.004 121.858   4
  -1 -19  10 1242.85 163.564   4
  -1 -19   9 248.734 98.7358   4
  -1 -19   8 1536.45 165.630   4
  -1 -19   7 856.439 134.685   4
  -1 -19   6-41.7030 83.4923   4
  -1 -19   5 2354.83 184.583   4
   1 -19  -5 2288.62 126.505   4
  -1 -19   4 777.960 120.575   4
   1 -19  -4 624.825 79.9422   4
   1 -19  -3 17.8791 54.2643   4
  -1 -19   3-42.4652 69.2696   4
   1 -19  -2 537.722 87.4614   4
  -1 -19   2 399.007 96.0475   4
   1 -19  -1 72.6162 62.4691   4
  -1 -19   1 152.440 71.2761   4
  -1 -19   0 704.201 101.220   4
   1 -19   0 846.951 112.334   4
   1 -19   1 55.6927 68.1953   4
  -1 -19  -1 31.0784 59.5167   4
  -1 -19  -2 279.838 74.0177   4
   1 -19   2 303.860 85.4550   4
   1 -19   3 170.808 79.8677   4
  -1 -19  -3 113.838 55.7648   4
  -1 -19  -4 1204.63 100.859   4
   1 -19   4 1226.75 137.962   4
   1 -19   5 1908.00 169.118   4
   1 -19   6 244.191 89.6667   4
   1 -19   7 1693.38 172.898   4
   1 -19   8 49.9774 88.1909   4
   1 -19   9 1.79431 90.4011   4
  -1 -21   7 303.100 107.970   4
  -1 -21   6 113.748 91.5765   4
  -1 -21   5-38.3553 81.2329   4
  -1 -21   4 404.677 110.147   4
   1 -21  -3 279.313 70.4052   4
  -1 -21   3 321.807 93.3704   4
  -1 -21   2 154.497 73.6851   4
   1 -21  -2 223.065 76.0611   4
  -1 -21   1 1180.80 131.013   4
   1 -21  -1 1336.80 132.067   4
  -1 -21   0 279.697 83.4185   4
   1 -21   0 81.2679 68.4060   4
  -1 -21  -1 1515.46 139.245   4
   1 -21   1 1251.34 144.768   4
   1 -21   2 928.756 132.885   4
  -1 -21  -2 989.696 109.181   4
  -1 -21  -3 51.9892 57.0155   4
   1 -21   3 93.5398 81.7036   4
   1 -21   4 188.306 97.7092   4
   1 -21   5 31.1825 82.9824   4
   1 -21   6 19.1220 87.4921   4
   2   0 -19 27.6994 77.5965   3
   2   0 -18 3477.34 219.304   3
  -2   0  18 3794.36 180.468   4
  -2   0  17-45.0073 49.1868   4
   2   0 -17-22.8892 66.3000   3
   2   0 -16 77.0135 70.9445   3
  -2   0  16 42.9351 49.9625   4
  -2   0  15 18.3534 46.6960   4
   2   0 -15 148.336 77.6139   3
  -2   0  14 1091.43 90.5322   4
   2   0 -14 1286.92 122.521   3
  -2   0  13-26.1808 41.0650   4
  -2   0  12 216.660 49.6698   4
  -2   0  11 3.93147 34.2877   4
  -2   0  10 3333.66 119.798   4
  -2   0   9 33.6748 32.7001   4
  -2   0   8 1680.71 75.9435   4
   2   0  -7 33.6713 15.6367   2
  -2   0   7 26.1005 31.9328   4
  -2   0   6 3378.60 61.3837   1
  -2   0   6 3988.85 99.6399   4
  -2   0   5 3.15376 18.5447   1
   2   0  -5 66.9270 21.2877   1
  -2   0   4 6618.83 84.6225   1
   2   0  -4 6444.58 83.4042   1
   2   0  -3 41.0302 21.0935   1
  -2   0   3 35.1944 21.0551   1
  -2   0  -1 74.9627 26.6599   3
  -2   0  -2 517.449 40.0744   4
  -2   0  -2 680.843 52.4463   3
  -2   0  -2 616.348 33.6945   1
   2   0   3 88.5125 27.9903   2
  -2   0  -3 79.1968 43.4577   3
   2   0   3 37.3377 35.1779   4
  -2   0  -3 153.129 28.5679   1
  -2   0  -3 60.4296 32.8637   4
  -2   0  -4 2137.89 54.0754   1
   2   0   4 1998.02 53.9638   2
  -2   0  -4 1949.82 75.0122   4
  -2   0  -4 2022.37 89.5663   3
   2   0   4 2037.94 78.9483   4
  -2   0  -5 23.0743 31.7789   4
   2   0   5 44.3544 35.5948   4
  -2   0  -5 57.8935 20.2231   1
   2   0   5 55.7781 29.9192   2
  -2   0  -5 14.9100 39.5343   3
  -2   0  -6 9696.67 216.936   3
   2   0   6 9137.49 109.215   2
  -2   0  -6 9867.21 182.865   4
   2   0   6 9797.42 179.923   4
  -2   0  -7-36.0381 36.6417   4
  -2   0  -7 8.18111 12.4595   1
  -2   0  -7-13.8492 43.5460   3
   2   0   7-11.1192 33.6110   4
  -2   0  -8 170.738 56.4819   3
  -2   0  -8 169.308 37.4935   4
   2   0   8 104.055 38.9984   4
  -2   0  -9-30.5835 35.5942   4
  -2   0  -9 2.46628 51.0843   3
   2   0   9 3.34904 35.3974   4
  -2   0 -10 4318.98 188.415   3
  -2   0 -10 4379.70 150.775   4
   2   0  10 4305.91 150.192   4
   2   0  11-5.91765 39.9219   4
  -2   0 -11 74.5599 59.1755   3
  -2   0 -11 47.9242 39.9779   4
   2   0  12 3460.89 149.650   4
  -2   0 -12 3229.25 142.167   4
  -2   0 -12 3557.75 190.697   3
   2   0  13 7.41726 44.0384   4
  -2   0 -13 17.7534 49.5810   4
  -2   0 -13-33.7978 57.2444   3
  -2   0 -14 2158.90 167.403   3
   2   0  14 2426.00 136.718   4
  -2   0 -14 2056.93 129.157   4
  -2   0 -15-65.4278 72.6326   3
  -2   0 -16 1063.53 136.675   3
  -2   0 -17-5.77467 74.8720   3
  -2  -2  19 304.701 82.8359   4
   2   2 -19 345.294 105.929   3
   2  -2 -19 453.032 106.636   3
   2   2 -18-36.8241 80.0846   3
   2  -2 -18 122.873 81.9035   3
  -2  -2  18-42.7954 60.9262   4
  -2  -2  17 5761.16 230.864   4
   2   2 -17 6008.56 276.663   3
   2  -2 -17 5975.07 269.985   3
  -2   2  17 5782.54 186.386   4
   2  -2 -16 58.2782 63.0887   3
  -2  -2  16 113.932 60.3058   4
  -2   2  16 81.5230 45.5735   4
  -2  -2  15 5258.92 207.043   4
  -2   2  15 5209.49 165.340   4
   2  -2 -15 5238.50 229.689   3
  -2  -2  14 1749.83 121.100   4
   2  -2 -14 1662.04 130.249   3
  -2   2  14 1823.31 97.3039   4
   2  -2 -13 143.807 59.4710   3
  -2  -2  13 140.612 54.6286   4
  -2   2  13 61.6609 35.9290   4
  -2   2  12 75.2114 37.4309   4
  -2  -2  12-2.42130 44.6626   4
   2  -2 -12 116.378 57.3736   3
   2  -2 -11 468.190 66.7093   3
  -2  -2  11 325.418 51.0474   4
  -2   2  11 456.484 47.7151   4
  -2   2  10 415.305 44.8804   4
   2  -2 -10 454.755 62.6703   3
   2   2 -10 316.073 23.2945   1
  -2  -2  10 392.744 57.0842   4
  -2  -2   9 1210.78 80.6503   4
   2  -2  -9 1135.99 80.5554   3
   2   2  -9 1064.81 42.2442   1
  -2   2   9 1210.44 59.5823   4
  -2   2   8 3293.92 58.1331   1
  -2  -2   8 4643.37 148.267   4
  -2   2   8 4286.28 97.7941   4
   2   2  -8 4106.89 79.1339   1
   2  -2  -8 4208.41 133.667   3
   2   2  -7 1807.52 55.8722   1
  -2  -2   7 1748.05 87.9174   4
   2  -2  -7 1737.09 82.6713   3
  -2   2   7 1771.45 60.3106   4
  -2   2   6 83.6673 20.9125   2
   2  -2  -6 160.229 37.1562   3
   2   2  -6 94.7318 25.9746   1
  -2   2   6 119.538 24.5617   4
  -2  -2   6 118.397 43.3592   4
   2   2  -5 6189.03 100.540   1
  -2   2   5 5975.38 93.3449   2
   2  -2  -5 5837.87 113.804   3
  -2  -2   5 6254.24 136.568   4
   2   2  -4 274.681 32.4504   1
  -2   2   4 267.050 30.4803   2
   2  -2  -4 234.079 29.0655   3
  -2   2   3 26284.9 200.664   2
   2  -2  -3 26429.3 197.554   2
   2  -2  -3 26067.2 149.348   3
   2   2  -2 341.380 34.0695   1
   2  -2  -2 290.364 31.9197   2
  -2   2   2 303.251 34.1503   2
   2   2   0 44.9635 23.5027   1
  -2   2   0 85.0523 27.3460   4
   2  -2   1 3450.66 78.8941   2
  -2   2  -1 3199.85 86.4692   4
  -2   2  -1 3030.04 81.2431   2
   2  -2   1 3060.63 88.2084   4
   2   2   1 3252.29 77.1044   1
  -2   2  -2 1846.41 68.5448   4
   2   2   2 2374.02 80.6059   3
   2  -2   2 2068.59 81.2576   4
   2   2   2 2138.26 62.5937   1
  -2   2  -2 1880.36 58.1621   2
   2   2   3 13988.8 148.182   1
  -2   2  -3 14112.8 162.183   2
   2  -2   3 13596.4 201.747   4
  -2  -2  -3 14620.9 209.060   3
  -2   2  -3 13710.0 201.615   4
   2   2   3 14568.5 207.392   3
  -2   2  -4 705.143 59.9710   4
   2  -2   4 741.998 64.2673   4
   2   2   4 652.853 36.8898   1
   2   2   4 710.749 63.4730   3
  -2  -2  -4 683.839 43.3201   4
  -2  -2  -4 694.307 63.3947   3
  -2   2  -4 696.540 44.7430   2
  -2  -2  -5 3386.36 87.9406   4
  -2   2  -5 3393.56 82.5229   2
   2  -2   5 3296.71 115.426   4
  -2   2  -5 3352.56 114.589   4
   2   2   5 3233.66 72.5910   1
  -2  -2  -5 3734.62 152.679   3
  -2   2  -6 899.268 46.7986   2
  -2  -2  -6 839.021 54.4259   4
   2   2   6 807.140 39.5683   1
   2  -2   6 748.425 67.3824   4
  -2   2  -6 873.385 69.2624   4
  -2  -2  -6 894.626 75.1413   3
   2  -2   7 13220.3 249.890   4
  -2  -2  -7 12673.9 193.835   4
  -2   2  -7 12656.9 238.647   4
  -2  -2  -7 12988.1 265.226   3
  -2   2  -8 6124.59 174.710   4
  -2  -2  -8 6050.39 193.117   3
  -2  -2  -8 5799.06 138.183   4
   2  -2   8 5955.25 177.609   4
  -2   2  -8 6007.56 100.146   1
  -2   2  -9 17667.3 306.771   4
  -2  -2  -9 16844.4 340.115   3
  -2   2  -9 16762.2 157.930   1
   2  -2   9 17626.1 311.564   4
  -2  -2  -9 17059.6 250.798   4
   2  -2  10 5848.75 191.842   4
  -2  -2 -10 5925.58 156.796   4
  -2   2 -10 6250.45 196.469   4
  -2  -2 -10 5911.64 216.005   3
  -2  -2 -11 3704.99 131.917   4
   2  -2  11 3689.59 160.705   4
  -2  -2 -11 3786.34 183.102   3
  -2   2 -11 3907.24 163.615   4
  -2   2 -12 110.806 48.2492   4
  -2  -2 -12 153.221 70.7289   3
  -2   2 -12 122.898 65.8263   3
   2  -2  12 270.051 67.7235   4
  -2  -2 -12 152.895 42.6650   4
   2  -2  13 857.525 98.4269   4
  -2   2 -13 690.841 87.3774   4
  -2  -2 -13 608.714 91.9242   3
  -2  -2 -13 656.027 71.1016   4
  -2   2 -13 561.403 94.0778   3
   2  -2  14 163.494 64.2332   4
  -2  -2 -14 220.791 73.3479   3
  -2   2 -14 113.666 57.3082   4
  -2   2 -14 130.949 72.1401   3
  -2   2 -15 962.793 127.717   3
  -2  -2 -15 1004.34 129.916   3
   2  -2  15 927.654 105.289   4
  -2   2 -16 124.352 88.6051   3
   2  -2  16 12.7061 64.2615   4
  -2  -2 -16 123.613 87.0709   3
  -2   2 -17 908.725 142.658   3
  -2  -2 -17 1147.25 142.441   3
   2  -2  17 931.106 110.181   4
  -2  -4  19 356.204 96.9163   4
   2  -4 -19 259.703 91.2548   3
   2  -4 -18 1136.29 132.979   3
  -2  -4  18 1238.94 135.066   4
  -2  -4  17 379.562 87.5358   4
   2  -4 -17 383.731 90.8963   3
   2  -4 -16 26.1914 59.3894   3
  -2  -4  16 59.3353 60.2496   4
  -2  -4  15 7.12593 60.3047   4
   2  -4 -15 10.4226 57.7695   3
  -2   4  15-11.2464 28.7215   4
  -2   4  14 2988.82 97.8151   4
  -2  -4  14 3091.25 166.234   4
   2  -4 -14 3129.54 166.148   3
   2   4 -13 994.550 43.0629   1
   2  -4 -13 1156.98 99.4348   3
   2   4 -13 1128.75 47.3209   2
  -2  -4  13 1380.90 114.585   4
  -2   4  13 1252.08 63.0551   4
  -2   4  12 3609.80 95.8592   4
  -2  -4  12 4080.24 175.453   4
   2  -4 -12 3834.90 166.170   3
   2   4 -12 3514.30 86.4316   1
   2   4 -11 6119.46 120.199   1
   2  -4 -11 6214.35 194.205   3
  -2   4  11 5859.60 112.030   4
  -2  -4  11 6028.17 200.276   4
  -2   4  10 2508.30 67.9104   4
  -2   4  10 2166.23 60.9530   2
  -2  -4  10 2607.25 128.932   4
   2   4 -10 2675.11 82.9107   1
   2  -4 -10 2435.01 114.887   3
  -2  -4   9 4358.72 155.828   4
  -2   4   9 4013.30 77.2989   4
   2  -4  -9 4254.07 141.383   3
  -2   4   9 4144.01 89.9635   2
  -2   4   8 13174.3 124.147   4
  -2  -4   8 14342.9 265.315   4
  -2   4   8 14202.4 170.536   2
   2  -4  -8 14376.1 237.261   3
  -2   4   7 3684.21 59.3301   4
  -2   4   7 4579.25 100.804   2
   2  -4  -7 4744.30 128.833   3
  -2  -4   7 4590.82 149.840   4
   2  -4  -6 12556.9 186.948   3
  -2  -4   6 12384.0 229.488   4
  -2   4   6 12549.1 168.780   2
  -2   4   5 678.059 45.5870   2
  -2   4   5 687.994 46.6468   3
  -2  -4   5 731.420 66.2885   4
  -2  -4   4 11322.8 193.528   4
  -2   4   4 11108.0 137.449   3
  -2   4   4 10276.1 99.2892   4
  -2  -4   3 1051.00 67.4022   4
  -2   4   3 981.028 41.4934   4
   2  -4  -2 67741.7 322.194   4
  -2   4   2 67434.6 327.702   4
   2  -4  -1 4436.90 99.0834   4
  -2   4   1 4397.98 98.5843   4
  -2   4   0 7861.84 142.521   4
   2  -4   0 7842.03 142.743   4
   2  -4   1 882.564 66.4918   4
  -2   4  -1 944.890 61.1706   4
   2  -4   2 16829.9 238.769   4
  -2   4  -2 17115.5 237.229   4
   2   4   3 448.814 55.9979   3
   2  -4   3 468.667 62.7715   4
  -2   4  -3 403.706 53.9662   4
  -2   4  -4 12824.1 185.297   2
   2   4   4 12671.5 222.735   3
  -2   4  -4 12665.2 226.087   4
   2  -4   4 12725.8 230.802   4
  -2   4  -5 129.621 33.0092   2
  -2   4  -5 19.1591 38.7730   4
  -2  -4  -5 133.437 26.1472   4
   2   4   5 122.484 41.4041   3
   2  -4   5 128.764 52.3718   4
   2   4   5 141.936 30.2053   1
  -2   4  -6 6192.62 177.320   4
  -2  -4  -6 6265.89 108.947   4
  -2  -4  -6 6114.85 181.513   3
   2   4   6 6238.49 181.432   3
  -2   4  -6 6095.24 131.936   2
   2   4   6 6377.05 120.839   1
   2  -4   6 5989.00 177.191   4
  -2   4  -7 3720.17 102.954   2
  -2   4  -7 3638.80 144.721   4
   2   4   7 3592.97 89.5438   1
  -2  -4  -7 3485.70 147.307   3
   2   4   7 3536.85 146.715   3
   2  -4   7 3456.00 143.212   4
  -2  -4  -7 3509.99 89.8134   4
  -2  -4  -8 2809.58 138.674   3
  -2  -4  -8 2903.03 84.4454   4
  -2   4  -8 3052.77 93.6389   2
  -2   4  -8 2937.88 135.143   4
   2  -4   8 2877.12 137.114   4
   2   4   8 2715.01 79.0635   1
  -2   4  -9 1782.87 111.835   4
  -2   4  -9 1861.64 74.9676   2
  -2  -4  -9 1635.75 114.614   3
  -2  -4  -9 1803.01 72.1276   4
   2   4   9 1407.01 56.8032   1
   2  -4   9 1696.53 112.995   4
  -2   4 -10 3338.87 95.1565   2
  -2   4 -10 3253.03 153.885   4
  -2  -4 -10 2995.63 157.940   3
  -2  -4 -10 3167.21 98.4209   4
   2  -4  10 3061.95 151.396   4
  -2  -4 -11 5174.69 130.665   4
  -2  -4 -11 5084.04 215.362   3
  -2   4 -11 5336.55 202.547   4
   2  -4  11 5145.01 201.045   4
   2  -4  12 5940.16 221.901   4
  -2  -4 -12 5926.19 236.906   3
  -2   4 -12 4831.15 96.1653   1
  -2  -4 -12 6089.84 148.166   4
  -2   4 -12 6012.94 219.630   4
  -2  -4 -13 135.399 76.1333   3
   2  -4  13 146.067 69.5302   4
   2  -4  14 323.301 80.0805   4
  -2  -4 -14 447.708 92.3801   3
  -2   4 -15 790.707 121.426   3
  -2  -4 -15 930.561 122.517   3
   2  -4  15 951.679 109.836   4
  -2  -4 -16 786.046 124.275   3
  -2   4 -16 738.797 120.570   3
   2  -4  16 721.753 107.638   4
  -2   4 -17-10.6061 80.2197   3
   2  -4  17 85.0591 72.0870   4
  -2  -4 -17 73.1476 84.2124   3
  -2  -6  18-6.41349 71.9192   4
   2  -6 -18 95.1796 78.5742   3
   2  -6 -17 639.932 100.493   3
  -2  -6  17 635.955 108.644   4
   2  -6 -16 356.226 81.4127   3
  -2  -6  16 499.601 103.310   4
   2  -6 -15 2023.11 145.951   3
  -2  -6  15 2161.92 160.739   4
   2   6 -15 1488.82 62.2954   1
   2   6 -14 520.729 45.7949   1
   2  -6 -14 624.356 83.6768   3
  -2  -6  14 615.841 95.9333   4
   2  -6 -13 464.064 73.1861   3
  -2   6  13 265.251 22.3845   1
  -2  -6  13 450.967 82.4708   4
   2   6 -13 376.499 44.8072   1
   2   6 -12 200.480 42.4522   1
   2  -6 -12 170.534 53.4106   3
  -2  -6  12 170.156 63.9519   4
  -2   6  12 134.831 25.5855   2
  -2  -6  11 3887.44 175.975   4
  -2   6  11 3668.38 100.645   2
   2  -6 -11 3875.07 156.111   3
  -2   6  10 145.986 30.7230   2
   2  -6 -10 180.884 47.4948   3
  -2  -6  10 90.8147 52.5727   4
  -2  -6   9 15254.7 312.257   4
  -2   6   9 15241.0 217.830   2
  -2   6   8 894.488 56.8214   2
  -2  -6   8 948.630 85.8068   4
  -2  -6   7 9584.70 231.890   4
  -2   6   7 10105.5 194.458   3
  -2   6   6 573.896 50.2682   3
  -2  -6   6 597.588 71.9494   4
  -2   6   5 10247.1 102.839   4
  -2  -6   5 12113.6 237.397   4
  -2   6   5 12399.9 180.549   3
  -2   6   4 828.726 38.8959   4
  -2  -6   4 765.692 67.8434   4
  -2   6   3 431.555 36.9262   4
  -2  -6   3 436.420 59.3366   4
   2  -6  -3 423.333 38.9720   4
  -2   6   2 762.911 49.7773   4
   2  -6  -2 778.936 53.0224   4
  -2  -6   2 902.093 71.2743   4
  -2   6   1 7953.32 153.372   4
  -2  -6   1 7742.98 159.950   4
   2  -6  -1 8040.09 154.488   4
   2  -6   0 109.497 46.9257   4
  -2   6   0 131.407 40.5450   4
  -2   6  -1 1403.08 79.2813   4
   2  -6   1 1401.15 85.3042   4
  -2   6  -2 2784.66 112.774   4
   2  -6   2 2743.76 115.551   4
   2  -6   3 4184.00 145.106   4
  -2   6  -3 4376.01 144.260   4
  -2   6  -4 8614.81 207.456   4
   2  -6   4 8353.50 208.469   4
   2   6   4 8433.77 195.182   3
   2  -6   5 29031.9 397.825   4
  -2   6  -5 30422.4 404.302   4
   2   6   5 29251.6 379.618   3
  -2   6  -6 2697.30 128.454   4
  -2  -6  -6 2182.83 59.7825   4
   2  -6   6 2725.19 134.179   4
   2   6   6 2739.39 126.848   3
   2   6   7 1231.81 93.5813   3
  -2   6  -7 1340.55 97.4006   4
   2  -6   7 1177.27 93.6797   4
  -2  -6  -7 991.458 43.8409   4
  -2   6  -7 1266.91 73.7294   2
  -2  -6  -8 994.430 42.3951   4
  -2   6  -8 1201.20 74.9581   2
   2  -6   8 1131.81 100.235   4
  -2   6  -8 1158.98 91.2358   4
   2   6   8 1251.94 67.0778   1
   2   6   8 1179.46 95.0902   3
  -2  -6  -9 10092.7 126.862   4
  -2   6  -9 10771.4 208.141   2
   2   6   9 11315.0 186.219   1
  -2   6  -9 11469.8 291.275   4
   2  -6   9 10836.0 287.543   4
   2  -6  10 1352.80 115.527   4
   2   6  10 1483.29 67.5831   1
  -2   6 -10 1420.34 79.5576   2
  -2  -6 -10 1247.40 48.6891   4
  -2   6 -10 1473.05 112.972   4
  -2  -6 -11 1002.87 105.210   3
  -2   6 -11 1047.81 70.1141   2
   2  -6  11 998.277 105.102   4
   2   6  11 939.932 52.5484   1
   2   6  12 558.828 32.9844   1
  -2  -6 -12 807.227 100.711   3
  -2   6 -12 1004.52 66.1599   2
   2  -6  12 958.623 110.710   4
  -2  -6 -13 104.383 65.9714   3
   2  -6  13 86.5109 66.8524   4
  -2  -6 -14 1127.54 126.121   3
   2  -6  14 1283.38 132.242   4
   2  -6  15 1070.11 125.556   4
  -2  -6 -15 1066.57 131.529   3
   2  -6  16 26.1203 72.8091   4
  -2  -6 -16 84.9782 74.4274   3
   2  -6  17 544.901 106.007   4
  -2   6 -17 733.728 139.056   3
  -2  -8  18 1583.58 166.352   4
  -2  -8  17 855.801 131.997   4
  -2  -8  16 651.756 110.298   4
   2   8 -15 85.4825 39.9337   1
  -2  -8  15 95.4832 75.5150   4
  -2  -8  14 127.002 70.9755   4
  -2   8  14 119.057 26.6855   2
   2   8 -14-163.014 52.4701   1
  -2  -8  13 80.6690 69.1538   4
  -2   8  13 74.3354 33.2382   2
  -2  -8  12 2138.56 150.856   4
  -2   8  12 1943.72 89.2210   2
  -2  -8  11-67.2890 63.3144   4
  -2   8  11 30.0005 31.4992   2
  -2  -8  10 273.665 69.5195   4
  -2   8  10 260.004 45.9176   2
  -2  -8   9 395.747 75.4730   4
  -2   8   9 320.378 54.2304   3
  -2  -8   8 5260.95 196.133   4
  -2   8   8 5193.95 159.673   3
  -2  -8   7 1208.12 100.677   4
  -2   8   7 1230.25 77.5056   3
  -2  -8   6 1841.04 112.976   4
  -2   8   6 1790.70 85.3941   3
  -2   8   5 556.953 34.5244   4
  -2  -8   5 523.172 69.0583   4
  -2   8   4 7524.37 131.811   4
  -2  -8   4 7742.36 202.521   4
   2  -8  -4 8183.05 136.247   4
  -2   8   3 35.4423 29.7466   4
  -2  -8   3 3.59762 44.2269   4
   2  -8  -3 19.2993 30.2013   4
  -2   8   2 8797.50 172.140   4
  -2  -8   2 9018.41 197.757   4
   2  -8  -2 9185.17 172.781   4
  -2   8   1 14172.4 232.335   4
   2  -8  -1 14813.3 234.016   4
  -2  -8   1 14488.7 237.759   4
  -2  -8   0 7343.54 164.151   4
   2  -8   0 7491.08 177.955   4
  -2   8   0 7419.25 176.717   4
  -2   8  -1 7172.76 183.126   4
  -2  -8  -1 7164.00 151.789   4
   2  -8   1 7205.03 185.443   4
  -2   8  -2 10750.4 236.781   4
   2  -8   2 10637.2 236.604   4
  -2  -8  -2 11094.0 173.291   4
   2  -8   3 7016.52 199.952   4
  -2   8  -3 7001.79 197.903   4
  -2  -8  -3 7042.37 128.291   4
   2  -8   4 3741.60 153.485   4
  -2   8  -4 3831.26 154.061   4
  -2   8  -5-11.5482 45.8761   4
   2  -8   5 21.3511 50.0644   4
   2   8   5 32.0214 40.0898   3
   2  -8   6 20821.1 379.630   4
  -2   8  -6 21745.7 384.663   4
   2   8   6 21037.8 357.034   3
   2  -8   7 131.226 57.8624   4
  -2   8  -7 124.966 57.8497   4
   2   8   7 121.932 48.7031   3
  -2   8  -8 19460.6 394.042   4
  -2   8  -8 18322.3 304.114   2
   2  -8   8 18759.1 385.427   4
   2   8   8 19093.1 371.110   3
  -2   8  -9 376.674 60.6180   2
   2   8   9 389.067 51.8084   1
   2  -8   9 307.344 71.4699   4
   2   8   9 341.262 69.8177   3
  -2   8 -10 2318.88 113.577   2
   2   8  10 2321.75 101.707   1
   2  -8  10 2274.78 151.115   4
   2   8  11 26.2695 32.1333   1
   2  -8  11 97.7135 65.5871   4
  -2   8 -11 9.78951 38.8515   2
   2   8  12 1285.21 69.9862   1
  -2   8 -12 1314.88 91.6407   2
   2  -8  12 1292.62 129.486   4
   2   8  13 195.866 30.4647   1
   2  -8  13 319.409 81.9302   4
   2  -8  14 2629.25 185.687   4
   2  -8  15 273.212 90.6323   4
   2  -8  16-56.2647 82.1543   4
  -2 -10  17 2133.07 191.233   4
  -2 -10  16 321.660 98.8863   4
   2  10 -15 1082.66 88.7147   1
  -2 -10  15 1195.07 137.187   4
  -2 -10  14-47.9416 74.8287   4
  -2 -10  13 3745.19 213.463   4
  -2  10  13 3604.81 138.838   2
  -2 -10  12 1380.77 137.627   4
  -2  10  12 1303.78 90.2515   2
  -2  10  11 2797.07 126.610   2
  -2 -10  11 2851.22 175.865   4
  -2  10  10 2793.42 139.981   3
  -2 -10  10 2989.58 170.877   4
  -2  10   9 18595.0 331.094   3
  -2 -10   9 18578.5 399.421   4
  -2 -10   8 1534.70 122.048   4
  -2  10   8 1554.75 96.6436   3
  -2 -10   7 2413.60 143.450   4
  -2  10   7 2378.33 110.877   3
  -2  10   6 1307.26 83.8080   3
  -2 -10   6 1281.39 106.413   4
  -2  10   5 4219.21 103.308   4
  -2 -10   5 4155.10 170.804   4
   2 -10  -5 4435.53 106.680   4
  -2 -10   4 2291.68 126.838   4
   2 -10  -4 2512.26 91.4171   4
  -2  10   4 2373.83 87.7911   4
  -2 -10   3 8200.13 218.350   4
  -2  10   3 8126.61 171.930   4
   2 -10  -3 8333.29 174.744   4
  -2 -10   2 3685.93 147.691   4
   2 -10  -2 3707.69 128.177   4
  -2  10   2 3690.44 126.847   4
   2 -10  -1 3519.07 133.198   4
  -2  10   1 3465.83 130.531   4
  -2 -10   1 3460.31 135.866   4
  -2  10   0 217.053 71.3511   4
   2 -10   0 173.155 53.3644   4
  -2 -10   0 123.176 41.6510   4
  -2 -10  -1 17567.3 267.598   4
   2 -10   1 17952.1 314.961   4
  -2  10  -1 17897.9 314.812   4
  -2 -10  -2 1370.56 75.2862   4
  -2  10  -2 1380.79 98.8963   4
   2 -10   2 1335.21 99.6702   4
  -2 -10  -3 3566.60 109.392   4
   2 -10   3 3540.25 158.309   4
  -2  10  -3 3579.67 154.099   4
  -2  10  -4 680.692 79.6085   4
  -2 -10  -4 773.678 51.5960   4
   2 -10   4 745.111 86.0602   4
  -2  10  -5 907.237 94.7446   4
   2 -10   5 836.229 96.9165   4
  -2 -10  -5 839.281 48.1003   4
  -2 -10  -6 666.674 36.8414   4
   2  10   6 732.227 76.8168   3
  -2  10  -6 887.950 96.0576   4
   2 -10   6 827.942 94.7133   4
   2 -10   7 4686.12 204.602   4
   2  10   7 4805.76 187.750   3
   2 -10   8 136.438 62.3524   4
   2  10   8 220.263 59.6365   3
   2 -10   9 7017.73 262.479   4
  -2  10  -9 6471.23 206.693   2
   2  10  10 570.986 67.9647   1
  -2  10 -10 729.451 82.3818   2
   2 -10  10 627.670 100.630   4
   2 -10  11 187.014 85.7910   4
  -2  10 -11 168.027 52.8033   2
   2  10  11 255.942 55.7112   1
   2  10  12 57.8233 45.3074   1
   2 -10  12 94.1585 81.8146   4
  -2  10 -12-2.75134 47.1430   2
   2 -10  13 1270.04 140.835   4
   2 -10  14 41.6703 78.2392   4
   2 -10  15 1686.49 173.117   4
   2 -10  16 21.9426 86.3869   4
  -2 -12  16 44.1912 79.9890   4
  -2 -12  15 344.626 110.854   4
  -2 -12  14 819.668 122.826   4
  -2 -12  13 231.802 93.2313   4
  -2 -12  12 1267.13 140.068   4
  -2  12  12 1140.20 96.0686   2
  -2 -12  11 14.6573 74.2661   4
  -2  12  11-7.63885 47.2279   3
  -2 -12  10-13.3429 64.9916   4
  -2  12  10 25.6033 43.6487   3
  -2 -12   9 858.697 109.466   4
  -2  12   9 707.053 78.2770   3
  -2 -12   8 134.348 71.1699   4
  -2  12   8-21.4406 42.3155   3
  -2  12   7 3075.56 136.894   3
  -2 -12   7 3075.09 171.052   4
  -2 -12   6 3053.23 163.773   4
  -2 -12   5 2646.28 150.426   4
   2 -12  -5 2851.39 101.507   4
  -2  12   4 1326.87 75.5671   4
  -2 -12   4 1351.38 108.726   4
   2 -12  -4 1396.85 80.5285   4
  -2  12   3 429.109 53.4936   4
  -2 -12   3 429.156 69.3458   4
   2 -12  -3 473.753 57.0806   4
  -2 -12   2 5106.58 183.127   4
  -2  12   2 4925.83 159.169   4
   2 -12  -2 5213.02 165.613   4
   2 -12  -1 1924.44 111.416   4
  -2 -12   1 1865.00 111.512   4
  -2  12   1 1768.09 102.161   4
   2 -12   0 7122.19 210.433   4
  -2 -12   0 7107.04 197.469   4
  -2  12   0 7059.37 206.915   4
  -2 -12  -1 30.8582 38.8166   4
   2 -12   1 61.7483 47.1336   4
  -2  12  -1 63.8113 46.7890   4
   2 -12   2 2043.03 130.830   4
  -2  12  -2 2038.39 124.443   4
  -2 -12  -2 1976.66 100.983   4
  -2  12  -3 1367.14 131.741   4
   2 -12   3 689.509 88.9577   4
  -2 -12  -3 606.087 60.5205   4
  -2  12  -4 2977.58 160.204   4
   2 -12   4 2807.93 156.440   4
  -2 -12  -4 2940.24 105.687   4
   2 -12   5 3985.09 190.856   4
  -2 -12  -5 3800.22 107.195   4
   2 -12   6 13169.6 347.270   4
   2  12   6 12756.6 308.575   3
  -2 -12  -6 12025.6 165.668   4
  -2 -12  -7 1080.87 36.3259   4
   2  12   7 1666.82 120.970   3
   2 -12   7 1651.36 137.899   4
   2 -12   8 303.538 82.0928   4
   2 -12   9 17.2533 69.9438   4
   2 -12  10 100.444 79.1595   4
  -2  12 -10 76.6193 44.3984   2
  -2  12 -11 10.1381 49.2312   2
   2 -12  11-74.0194 82.0386   4
   2  12  11 160.508 56.3452   1
   2  12  12 2297.60 129.864   1
   2 -12  12 2415.28 186.260   4
   2 -12  13 840.121 124.937   4
   2 -12  14 938.582 138.975   4
   2 -12  15 864.498 137.488   4
  -2 -14  15 861.809 137.440   4
  -2 -14  14 129.314 94.8847   4
  -2 -14  13 196.536 89.3322   4
  -2 -14  12 482.060 106.097   4
  -2  14  11 1618.77 125.742   3
  -2 -14  11 1832.34 167.692   4
  -2 -14  10 53.7356 70.0901   4
  -2  14  10 10.5928 46.8213   3
  -2  14   9 3251.23 158.756   3
  -2 -14   9 3494.04 209.404   4
  -2  14   8 151.752 53.9836   3
  -2 -14   8 133.943 71.8728   4
  -2  14   7 1416.34 103.528   3
  -2 -14   7 1540.54 135.897   4
   2 -14  -6 312.705 45.6433   4
  -2 -14   6 357.921 83.0611   4
   2 -14  -5 1602.81 88.1623   4
  -2 -14   5 1526.93 128.118   4
   2 -14  -4-0.80942 40.3192   4
  -2 -14   4-12.7030 55.5233   4
   2 -14  -3 6024.13 184.449   4
  -2 -14   3 5880.92 217.337   4
   2 -14  -2-31.4047 45.2611   4
  -2 -14   2 4.63369 50.1237   4
  -2  14   2 54.2502 40.2333   4
  -2 -14   1 8442.92 244.395   4
  -2  14   1 8363.34 234.899   4
   2 -14  -1 8542.57 238.416   4
  -2 -14   0 176.993 57.0152   4
   2 -14   0 325.266 67.4870   4
  -2  14   0 327.297 64.2233   4
  -2 -14  -1 899.470 85.5910   4
   2 -14   1 1082.37 102.577   4
  -2  14  -1 1081.17 103.148   4
  -2 -14  -2 126.229 47.4359   4
  -2  14  -2 85.6567 53.7833   4
   2 -14   2 128.333 57.9342   4
   2 -14   3 4352.95 200.379   4
  -2 -14  -3 4273.61 149.764   4
   2 -14   4 390.993 82.5524   4
  -2 -14  -4 385.014 53.2180   4
  -2 -14  -5 44.3929 36.5708   4
   2 -14   5 119.918 68.7850   4
   2 -14   6 1665.60 144.576   4
  -2 -14  -6 1616.31 73.2079   4
   2 -14   7 116.472 77.5741   4
  -2 -14  -7 91.9587 19.8396   4
   2 -14   8 526.262 102.093   4
   2 -14   9 3126.54 202.563   4
   2 -14  10 147.936 79.0619   4
   2 -14  11 1075.42 137.875   4
   2 -14  12 262.604 98.9872   4
   2  14  12 142.890 62.1179   1
   2 -14  13 259.595 105.424   4
  -2 -16  13 499.271 123.858   4
  -2 -16  12 3385.87 233.004   4
  -2 -16  11 350.523 108.114   4
  -2 -16  10 101.067 86.8628   4
  -2  16   9 187.069 61.9303   3
  -2 -16   9 303.629 94.8310   4
  -2 -16   8 938.184 126.708   4
  -2  16   8 826.010 92.2571   3
  -2 -16   7 97.7365 71.8491   4
  -2 -16   6 3261.82 196.152   4
   2 -16  -6 2295.55 102.934   4
   2 -16  -5 545.213 72.1470   4
  -2 -16   5 303.884 81.2357   4
   2 -16  -4-8.48954 47.6026   4
  -2 -16   4 19.0024 63.2305   4
  -2 -16   3 223.419 73.7704   4
   2 -16  -3 209.454 58.5236   4
  -2 -16   2 3696.71 185.249   4
   2 -16  -2 3860.22 170.761   4
  -2  16   1 1426.97 111.120   4
  -2 -16   1 1487.78 119.220   4
   2 -16  -1 1529.32 117.688   4
  -2 -16   0 4002.75 179.162   4
  -2  16   0 3870.10 180.274   4
   2 -16   0 4038.02 190.474   4
  -2 -16  -1 1254.28 104.303   4
   2 -16   1 1127.98 115.510   4
   2 -16   2 1167.05 119.543   4
  -2 -16  -2 1113.07 94.3207   4
   2 -16   3 67.7388 67.5769   4
  -2 -16  -3 82.2403 49.3857   4
   2 -16   4 155.613 74.2945   4
  -2 -16  -4-86.4348 59.9448   4
  -2 -16  -5-37.0777 50.3766   4
   2 -16   5 422.336 90.7615   4
   2 -16   6 1756.96 156.952   4
  -2 -16  -6 1590.20 81.2991   4
   2 -16   7 493.033 103.062   4
   2 -16   8 568.189 118.740   4
   2 -16   9 311.635 90.2439   4
   2 -16  10 1101.59 142.561   4
   2 -16  11 520.843 118.824   4
   2 -16  12 1800.97 183.574   4
  -2 -18  11 1215.43 160.488   4
  -2 -18  10 135.565 84.4141   4
  -2 -18   9 2032.39 184.163   4
  -2 -18   8 13.0605 78.6421   4
  -2 -18   7 789.901 118.868   4
   2 -18  -6 45.2862 44.6181   4
  -2 -18   6-72.6988 79.0042   4
   2 -18  -5 3309.27 147.253   4
  -2 -18   5 3266.38 211.882   4
   2 -18  -4 300.589 65.7813   4
  -2 -18   4 501.697 99.4727   4
  -2 -18   3 3586.45 204.486   4
   2 -18  -3 3590.43 169.459   4
   2 -18  -2 85.2355 55.4555   4
  -2 -18   2 135.073 71.6255   4
  -2 -18   1 2583.31 165.112   4
   2 -18  -1 2531.44 157.493   4
   2 -18   0 256.600 74.6698   4
  -2 -18   0 169.080 64.3212   4
  -2 -18  -1 171.854 64.8296   4
   2 -18   1 124.371 73.5704   4
   2 -18   2 1106.50 130.224   4
  -2 -18  -2 1079.94 100.893   4
  -2 -18  -3 486.715 74.2367   4
   2 -18   3 494.708 101.194   4
   2 -18   4 220.224 91.4936   4
  -2 -18  -4 292.650 61.3583   4
  -2 -18  -5-71.8724 43.5726   4
   2 -18   5-121.518 79.6998   4
   2 -18   6 401.104 100.565   4
   2 -18   7 383.238 109.250   4
   2 -18   8 12.9341 84.1724   4
   2 -18   9 3337.91 234.693   4
   2 -18  10 144.768 92.5883   4
  -2 -20   9-31.2111 91.4004   4
  -2 -20   8 1012.43 153.407   4
  -2 -20   7 106.541 91.8250   4
  -2 -20   6 1162.67 148.493   4
  -2 -20   5 274.221 99.1278   4
   2 -20  -4 306.540 72.0538   4
  -2 -20   4 383.125 97.2069   4
  -2 -20   3 654.754 114.308   4
   2 -20  -3 772.707 99.5205   4
   2 -20  -2 742.775 100.077   4
  -2 -20   2 946.979 120.678   4
  -2 -20   1 242.529 79.3009   4
   2 -20  -1 242.504 77.4164   4
   2 -20   0 1307.41 133.352   4
  -2 -20   0 1439.75 131.930   4
  -2 -20  -1 414.494 85.5443   4
   2 -20   1 339.012 100.804   4
   2 -20   2 142.187 82.6697   4
  -2 -20  -2 331.052 78.2204   4
   2 -20   3-58.3674 74.9854   4
  -2 -20  -3 14.2960 56.0195   4
   2 -20   4 465.423 119.720   4
   2 -20   5 58.9783 83.6380   4
   2 -20   6 1221.95 166.394   4
   2 -20   7 33.5938 82.9407   4
  -2 -22   4 2.00667 83.2266   4
  -2 -22   3 501.267 108.599   4
   2 -22  -2 270.789 82.4880   4
  -2 -22   2 162.055 88.2611   4
  -2 -22   1 277.863 88.5738   4
   2 -22  -1 333.238 92.7241   4
  -2 -22   0 174.651 85.3059   4
   2 -22   0 81.2826 81.4226   4
  -2 -22  -1 564.131 98.4250   4
   2 -22   1 213.652 97.5953   4
   2 -22   2-62.0611 79.3853   4
   3  -1 -19 3458.19 224.672   3
  -3  -1  19 3278.01 181.989   4
   3   1 -19 3491.64 227.485   3
   3   1 -18 361.508 93.0537   3
  -3   1  18 238.521 58.3190   4
   3  -1 -18 470.903 102.521   3
  -3  -1  18 340.729 75.2794   4
  -3   1  17 73.0780 49.9548   4
  -3  -1  17 50.3577 55.2091   4
   3  -1 -17 133.132 71.1706   3
   3   1 -17 6.59245 65.2780   3
  -3  -1  16 261.534 68.9274   4
   3  -1 -16 236.593 77.8750   3
  -3   1  16 302.018 57.5949   4
  -3  -1  15 1780.22 119.891   4
  -3   1  15 1754.94 106.623   4
   3  -1 -15 1723.12 136.670   3
  -3  -1  14 353.522 65.4046   4
   3  -1 -14 264.585 70.0594   3
  -3   1  14 265.344 55.3957   4
  -3   1  13 5188.84 163.650   4
  -3  -1  13 5038.91 173.563   4
  -3  -1  12 1115.67 85.4065   4
  -3   1  12 1037.02 72.3254   4
   3   1 -11 428.402 23.0997   2
  -3   1  11 677.301 59.8904   4
  -3  -1  11 691.316 68.1233   4
  -3   1  10 12177.9 208.496   4
  -3  -1  10 11965.5 231.278   4
   3   1  -9 389.552 29.3633   1
  -3   1   9 334.731 24.6802   1
  -3  -1   9 341.377 49.7876   4
  -3   1   9 412.617 46.1222   4
  -3   1   8 13111.8 137.454   1
  -3   1   8 13066.8 189.730   4
   3  -1  -8 12737.2 134.764   2
   3   1  -8 13494.7 146.105   1
  -3  -1   8 12727.5 216.688   4
  -3   1   7 13612.4 143.147   1
   3   1  -7 13462.9 150.020   1
   3  -1  -7 13285.5 142.728   2
  -3  -1   7 12770.9 203.268   4
   3  -1  -6 1646.96 57.0883   2
  -3  -1   6 1630.10 58.5975   1
   3   1  -6 1714.65 60.7495   1
  -3   1   6 1686.87 55.5476   1
  -3  -1   5 2979.91 77.8381   1
  -3   1   5 2882.37 72.3346   1
   3   1  -5 2972.79 75.4431   1
   3  -1  -5 2939.68 74.3831   2
   3   1  -4 7522.19 116.874   1
  -3  -1   4 7516.52 118.767   1
  -3   1   4 7351.65 112.419   1
   3  -1  -4 7495.30 116.738   2
  -3   1   3 5427.86 100.115   1
   3  -1  -3 5430.47 100.613   2
  -3  -1   3 5536.89 100.920   1
   3   1  -3 5343.88 99.6274   1
  -3  -1   2 18003.9 180.259   1
   3  -1  -2 17866.3 180.792   2
   3   1  -2 18325.7 178.212   1
   3  -1  -1 40801.2 271.018   2
   3   1  -1 40474.0 266.196   1
   3  -1  -1 40019.1 193.102   3
  -3  -1   1 41209.0 266.153   1
  -3   1   0 150.143 29.1670   3
  -3  -1   0 94.7933 29.8479   1
   3  -1   0 88.5204 30.9153   2
   3  -1   0 102.846 26.4235   3
   3   1   0 100.262 29.1622   1
   3  -1   1 327.019 37.8341   2
  -3  -1  -1 358.924 37.5278   1
  -3  -1  -1 403.461 45.8348   3
   3   1   1 347.289 40.0759   3
  -3   1  -1 181.740 26.9715   3
   3   1   1 347.380 37.3446   1
  -3   1  -1 123.938 28.2689   4
  -3   1  -2 2847.68 93.6060   3
   3   1   2 2858.01 76.2461   1
  -3  -1  -2 2861.86 95.3624   3
   3  -1   2 2721.79 79.0605   2
  -3  -1  -2 2734.36 74.4206   1
  -3   1  -2 2725.56 92.6876   4
   3   1   2 2903.50 92.5733   3
   3  -1   3 1771.66 82.5757   4
  -3  -1  -3 1780.91 69.8306   4
  -3  -1  -3 1770.46 61.9861   1
  -3   1  -3 1990.51 71.5686   1
  -3   1  -3 1684.23 84.3208   3
   3   1   3 1709.98 59.9929   1
   3   1   3 1780.18 84.7438   3
   3  -1   3 1773.33 64.4363   2
  -3  -1  -3 1801.97 87.3892   3
  -3   1  -3 1737.34 78.2249   4
   3   1   4 10585.1 140.265   1
  -3  -1  -4 11036.2 173.024   4
  -3   1  -4 10804.2 214.848   3
  -3  -1  -4 10887.4 210.080   3
  -3  -1  -4 10350.8 139.097   1
   3  -1   4 10773.5 193.430   4
  -3   1  -4 10822.0 192.136   4
   3  -1   4 10894.1 148.451   2
  -3   1  -4 10879.2 144.748   1
  -3  -1  -5 46406.5 293.714   1
  -3  -1  -5 47179.1 464.990   3
  -3  -1  -5 47429.1 383.299   4
   3  -1   5 46145.7 415.950   4
   3  -1   5 47422.8 302.676   2
  -3   1  -5 47183.6 420.686   4
  -3   1  -5 47105.5 298.758   1
  -3   1  -5 46924.9 468.614   3
  -3  -1  -6 417.303 32.7528   1
   3  -1   6 685.639 78.3382   4
   3  -1   6 572.282 45.1952   2
  -3   1  -6 782.347 49.4088   1
   3   1   6 425.706 33.7832   2
  -3  -1  -6 403.010 47.8237   4
  -3  -1  -6 460.557 62.5429   3
  -3   1  -6 763.675 86.2288   3
  -3   1  -6 475.627 64.3836   4
   3  -1   7 9991.32 215.995   4
  -3  -1  -7 9854.72 241.667   3
  -3   1  -7 10284.4 139.470   1
  -3   1  -7 10101.8 217.428   4
   3   1   7 9734.94 133.768   2
  -3  -1  -7 10023.6 197.897   4
  -3   1  -7 9917.35 245.803   3
   3  -1   8 1717.63 100.315   4
  -3  -1  -8 1628.90 112.303   3
  -3   1  -8 1684.16 116.144   3
  -3  -1  -8 1578.35 85.5887   4
   3   1   8 1424.08 50.8256   2
  -3   1  -8 1582.79 96.3844   4
  -3   1  -8 1717.26 57.4361   1
  -3  -1  -9 45.4653 48.6772   3
  -3   1  -9 64.2465 37.6910   4
  -3   1  -9 58.4251 17.7129   1
  -3   1  -9 54.1603 53.4492   3
   3  -1   9 55.0537 39.9005   4
  -3  -1  -9 43.8798 36.5735   4
  -3  -1 -10 41.2542 40.0344   4
  -3  -1 -10 55.4285 52.2699   3
   3  -1  10 47.7743 44.8814   4
  -3   1 -10 47.3456 12.7735   1
  -3   1 -10 109.964 49.9781   4
  -3   1 -10 4.20902 56.3689   3
  -3   1 -11 1419.60 103.366   4
  -3  -1 -11 1385.95 93.4027   4
  -3   1 -11 1337.39 125.450   3
   3  -1  11 1392.53 105.396   4
  -3  -1 -11 1337.57 119.422   3
  -3   1 -12 133.879 73.1552   3
  -3  -1 -12 41.5732 58.2847   3
  -3  -1 -12 177.497 58.1370   4
  -3   1 -12 116.876 50.8288   4
   3  -1  12 25.5482 51.5144   4
  -3  -1 -13 677.464 103.583   3
   3  -1  13 580.852 82.2471   4
  -3   1 -13 674.663 109.407   3
  -3   1 -13 667.979 86.4249   4
  -3  -1 -13 483.663 71.9405   4
  -3  -1 -14 1719.19 155.840   3
  -3   1 -14 1510.13 147.603   3
  -3   1 -14 1555.05 123.026   4
  -3  -1 -14 1432.84 111.338   4
  -3   1 -15 501.905 102.931   3
  -3  -1 -15 351.214 91.1479   3
  -3  -1 -16 3382.46 226.204   3
  -3   1 -16 3355.67 233.794   3
  -3   1 -17 500.417 117.170   3
  -3  -1 -17 526.109 122.466   3
  -3  -3  19 95.0714 70.6513   4
   3  -3 -19 260.733 89.7043   3
   3  -3 -18-12.7955 68.2062   3
  -3  -3  18 65.7025 70.6120   4
  -3  -3  17-43.5846 62.3218   4
  -3   3  17-30.7837 38.5453   4
   3  -3 -17 6.65562 64.4622   3
   3  -3 -16 1024.65 113.056   3
  -3   3  16 946.849 73.6866   4
  -3  -3  16 993.761 106.649   4
  -3   3  15 700.985 62.7272   4
   3  -3 -15 753.298 94.3653   3
  -3  -3  15 724.732 92.5012   4
  -3  -3  14 220.491 65.8130   4
  -3   3  14 146.444 39.2829   4
   3  -3 -14 195.122 57.0691   3
   3  -3 -13 1305.10 105.479   3
  -3   3  13 1363.29 76.2780   4
  -3  -3  13 1292.62 104.854   4
   3   3 -13 962.516 38.3669   1
   3  -3 -12 1064.69 90.2802   3
  -3   3  12 1094.94 65.7992   4
  -3  -3  12 1065.30 92.5462   4
   3   3 -12 998.439 46.4266   1
  -3  -3  11 1326.40 95.6740   4
  -3   3  11 968.218 34.9684   1
   3   3 -11 1380.63 56.8896   1
   3  -3 -11 1387.09 93.2378   3
  -3   3  11 1507.35 68.5582   4
  -3   3  10 2709.70 83.6135   4
  -3  -3  10 2617.48 124.966   4
   3  -3 -10 2561.67 114.712   3
  -3   3  10 2353.95 62.4979   1
   3   3 -10 2698.19 80.2960   1
  -3   3   9 648.004 38.2312   1
   3  -3  -9 647.467 60.8227   3
  -3   3   9 649.559 43.6091   4
   3   3  -9 675.361 45.4197   1
  -3  -3   9 619.160 69.0640   4
   3  -3  -8 1154.23 68.9917   3
  -3   3   8 1152.39 53.2215   2
  -3   3   8 1237.08 52.5454   4
   3   3  -8 1174.01 57.4438   1
  -3  -3   8 1112.09 80.7743   4
  -3  -3   7 62.8927 42.4573   4
   3  -3  -7 108.472 32.2326   3
  -3   3   7 85.9628 27.3200   2
   3   3  -7 86.2859 29.8667   1
  -3  -3   6 2899.24 112.095   4
   3   3  -6 3288.55 90.7277   1
  -3   3   6 3214.45 87.5585   2
   3  -3  -6 3157.04 84.6432   3
   3   3  -5 310.430 42.1673   1
   3  -3  -5 268.346 30.1978   3
  -3   3   5 361.253 42.7270   2
   3   3  -4 35999.9 294.869   1
   3  -3  -4 36285.0 282.514   2
  -3   3   4 36073.0 287.578   2
   3  -3  -3 24969.3 237.464   2
   3   3  -3 25271.5 244.400   1
  -3   3   3 24759.4 241.825   2
   3   3  -2 2389.59 82.7774   1
  -3   3   2 2416.07 83.1842   2
   3  -3  -2 2407.02 84.3547   2
  -3   3   1 140.333 41.3560   2
   3  -3  -1 167.345 39.5730   2
   3   3  -1 497.328 54.4086   1
  -3   3   1 146.150 35.3863   4
   3  -3   0 6582.71 129.085   2
   3  -3   0 6445.46 132.595   4
  -3   3   0 6434.61 132.042   4
   3   3   0 6254.05 127.994   1
  -3   3   0 6826.20 133.088   2
   3  -3   1 4768.27 124.456   4
  -3   3  -1 4663.06 114.634   2
   3   3   1 4272.92 109.002   1
  -3   3  -1 4435.10 121.833   4
   3  -3   1 4551.16 111.867   2
  -3   3  -2 3784.22 103.795   2
   3   3   2 3903.91 117.257   3
   3  -3   2 3478.76 118.189   4
   3   3   2 3523.52 98.6695   1
  -3   3  -2 3404.41 114.239   4
   3   3   3 730.499 64.9424   3
  -3   3  -3 433.117 38.6954   2
   3  -3   3 655.810 69.8541   4
  -3   3  -3 449.006 44.9832   4
   3   3   3 565.748 46.6176   1
  -3   3  -4 7177.41 176.475   4
  -3  -3  -4 7204.41 180.515   3
   3  -3   4 6616.56 171.928   4
  -3   3  -4 7198.62 141.306   2
   3   3   4 7112.40 174.763   3
   3   3   4 7110.11 130.526   1
   3   3   5 13655.2 260.014   3
  -3  -3  -5 13549.6 259.253   3
  -3   3  -5 13929.8 196.401   2
  -3  -3  -5 13819.8 184.871   4
   3  -3   5 13077.3 246.714   4
   3   3   5 13503.2 179.121   1
  -3   3  -5 13693.9 252.145   4
  -3   3  -6 366.507 41.5761   2
   3  -3   6 372.412 59.9549   4
  -3  -3  -6 400.869 42.6030   4
   3   3   6 373.111 37.0996   1
   3   3   6 378.796 62.5326   3
  -3  -3  -6 429.652 66.1959   3
  -3   3  -6 345.329 55.8883   4
  -3   3  -7 9634.66 161.857   2
  -3  -3  -7 9219.71 171.210   4
  -3   3  -7 9293.48 223.705   4
  -3  -3  -7 9014.53 232.800   3
   3  -3   7 8827.49 222.347   4
   3   3   7 9182.97 144.832   1
   3   3   8 1865.95 64.5452   1
  -3  -3  -8 1857.40 116.872   3
  -3   3  -8 1953.03 112.776   4
   3  -3   8 2040.92 119.025   4
  -3  -3  -8 1878.92 84.9225   4
  -3  -3  -9 6924.95 229.278   3
   3   3   9 6714.68 113.360   2
   3  -3   9 6729.07 211.077   4
  -3  -3  -9 6992.68 163.208   4
  -3   3  -9 7225.40 215.417   4
  -3   3  -9 7364.17 134.521   1
  -3  -3 -10 2009.78 94.7712   4
  -3  -3 -10 1938.89 133.738   3
  -3   3 -10 2054.16 122.254   4
   3  -3  10 2019.58 126.331   4
   3   3  10 1401.75 47.2743   2
  -3   3 -10 2045.19 70.5198   1
  -3  -3 -11 308.349 78.9607   3
  -3   3 -11 248.976 28.0364   1
  -3   3 -11 191.923 65.1811   3
   3  -3  11 172.599 60.4313   4
  -3   3 -11 282.773 66.2679   4
  -3  -3 -11 257.847 45.3435   4
  -3   3 -12 2072.93 139.761   4
   3  -3  12 1844.66 129.692   4
  -3   3 -12 2012.82 156.566   3
  -3  -3 -12 1886.82 100.328   4
  -3  -3 -12 1929.41 144.933   3
  -3   3 -13 304.492 86.7575   3
  -3  -3 -13 141.570 63.8454   3
  -3  -3 -13 191.604 50.0293   4
   3  -3  13 162.147 66.5589   4
  -3   3 -14 514.703 107.990   3
  -3  -3 -14 472.973 97.5824   3
   3  -3  14 456.727 89.2787   4
  -3   3 -15 220.353 84.0289   3
  -3  -3 -15 172.939 77.0991   3
   3  -3  15 244.047 72.1066   4
  -3   3 -16 1196.05 154.995   3
  -3  -3 -16 1387.06 155.393   3
   3  -3  16 1465.26 137.758   4
  -3   3 -17 258.930 105.234   3
  -3  -3 -17 66.0668 82.1478   3
  -3  -5  19 749.251 116.999   4
   3  -5 -19 686.820 110.666   3
   3  -5 -18 190.398 73.6945   3
  -3  -5  18 28.0513 70.6379   4
   3  -5 -17 278.121 80.3946   3
  -3  -5  17 301.415 85.8013   4
   3  -5 -16 114.451 65.4180   3
  -3  -5  16 57.3611 66.6672   4
   3  -5 -15 1582.48 124.728   3
  -3  -5  15 1548.33 131.240   4
   3   5 -15 1170.77 49.8872   1
   3   5 -15 1093.27 53.0693   2
  -3   5  15 1091.17 52.5274   4
  -3  -5  14 124.927 72.8645   4
  -3   5  14 33.2178 19.0679   4
   3  -5 -14 81.0891 54.3646   3
   3   5 -14 2.92920 23.0428   1
  -3   5  13 448.019 34.0729   4
   3   5 -13 593.047 47.4187   1
   3  -5 -13 588.252 76.3127   3
  -3  -5  13 582.234 88.2175   4
  -3   5  13 322.339 22.9050   1
  -3   5  12 979.493 46.3832   1
   3   5 -12 1168.70 65.5312   1
  -3  -5  12 1193.19 105.731   4
   3  -5 -12 1161.38 92.0244   3
  -3   5  12 929.518 41.6525   4
  -3  -5  11 1873.10 125.176   4
   3  -5 -11 1737.81 103.200   3
  -3   5  11 1615.17 66.8099   2
   3   5 -11 1760.66 81.0553   1
  -3   5  11 1406.55 47.9840   4
   3  -5 -10 14772.8 263.454   3
  -3  -5  10 14124.9 301.061   4
  -3   5  10 12158.2 125.008   4
   3   5 -10 14342.5 219.886   1
  -3   5  10 14415.5 199.668   2
   3  -5  -9 189.635 39.8614   3
  -3  -5   9 183.462 58.0134   4
  -3   5   9 189.553 36.1954   2
  -3   5   9 131.487 17.3350   4
   3  -5  -8 4860.70 132.438   3
  -3   5   8 4620.20 120.456   2
  -3   5   8 3844.98 67.0401   4
  -3  -5   8 4833.61 166.018   4
  -3  -5   7 798.887 76.2000   4
  -3   5   7 829.949 57.3897   2
  -3  -5   6 1969.86 104.627   4
  -3   5   6 1865.91 70.8745   3
  -3   5   6 1893.02 80.6258   2
  -3   5   5 970.715 42.6967   4
  -3   5   5 910.608 45.9905   3
  -3   5   5 1007.14 65.5484   2
  -3  -5   5 969.291 76.2123   4
  -3   5   4 4630.71 92.2579   4
  -3   5   4 4622.70 82.9730   3
  -3   5   4 4699.90 125.850   2
  -3   5   3 640.227 45.0210   4
  -3   5   3 778.641 63.0612   2
   3  -5  -2 5022.70 116.630   4
  -3   5   2 5020.66 135.238   2
  -3   5   2 4892.11 113.051   4
   3  -5  -1 2096.00 87.7767   4
  -3   5   1 1922.38 88.9366   2
  -3   5   1 1855.05 81.1404   4
   3  -5   0 1672.82 85.3899   4
  -3   5   0 1632.52 84.8148   2
  -3   5   0 1602.75 81.3683   4
  -3   5  -1 1626.96 87.3546   4
  -3   5  -1 1697.48 85.4435   2
   3  -5   1 1603.96 92.3034   4
   3  -5   2 2609.98 112.476   4
  -3   5  -2 2650.37 113.184   4
  -3   5  -2 2815.13 102.478   2
   3  -5   3 586.196 67.4987   4
  -3   5  -3 711.744 62.1569   2
  -3   5  -3 723.889 71.3969   4
   3   5   3 689.163 63.3726   3
   3   5   4 5737.43 166.094   3
   3   5   4 5778.54 136.878   1
   3  -5   4 5424.84 169.723   4
  -3   5  -4 5627.55 140.288   2
  -3   5  -4 6106.85 178.250   4
  -3   5  -5 200.711 39.0934   2
   3   5   5 264.677 41.1337   1
  -3   5  -5 180.924 41.2281   4
   3  -5   5 132.593 45.2900   4
   3   5   5 211.544 50.6025   3
  -3   5  -6 85.9675 31.9865   2
   3  -5   6 95.1946 53.0922   4
   3   5   6 34.3138 40.8417   3
  -3   5  -6 2.19104 37.6286   4
  -3  -5  -6 33.8903 24.1886   4
   3   5   6 59.3358 29.9759   1
  -3   5  -7 4019.44 123.741   2
   3   5   7 4159.41 113.209   1
  -3  -5  -7 4161.71 104.043   4
   3  -5   7 3916.92 164.974   4
  -3   5  -7 4218.98 165.010   4
   3   5   7 3979.60 164.268   3
  -3  -5  -8 10878.3 172.463   4
  -3   5  -8 11235.9 277.508   4
   3  -5   8 10296.7 267.810   4
  -3   5  -8 10658.7 200.521   2
   3   5   8 10970.9 283.430   3
   3   5   8 10869.0 181.470   1
  -3  -5  -8 10209.1 277.888   3
   3  -5   9 459.810 75.0491   4
  -3  -5  -9 427.183 73.5978   3
  -3  -5  -9 450.963 42.0711   4
  -3   5  -9 430.286 69.9955   4
  -3   5  -9 436.449 52.8947   2
   3   5   9 445.352 41.9984   1
   3   5  10 741.878 47.5621   1
  -3  -5 -10 779.407 52.6844   4
   3  -5  10 800.234 92.8365   4
  -3   5 -10 781.927 88.6132   4
  -3  -5 -10 698.929 92.9360   3
  -3   5 -10 764.891 58.8835   2
   3  -5  11 2382.30 148.467   4
  -3  -5 -11 2261.28 153.606   3
  -3  -5 -11 2467.86 92.3596   4
   3  -5  12 604.196 90.1087   4
  -3  -5 -12 635.782 96.9123   3
  -3  -5 -12 582.406 52.4241   4
  -3   5 -12 658.168 50.1641   1
   3  -5  13 2067.75 153.900   4
  -3  -5 -13 2141.08 93.5997   4
  -3  -5 -13 2325.76 171.259   3
  -3   5 -14 3418.52 222.235   3
  -3  -5 -14 3217.44 207.710   3
   3  -5  14 3165.93 189.010   4
  -3   5 -15 65.2805 73.3826   3
  -3  -5 -15 59.8037 75.2282   3
   3  -5  15 131.496 82.5760   4
  -3  -5 -16 2343.25 193.746   3
  -3   5 -16 2178.88 202.243   3
   3  -5  16 2361.99 178.877   4
   3  -5  17-10.9943 75.1151   4
  -3  -5 -17 53.8403 80.1981   3
  -3  -7  19 2900.96 214.631   4
   3  -7 -18 321.562 86.1409   3
  -3  -7  18 222.003 94.9995   4
   3  -7 -17 1857.81 146.456   3
  -3  -7  17 1701.60 164.310   4
  -3  -7  16 2784.07 188.144   4
   3  -7 -16 2949.23 174.144   3
   3   7 -15 514.437 52.8718   1
  -3  -7  15 388.052 90.1012   4
   3  -7 -15 440.710 78.3681   3
   3   7 -14 913.211 69.1996   1
  -3  -7  14 750.722 102.399   4
   3  -7 -14 869.076 94.2529   3
  -3   7  14 542.421 39.6634   1
  -3  -7  13 1857.39 140.016   4
   3   7 -13 1754.20 92.9132   1
  -3   7  13 1540.78 72.0929   2
  -3   7  12 363.185 46.1484   2
  -3  -7  12 292.296 71.6589   4
   3   7 -12 413.433 55.3602   1
  -3   7  11 3399.00 116.383   2
  -3  -7  11 3667.88 173.771   4
  -3   7  10 3446.03 120.178   2
  -3  -7  10 3693.05 169.852   4
  -3   7   9 187.596 40.0779   2
  -3  -7   9 206.793 65.3435   4
  -3   7   8 91.5098 35.9185   3
  -3  -7   8 5.29516 51.5746   4
  -3   7   8 78.7526 33.9204   2
  -3   7   7 4483.52 124.394   3
  -3  -7   7 4578.27 171.564   4
  -3   7   7 4670.61 139.106   2
  -3   7   6 19046.3 167.304   4
  -3  -7   6 19442.6 326.618   4
  -3   7   6 19471.4 230.989   3
  -3   7   5 1175.13 58.7533   3
  -3   7   5 1234.83 52.9260   4
  -3  -7   5 1206.72 89.4041   4
  -3   7   4 47712.5 333.940   4
  -3  -7   4 46352.7 469.371   4
   3  -7  -3 21892.0 242.562   4
  -3   7   3 21849.5 246.394   4
  -3  -7   3 21224.5 302.799   4
   3  -7  -2 4341.16 120.405   4
  -3   7   2 4261.47 122.789   4
  -3   7   1 2018.25 93.4102   4
   3  -7  -1 2037.91 92.4032   4
  -3   7   0 607.324 62.8774   4
   3  -7   0 588.606 62.4976   4
   3  -7   1 8070.06 194.540   4
  -3   7  -1 8377.60 199.620   4
  -3   7  -2 894.955 76.0662   4
   3  -7   2 870.582 80.3392   4
  -3   7  -3 6279.27 186.751   4
   3  -7   3 6073.52 187.409   4
   3  -7   4 4574.29 168.753   4
   3   7   4 4769.17 160.078   3
  -3   7  -4 4903.12 172.654   4
   3   7   5 7292.74 206.235   3
  -3   7  -5 7265.14 183.738   2
  -3   7  -5 7392.67 216.874   4
   3  -7   5 7239.49 218.018   4
   3   7   6 135.222 36.5222   1
  -3   7  -6 81.9950 30.9968   2
  -3   7  -6 117.798 50.0756   4
   3   7   6 121.467 47.3870   3
   3  -7   6 217.893 61.5010   4
  -3  -7  -7 17602.0 187.274   4
   3   7   7 18262.3 351.257   3
   3   7   7 17689.7 271.444   1
   3  -7   7 18060.2 362.800   4
  -3   7  -7 18591.4 367.456   4
  -3   7  -7 18158.0 296.484   2
  -3   7  -8 9600.47 217.451   2
   3   7   8 10136.5 278.841   3
   3  -7   8 9542.08 275.158   4
   3   7   8 9715.98 199.543   1
  -3   7  -8 9809.36 275.590   4
  -3  -7  -8 8861.65 137.178   4
  -3   7  -9 501.122 57.9026   2
   3  -7   9 481.171 85.3835   4
  -3  -7  -9 503.063 34.6802   4
   3   7   9 511.199 80.0604   3
   3   7   9 509.788 54.3457   1
   3  -7  10 3170.90 176.018   4
  -3  -7 -10 2882.73 74.1551   4
   3   7  10 3262.04 112.961   1
  -3   7 -10 3111.13 129.060   2
   3  -7  11 446.594 93.9961   4
  -3   7 -11 381.480 54.5946   2
  -3  -7 -11 336.844 28.8033   4
   3   7  11 410.045 47.0397   1
   3   7  12 53.4547 23.5294   1
  -3   7 -12 90.3588 45.2470   2
   3  -7  12 113.064 75.4352   4
   3  -7  13 2498.05 174.222   4
   3  -7  14 597.281 109.575   4
   3  -7  15 124.265 84.2319   4
   3  -7  16 1072.59 135.883   4
  -3   7 -16 890.234 140.818   3
  -3  -9  18 208.537 85.3307   4
  -3  -9  17-14.7395 82.1000   4
  -3  -9  16 158.880 84.5652   4
  -3  -9  15 2276.53 184.339   4
   3   9 -15 2055.70 112.003   1
  -3   9  14 50.1824 35.0486   2
   3   9 -14-43.6767 44.1959   1
  -3  -9  13 3950.84 208.392   4
  -3   9  13 3602.37 134.016   2
  -3  -9  12 791.059 103.504   4
  -3   9  12 674.995 63.7989   2
  -3   9  11 7416.99 194.136   2
  -3  -9  11 7853.30 267.199   4
  -3   9  10 876.961 74.8263   2
  -3  -9  10 998.229 108.427   4
  -3  -9   9 1953.02 133.066   4
  -3   9   9 2085.90 106.835   2
  -3   9   9 2017.85 105.410   3
  -3  -9   8 261.655 67.2742   4
  -3   9   8 290.819 49.3256   3
  -3   9   7 2072.88 57.1939   4
  -3   9   7 2622.10 104.594   3
  -3  -9   7 2707.03 145.554   4
  -3  -9   6 4683.93 182.841   4
  -3   9   6 4420.30 98.2532   4
  -3   9   6 4547.63 127.943   3
  -3  -9   5 9867.54 248.862   4
  -3   9   5 9661.29 161.761   4
  -3  -9   4 8497.59 219.602   4
   3  -9  -4 8836.91 165.206   4
  -3   9   4 8188.70 162.101   4
  -3   9   3 646.516 56.6204   4
   3  -9  -3 643.889 57.4228   4
  -3  -9   3 752.682 78.6670   4
   3  -9  -2 12376.3 224.082   4
  -3   9   2 12133.3 221.761   4
  -3  -9   2 12280.7 245.219   4
  -3   9   1 8374.46 195.947   4
  -3  -9   1 8466.95 195.624   4
   3  -9  -1 8063.66 192.803   4
  -3  -9   0 523.311 57.2337   4
   3  -9   0 488.440 62.9793   4
  -3   9   0 497.273 62.7015   4
   3  -9   1 12654.0 264.028   4
  -3   9  -1 12680.6 262.159   4
  -3   9  -2 190.646 52.5073   4
   3  -9   2 162.722 54.7384   4
  -3   9  -3 870.452 84.8022   4
   3  -9   3 833.101 86.9305   4
   3  -9   4 766.662 85.8260   4
  -3   9  -4 765.398 84.3313   4
   3   9   5 5002.73 183.709   3
  -3   9  -5 5170.25 197.403   4
   3  -9   5 4927.05 197.382   4
  -3   9  -6 1212.26 107.567   4
   3   9   6 1283.06 100.581   3
   3  -9   6 1236.83 113.125   4
  -3   9  -6 1341.62 95.4948   2
   3   9   7 1644.56 115.132   3
  -3   9  -7 1737.30 131.296   4
   3  -9   7 1710.17 128.961   4
  -3   9  -7 1575.82 100.587   2
  -3  -9  -7 1242.57 47.5012   4
  -3   9  -8 4499.29 167.320   2
   3   9   8 4517.41 157.977   1
   3  -9   8 4524.83 207.884   4
   3   9   8 4524.14 194.803   3
   3  -9   9 181.000 69.9544   4
  -3   9  -9 147.985 46.9983   2
   3   9   9 156.819 43.8238   1
  -3   9 -10 692.490 78.9656   2
   3   9  10 842.765 77.9280   1
   3  -9  10 671.900 102.979   4
  -3   9 -11 7606.82 223.437   2
   3  -9  11 7565.12 288.389   4
   3   9  11 7994.31 197.504   1
   3  -9  12 1084.22 129.198   4
  -3   9 -12 966.990 88.3986   2
   3   9  12 976.714 72.9479   1
   3  -9  13 5017.78 252.144   4
   3  -9  14 44.8983 74.2501   4
   3  -9  15-64.6362 82.5135   4
  -3 -11  17 18.5582 95.3627   4
  -3 -11  16 612.461 127.608   4
   3  11 -15 73.2880 53.0625   1
  -3 -11  15 1.05231 76.3120   4
  -3 -11  14 98.4353 82.5255   4
  -3 -11  13 1047.57 129.480   4
  -3  11  13 957.688 86.2913   2
  -3  11  12 316.910 58.2672   2
  -3 -11  12 472.625 97.0754   4
  -3 -11  11 1274.22 130.415   4
  -3  11  11 1123.32 93.8534   2
  -3  11  10-12.2757 40.7031   2
  -3  11  10 31.2518 41.2891   3
  -3 -11  10-24.1009 64.0764   4
  -3 -11   9 3681.82 189.716   4
  -3  11   9 3579.97 144.698   3
  -3  11   8 1244.83 85.7874   3
  -3 -11   8 1352.08 120.106   4
  -3  11   7 1224.18 81.8721   3
  -3 -11   7 1125.35 110.943   4
  -3 -11   6 181.879 64.7249   4
  -3  11   6 200.234 31.5642   4
  -3 -11   5 36.2627 51.0924   4
  -3  11   5 75.1189 29.7038   4
  -3 -11   4 496.825 76.9212   4
  -3  11   4 481.844 52.1114   4
   3 -11  -4 441.602 52.8603   4
   3 -11  -3 459.691 57.4919   4
  -3  11   3 527.184 58.1765   4
  -3 -11   3 484.296 69.1710   4
   3 -11  -2 4998.84 160.684   4
  -3 -11   2 4912.29 172.994   4
  -3  11   2 4749.40 158.391   4
   3 -11  -1 3984.74 150.425   4
  -3 -11   1 3905.39 148.920   4
  -3  11   1 3772.71 147.380   4
  -3 -11   0 308.582 52.2820   4
   3 -11   0 320.204 59.4069   4
  -3  11   0 244.574 52.5496   4
  -3 -11  -1 734.632 64.9786   4
   3 -11   1 723.836 83.8046   4
  -3  11  -1 767.616 79.9486   4
  -3  11  -2 872.423 89.6559   4
   3 -11   2 763.796 89.8884   4
  -3 -11  -2 777.246 62.8788   4
  -3  11  -3 636.415 80.6582   4
  -3 -11  -3 645.982 58.4690   4
   3 -11   3 693.458 89.8631   4
   3 -11   4 1288.74 113.163   4
  -3  11  -4 1372.89 114.622   4
  -3 -11  -4 1317.99 70.9052   4
  -3 -11  -5 3945.24 105.931   4
   3 -11   5 3886.41 187.417   4
  -3  11  -5 4021.09 187.308   4
   3  11   6 206.762 58.2923   3
   3 -11   6 251.893 75.0996   4
  -3 -11  -6 263.982 33.4117   4
  -3 -11  -7 303.569 26.4244   4
   3 -11   7 485.350 90.3622   4
  -3  11  -8 461.200 65.7603   2
   3 -11   8 526.773 101.338   4
   3  11   9 239.728 57.2024   1
   3 -11   9 550.693 114.403   4
  -3  11  -9 198.779 53.2584   2
   3 -11  10 868.084 115.779   4
  -3  11 -10 779.634 86.5964   2
   3  11  10 804.150 83.7516   1
   3 -11  11 1926.84 167.655   4
   3  11  11 2015.70 119.082   1
  -3  11 -11 1880.59 129.220   2
   3 -11  12 163.482 86.3872   4
   3  11  12 168.398 49.5863   1
   3 -11  13 1291.97 146.350   4
   3 -11  14 71.8020 80.2410   4
   3 -11  15 637.526 119.168   4
  -3 -13  16 2089.46 201.158   4
  -3 -13  15 418.515 113.911   4
  -3 -13  14 397.273 102.346   4
  -3 -13  13 2004.06 173.811   4
  -3  13  12 1492.26 120.770   2
  -3 -13  12 1484.29 147.284   4
  -3  13  11 93.4571 54.8246   2
  -3 -13  11 38.6529 71.6965   4
  -3  13  11 2.42829 46.0166   3
  -3 -13  10 2336.23 172.034   4
  -3  13  10 2271.71 131.004   3
  -3  13  10 2313.45 142.656   2
  -3  13   9 481.957 67.7221   3
  -3 -13   9 474.064 92.6351   4
  -3  13   8 1233.98 94.1901   3
  -3 -13   8 1197.92 123.958   4
  -3  13   7 2249.65 117.228   3
  -3 -13   7 2187.34 154.067   4
  -3 -13   6 4320.82 199.083   4
  -3  13   5 4801.44 144.868   4
   3 -13  -5 4965.45 147.630   4
  -3 -13   5 4777.70 207.206   4
  -3  13   4 10320.9 222.269   4
  -3 -13   4 10347.0 283.746   4
   3 -13  -4 10772.3 228.651   4
  -3 -13   3 140.062 60.3616   4
   3 -13  -3 50.7523 41.8735   4
  -3  13   3 101.314 41.8389   4
   3 -13  -2 7766.41 215.304   4
  -3 -13   2 7402.09 229.303   4
  -3  13   2 7538.99 210.954   4
   3 -13  -1 336.391 63.7129   4
  -3 -13   1 332.496 64.8562   4
  -3  13   1 335.908 59.7024   4
  -3  13   0 306.009 62.6908   4
   3 -13   0 280.578 62.0561   4
  -3 -13   0 375.435 65.9563   4
  -3 -13  -1 2013.36 112.463   4
  -3  13  -1 1978.33 130.002   4
   3 -13   1 2157.97 135.696   4
   3 -13   2 4512.52 196.695   4
  -3  13  -2 4484.60 192.314   4
  -3 -13  -2 4565.03 155.464   4
  -3 -13  -3 371.056 55.8335   4
   3 -13   3 321.762 75.6612   4
   3 -13   4 5846.10 236.061   4
  -3 -13  -4 5766.41 154.370   4
   3 -13   5 4060.78 203.818   4
  -3 -13  -5 3937.71 119.140   4
  -3 -13  -6 1551.46 68.9813   4
   3 -13   6 1693.63 142.534   4
   3 -13   7 691.869 107.851   4
  -3 -13  -7 447.804 31.9110   4
   3 -13   8 1795.08 154.224   4
   3 -13   9 1223.60 138.697   4
   3 -13  10 3716.87 221.774   4
   3  13  10 3599.60 172.872   1
   3 -13  11 56.4475 82.7723   4
   3  13  11 196.560 65.8487   1
   3  13  12 50.0259 49.8286   1
   3 -13  12 34.7427 85.4396   4
   3 -13  13 573.485 120.452   4
  -3 -15  15 429.583 131.491   4
  -3 -15  14 439.929 122.825   4
  -3 -15  13 3022.97 218.072   4
  -3 -15  12 1359.11 153.390   4
  -3 -15  11 1165.28 140.956   4
  -3  15  10 3694.21 174.033   3
  -3 -15  10 4028.90 235.622   4
  -3 -15   9 237.102 80.9461   4
  -3  15   9 141.867 55.7005   3
  -3  15   8 1603.01 110.835   3
  -3 -15   8 1696.02 146.398   4
  -3 -15   7 3618.57 202.760   4
  -3 -15   6 75.8463 68.8130   4
   3 -15  -5 2869.73 126.558   4
  -3 -15   5 2743.10 169.087   4
  -3  15   4 732.698 73.7896   4
   3 -15  -4 757.412 75.6671   4
  -3 -15   4 879.783 106.107   4
  -3  15   3 306.556 57.7319   4
   3 -15  -3 335.897 61.9023   4
  -3 -15   3 407.914 79.7175   4
  -3 -15   2 1790.16 130.408   4
  -3  15   2 1877.77 120.856   4
   3 -15  -2 1910.64 121.459   4
   3 -15  -1 600.313 79.4540   4
  -3 -15   1 632.901 86.4825   4
  -3  15   1 607.447 80.4584   4
  -3 -15   0 1623.84 117.198   4
   3 -15   0 1756.22 127.212   4
  -3  15   0 1631.04 119.551   4
   3 -15   1 335.206 71.7461   4
  -3 -15  -1 383.445 64.0165   4
   3 -15   2 6796.47 253.814   4
  -3 -15  -2 6660.89 203.796   4
   3 -15   3 47.5491 64.7918   4
  -3 -15  -3 23.0470 42.2103   4
  -3 -15  -4 1617.53 94.8209   4
   3 -15   4 1693.40 145.105   4
  -3 -15  -5 3385.03 117.733   4
   3 -15   5 4948.83 238.259   4
   3 -15   6 2285.10 173.586   4
  -3 -15  -6 2228.22 91.2570   4
   3 -15   7 3128.34 205.078   4
  -3 -15  -7 2551.31 77.1563   4
   3 -15   8 183.094 83.4814   4
   3 -15   9-26.4142 82.9822   4
   3 -15  10 748.900 117.007   4
   3  15  11 806.714 104.710   1
   3 -15  11 815.984 143.527   4
   3 -15  12 370.479 107.079   4
  -3 -17  13 393.953 109.235   4
  -3 -17  12-147.302 99.5172   4
  -3 -17  11 144.659 93.1245   4
  -3 -17  10 1802.17 172.632   4
  -3 -17   9 278.892 93.9583   4
  -3 -17   8 1084.80 135.936   4
  -3  17   8 517.505 81.1665   3
  -3 -17   7 1249.27 135.267   4
  -3 -17   6 150.912 80.4362   4
  -3 -17   5 18.6373 63.7703   4
   3 -17  -5 77.1892 50.0927   4
   3 -17  -4 211.038 64.7118   4
  -3 -17   4 12.9940 64.1910   4
   3 -17  -3 1370.44 109.825   4
  -3 -17   3 1243.31 125.036   4
   3 -17  -2 96.7246 63.2023   4
  -3  17   2 103.038 59.9177   4
  -3 -17   2 178.923 71.4966   4
  -3 -17   1 482.371 85.8660   4
   3 -17  -1 617.741 90.5717   4
   3 -17   0 13.6550 60.6404   4
  -3 -17   0-14.6142 56.0655   4
   3 -17   1 52.8165 64.3381   4
  -3 -17  -1 86.2614 59.5845   4
   3 -17   2 2785.76 177.085   4
  -3 -17  -2 2911.20 148.936   4
  -3 -17  -3 29.1614 46.6330   4
   3 -17   3 144.332 73.9232   4
   3 -17   4 831.168 117.202   4
  -3 -17  -4 761.531 80.5553   4
  -3 -17  -5 494.713 62.5919   4
   3 -17   5 512.831 106.219   4
   3 -17   6 1999.55 172.896   4
   3 -17   7 100.092 78.0317   4
   3 -17   8 149.695 93.4779   4
   3 -17   9 18.7749 79.1983   4
   3 -17  10 65.7054 88.6479   4
  -3 -19  10 510.891 121.970   4
  -3 -19   9 1094.54 146.699   4
  -3 -19   8 52.3677 89.6698   4
  -3 -19   7 954.841 141.725   4
  -3 -19   6-47.7974 80.7958   4
   3 -19  -5 2478.02 139.485   4
  -3 -19   5 2440.26 187.929   4
  -3 -19   4 61.3400 73.6415   4
   3 -19  -4 99.0978 60.6978   4
   3 -19  -3 757.460 93.7015   4
  -3 -19   3 884.318 119.943   4
  -3 -19   2 1463.67 137.656   4
   3 -19  -2 1482.99 125.428   4
   3 -19  -1 1838.09 147.223   4
  -3 -19   1 1611.35 133.048   4
   3 -19   0-61.5213 70.5355   4
  -3 -19   0 4.23833 59.3901   4
  -3 -19  -1 1221.38 117.992   4
   3 -19   1 983.115 127.889   4
   3 -19   2 38.3028 70.7382   4
  -3 -19  -2 136.084 64.6524   4
  -3 -19  -3 95.8576 58.1191   4
   3 -19   3 53.4790 80.2378   4
   3 -19   4 115.972 79.8279   4
  -3 -19  -4 92.4879 55.9290   4
   3 -19   5 675.641 131.775   4
   3 -19   6 181.175 94.3784   4
   3 -19   7 2349.22 205.473   4
   3 -19   8-51.4600 93.7990   4
  -3 -21   7-20.1678 89.3985   4
  -3 -21   6 151.193 86.6984   4
  -3 -21   5 267.214 87.3274   4
   3 -21  -4 976.904 107.190   4
  -3 -21   4 937.090 131.130   4
  -3 -21   3 60.9882 78.3393   4
   3 -21  -3 210.445 75.5647   4
   3 -21  -2 626.510 99.7460   4
  -3 -21   2 575.445 108.094   4
  -3 -21   1 410.344 98.0407   4
   3 -21  -1 222.738 82.4132   4
   3 -21   0 78.4683 84.6288   4
  -3 -21   0 97.6845 71.7007   4
  -3 -21  -1 506.267 94.9466   4
   3 -21   1 223.536 93.5212   4
   3 -21   2 1559.64 186.749   4
  -3 -21  -2 2221.15 153.049   4
   3 -21   3 50.0526 79.7984   4
   3 -21   4 956.306 162.831   4
   3 -21   5 116.922 101.964   4
   4   0 -20 1552.82 166.471   3
   4   0 -19 172.457 86.5211   3
   4   0 -18-61.2630 67.6154   3
  -4   0  18-23.9267 50.9910   4
   4   0 -17 70.1307 74.3603   3
  -4   0  17 2.01108 52.3275   4
  -4   0  16 47.0943 48.1943   4
  -4   0  15 2.29825 45.7779   4
  -4   0  14 797.672 79.8570   4
  -4   0  13-26.2408 38.7297   4
  -4   0  12 1909.30 103.186   4
   4   0 -12 1504.74 44.4365   2
  -4   0  11 33.3096 35.0986   4
   4   0 -11 31.8105 18.4447   2
   4   0 -10 2211.88 68.8022   2
  -4   0  10 2154.79 102.693   4
  -4   0   9 60.1992 38.8503   4
  -4   0   9 27.6580 21.7251   1
   4   0  -9 47.3149 25.4569   2
  -4   0   8 20857.0 209.220   1
  -4   0   7 109.446 35.7368   1
   4   0  -6 8261.54 133.723   1
  -4   0   6 8281.30 134.520   1
  -4   0   5 44.8570 30.2207   1
   4   0  -5 16.7742 28.8670   1
   4   0  -4 226.445 36.4389   1
  -4   0   4 229.450 36.8511   1
  -4   0   3 23.1839 31.2684   1
   4   0  -3 49.5126 33.3439   1
  -4   0   2 10504.9 155.938   1
   4   0  -2 10193.2 152.142   1
   4   0  -1 33.3645 31.7069   1
  -4   0   1 54.8849 33.9982   1
   4   0   0 6770.64 124.189   1
   4   0   0 7048.99 124.541   3
  -4   0   0 6458.89 122.138   3
  -4   0   0 6962.61 127.381   1
   4   0   1 52.9434 35.1205   3
  -4   0  -1 20.3237 32.8635   3
  -4   0  -1 56.3349 33.7677   1
   4   0   1 66.2216 32.0192   1
  -4   0  -2 3254.58 91.9179   1
  -4   0  -2 2810.68 101.879   3
   4   0   2 2951.06 102.849   3
  -4   0  -3-45.0822 33.0284   1
  -4   0  -3 6.81821 41.7621   3
  -4   0  -3 35.5987 36.7759   4
   4   0   3 69.1827 33.7391   2
  -4   0  -4 76766.2 579.827   3
   4   0   4 77497.0 437.284   2
  -4   0  -4 77172.6 431.019   1
  -4   0  -4 77265.1 525.414   4
  -4   0  -5-6.20970 35.1850   4
  -4   0  -5 22.1275 42.8596   3
   4   0   5 17.3962 25.5299   2
  -4   0  -5 22.9495 22.6898   1
  -4   0  -6 1417.66 61.2463   1
   4   0   6 1354.34 62.0056   2
  -4   0  -6 1363.50 84.8555   4
  -4   0  -6 1301.72 94.8536   3
  -4   0  -7-41.5106 52.5465   3
   4   0   7-4.52200 23.6756   2
  -4   0  -7 19.3272 24.1076   1
  -4   0  -7 18.7649 38.2846   4
   4   0   8 1706.10 63.1183   2
  -4   0  -8 1639.29 62.4805   1
  -4   0  -8 1598.18 95.7756   4
  -4   0  -8 1505.35 112.159   3
  -4   0  -9-0.47572 16.3280   1
  -4   0  -9-11.4142 41.9182   4
  -4   0  -9 25.1947 51.0618   3
  -4   0 -10 1522.40 126.769   3
  -4   0 -10 1669.71 106.391   4
  -4   0 -11 22.3568 56.9635   3
  -4   0 -11 18.2213 46.7720   4
  -4   0 -12 1727.78 146.000   3
  -4   0 -12 1672.09 116.061   4
  -4   0 -13-3.35359 65.9120   3
  -4   0 -13-24.0822 50.9967   4
  -4   0 -14 4384.23 248.080   3
  -4   0 -15-22.6005 75.2114   3
  -4   0 -16 1160.45 224.786   3
   4   2 -20 17.9321 73.3791   3
   4  -2 -20 112.630 83.2319   3
   4   2 -19 174.454 92.5925   3
   4  -2 -19 139.178 73.1143   3
  -4  -2  19 115.597 68.5449   4
  -4  -2  18 177.107 73.4016   4
   4  -2 -18 327.947 84.2561   3
   4  -2 -17 2090.41 157.817   3
  -4   2  17 2006.39 112.904   4
  -4  -2  17 2121.62 145.472   4
  -4  -2  16 206.061 68.1027   4
   4  -2 -16 220.700 68.0862   3
  -4   2  16 175.951 49.0529   4
   4  -2 -15 2383.52 149.291   3
  -4   2  15 2380.40 116.622   4
  -4  -2  15 2880.74 160.167   4
  -4   2  14 21.5525 39.7706   4
   4  -2 -14 10.7349 46.0868   3
  -4  -2  14 100.958 51.9841   4
  -4   2  13 620.298 61.1441   4
   4   2 -13 472.763 32.0502   2
   4  -2 -13 611.611 78.7373   3
  -4  -2  13 616.546 78.6015   4
  -4  -2  12 22.0307 44.4172   4
   4  -2 -12 14.8890 38.0795   3
  -4   2  12 38.0688 32.5362   4
  -4   2  11 2624.40 67.7775   1
   4   2 -11 3079.43 83.5337   1
  -4  -2  11 2747.59 125.544   4
  -4   2  11 2828.08 105.027   4
  -4   2  10 143.637 25.0007   1
   4   2 -10 154.141 28.3549   1
  -4  -2  10 131.286 47.9600   4
  -4   2  10 113.005 34.9075   4
   4   2  -9 1843.90 71.1395   1
  -4   2   9 1925.12 67.0093   1
   4  -2  -9 1956.07 67.5498   2
  -4  -2   9 2381.34 117.986   4
   4   2  -8 1139.98 59.2354   1
   4  -2  -8 1066.96 54.1903   2
  -4   2   8 1154.73 54.1691   1
  -4   2   7 3460.40 90.7729   1
   4   2  -7 3329.74 94.5920   1
   4  -2  -7 3377.33 91.0811   2
  -4   2   6 2578.09 81.1645   1
   4  -2  -6 2568.81 81.7592   2
   4   2  -6 2672.76 86.4249   1
   4   2  -5 246.776 38.3449   1
   4  -2  -5 303.528 42.3689   2
  -4  -2   5 245.771 42.2988   1
  -4   2   4 457.363 47.2171   2
   4  -2  -4 608.700 50.9653   2
  -4  -2   4 555.497 51.1558   1
   4   2  -4 508.265 49.0859   1
  -4   2   3 194541. 701.978   2
  -4  -2   3 196699. 704.400   1
   4   2  -3 192497. 688.413   1
   4  -2  -3 193117. 694.331   2
  -4   2   2 3648.09 103.462   2
  -4  -2   2 3765.00 102.388   1
   4   2  -2 3771.48 101.990   1
   4  -2  -2 3705.10 103.221   2
  -4   2   1 187.519 44.2716   2
  -4   2   1 230.380 28.8799   3
   4  -2  -1 178.006 42.2867   2
   4   2  -1 215.643 43.9805   1
  -4  -2   1 295.012 44.0050   1
  -4   2   0 1748.12 69.4872   3
  -4  -2   0 1866.08 76.0725   1
  -4   2   0 1641.69 81.7620   2
   4  -2   0 1935.29 78.6022   2
   4   2   0 1884.04 75.8045   1
   4   2   1 1730.07 81.6862   3
  -4  -2  -1 1768.81 74.9890   1
  -4   2  -1 1791.58 79.5407   3
  -4   2  -1 1911.77 84.0366   4
  -4   2  -1 1855.93 82.4721   2
   4   2   1 1744.25 73.1072   1
   4  -2   1 1751.14 76.9260   2
  -4   2  -2 269.641 38.7812   2
   4   2   2 337.018 42.3651   1
  -4  -2  -2 368.326 45.0428   1
   4   2   2 377.154 50.8340   3
  -4   2  -2 134.683 33.3101   3
  -4   2  -2 196.284 33.1133   4
   4  -2   2 330.157 43.8496   2
  -4   2  -3 26766.1 320.271   4
   4   2   3 27116.3 328.456   3
  -4  -2  -3 27214.2 332.689   3
  -4  -2  -3 25884.1 259.339   1
  -4   2  -3 26221.7 273.033   2
   4  -2   3 26040.5 271.758   2
   4   2   3 26394.7 261.030   1
  -4   2  -3 25852.4 320.773   3
   4   2   4 459.503 59.3950   3
   4  -2   4 382.046 42.2749   2
  -4   2  -4 442.134 64.8260   3
   4  -2   4 471.329 61.5972   4
  -4  -2  -4 495.658 51.2832   4
  -4  -2  -4 394.690 41.6140   1
   4   2   4 432.205 43.4077   1
  -4   2  -4 456.512 59.1994   4
  -4  -2  -4 492.515 61.8149   3
   4   2   5 8487.69 214.667   3
  -4   2  -5 8107.18 198.275   4
  -4  -2  -5 8259.13 212.243   3
  -4  -2  -5 7874.06 143.325   1
  -4   2  -5 8192.19 210.910   3
   4  -2   5 8122.52 195.065   4
  -4  -2  -5 8152.60 167.915   4
   4   2   5 7965.69 143.584   1
   4  -2   5 7951.14 151.481   2
  -4   2  -6 3050.63 140.199   3
  -4  -2  -6 3020.08 140.475   3
   4  -2   6 3163.82 129.940   4
  -4  -2  -6 3042.92 111.208   4
  -4   2  -6 3215.74 133.062   4
  -4   2  -6 3150.14 94.6224   1
   4   2   6 3082.81 90.3050   1
  -4   2  -7 1024.86 56.8974   1
  -4  -2  -7 960.221 91.1954   3
  -4   2  -7 1026.43 83.3607   4
  -4   2  -7 957.632 94.1522   3
   4  -2   7 951.270 83.3528   4
  -4  -2  -7 993.639 70.9817   4
   4   2   8 2125.33 73.1801   2
  -4  -2  -8 2009.86 128.812   3
  -4   2  -8 2215.99 79.0023   1
   4  -2   8 1953.34 114.364   4
  -4  -2  -8 2024.08 101.341   4
  -4   2  -8 2061.23 116.883   4
  -4   2  -8 1860.66 127.285   3
  -4   2  -9 9424.40 246.762   4
  -4   2  -9 8933.23 278.020   3
  -4  -2  -9 8812.27 267.691   3
   4  -2   9 9047.73 244.895   4
   4   2   9 8954.96 139.850   2
  -4  -2  -9 9179.24 216.117   4
  -4   2  -9 9561.17 158.266   1
   4   2  10 808.035 40.9859   2
  -4   2 -10 793.509 100.382   3
  -4   2 -10 896.910 89.2394   4
   4  -2  10 889.853 90.1573   4
  -4  -2 -10 822.082 98.6098   3
  -4  -2 -10 918.813 77.2966   4
  -4   2 -10 909.798 49.6778   1
  -4   2 -11 2844.94 149.653   4
  -4  -2 -11 2712.84 172.143   3
  -4  -2 -11 2761.16 129.691   4
  -4   2 -11 2851.00 176.684   3
  -4   2 -11 2343.26 68.6068   1
   4  -2  11 2570.50 147.115   4
  -4   2 -12 1120.60 106.081   4
   4  -2  12 1216.59 111.979   4
  -4  -2 -12 1078.24 118.975   3
  -4   2 -12 1285.52 132.835   3
  -4  -2 -12 1087.25 88.8482   4
  -4   2 -13 118.664 78.1976   3
  -4  -2 -13 17.0944 62.3003   3
  -4  -2 -13-7.23286 48.8657   4
  -4  -2 -14 290.152 87.9788   3
  -4   2 -14 367.047 103.095   3
  -4  -2 -15 2305.41 188.170   3
  -4   2 -15 2437.14 195.289   3
  -4   2 -16 100.435 87.2795   3
  -4  -2 -16 160.717 95.3479   3
   4  -4 -19-90.7864 71.3412   3
  -4  -4  19 58.3074 71.3285   4
   4  -4 -18 1139.01 123.740   3
  -4  -4  18 1167.02 129.468   4
   4  -4 -17 243.980 73.6142   3
  -4  -4  17 240.728 73.4111   4
  -4   4  16 471.046 52.4173   4
   4  -4 -16 510.481 84.8211   3
  -4  -4  16 457.710 90.6631   4
   4  -4 -15 78.3309 54.0090   3
  -4  -4  15 56.7453 61.8024   4
  -4   4  15 32.2240 30.1371   4
   4   4 -14 4692.21 107.792   1
  -4   4  14 4783.59 129.940   4
  -4  -4  14 4716.51 199.323   4
   4  -4 -14 4839.11 191.283   3
  -4  -4  13 1296.53 110.864   4
   4   4 -13 1275.56 64.2278   1
  -4   4  13 1278.13 67.1036   4
  -4   4  13 820.021 38.4476   1
   4  -4 -13 1318.78 99.2731   3
  -4   4  12 13251.2 191.904   4
  -4   4  12 11958.2 160.065   1
   4  -4 -12 13569.0 275.396   3
   4   4 -12 13435.7 199.886   1
  -4  -4  12 13365.5 304.340   4
   4   4 -11 229.113 39.5014   1
   4  -4 -11 245.285 47.2696   3
  -4   4  11 150.219 28.7231   4
  -4  -4  11 234.276 63.2092   4
  -4   4  11 142.423 28.5046   1
   4  -4 -10 2372.19 103.708   3
  -4   4  10 2465.75 77.7757   4
  -4  -4  10 2465.75 129.239   4
   4   4 -10 2431.41 92.3756   1
   4  -4  -9 2811.70 101.810   3
   4   4  -9 2791.53 98.2170   1
  -4   4   9 2848.39 94.7499   2
  -4  -4   9 2656.41 126.286   4
   4  -4  -8 5205.35 122.983   3
   4   4  -8 5304.32 133.140   1
  -4  -4   8 5051.96 166.558   4
  -4   4   8 5248.42 128.374   2
   4  -4  -7 5123.95 108.157   3
   4   4  -7 5327.52 133.613   1
  -4   4   7 5106.18 129.351   2
   4   4  -6 20278.4 254.813   1
   4  -4  -6 20092.5 182.513   3
  -4   4   6 19699.1 248.423   2
   4   4  -5 204.733 44.1641   1
  -4   4   5 267.746 44.7367   2
   4   4  -4 6556.27 149.031   1
  -4   4   4 6463.68 148.147   2
   4  -4  -4 6475.52 144.786   2
  -4   4   3 436.036 55.5932   2
   4   4  -3 368.776 51.5905   1
   4  -4  -3 367.303 50.7678   2
   4   4  -2 4737.19 129.018   1
  -4   4   2 4868.12 133.210   2
  -4   4   2 4854.07 117.318   4
   4  -4  -2 4596.27 127.666   2
  -4   4   1 16371.1 225.791   4
   4  -4  -1 16778.9 231.843   2
  -4   4   1 16886.3 240.656   2
   4   4  -1 16880.1 234.265   1
  -4   4   0 20568.4 268.032   2
   4   4   0 20156.3 258.194   1
   4  -4   0 20332.9 258.954   2
  -4   4   0 20880.4 267.274   4
   4  -4   1 2907.02 112.661   4
  -4   4  -1 2757.12 109.773   4
   4   4   1 2730.07 101.124   1
  -4   4  -1 2899.39 104.725   2
   4   4   2 2719.38 98.4768   1
  -4   4  -2 2658.14 112.171   4
  -4   4  -2 2704.13 102.682   2
   4   4   2 2772.15 109.650   3
   4  -4   2 2833.35 117.542   4
   4  -4   3 128.182 50.0462   4
   4   4   3 65.2148 40.5567   3
  -4   4  -3 101.067 44.4656   4
  -4   4  -3 92.1133 31.3281   2
   4   4   3 119.967 38.0510   1
   4  -4   4 22115.9 331.539   4
  -4   4  -4 22049.3 281.243   2
   4   4   4 22494.2 333.218   3
  -4   4  -4 22664.5 337.851   4
   4   4   4 21473.4 264.894   1
  -4  -4  -5 169.257 35.1327   4
   4   4   5 155.459 50.6095   3
   4  -4   5 168.309 54.6497   4
  -4   4  -5 214.623 42.2992   2
  -4   4  -5 108.342 41.3000   4
   4   4   5 159.601 34.9462   1
   4   4   6 14385.9 301.595   3
   4   4   6 14150.0 212.748   1
  -4  -4  -6 13997.4 301.702   3
  -4   4  -6 14269.0 231.363   2
  -4   4  -6 14636.6 298.075   4
   4  -4   6 13426.6 285.267   4
  -4  -4  -6 14413.4 213.911   4
   4   4   7 247.660 39.3526   1
  -4  -4  -7 208.547 60.9348   3
   4   4   7 271.780 60.5382   3
  -4   4  -7 229.963 42.8732   2
   4  -4   7 201.907 59.3569   4
  -4  -4  -7 243.048 40.4109   4
  -4   4  -7 190.657 52.9423   4
  -4   4  -8 7910.91 175.345   2
  -4  -4  -8 7699.77 173.605   4
  -4  -4  -8 7345.74 240.462   3
  -4   4  -8 7799.97 233.099   4
   4  -4   8 7270.78 227.373   4
   4   4   8 7941.29 154.037   1
   4  -4   9 953.460 95.9344   4
  -4  -4  -9 1052.05 73.9287   4
  -4  -4  -9 1050.33 100.888   3
  -4   4  -9 1020.39 98.2018   4
   4   4   9 1001.51 56.7024   1
  -4  -4 -10 680.355 61.2388   4
  -4   4 -10 800.290 93.1707   4
   4   4  10 694.532 46.9157   2
   4  -4  10 714.196 91.4519   4
  -4  -4 -10 684.514 91.9905   3
  -4   4 -10 772.415 57.6190   1
   4  -4  11 779.035 93.4339   4
  -4  -4 -11 823.696 109.053   3
   4   4  11 594.140 37.3540   2
  -4   4 -11 792.259 54.9799   1
  -4  -4 -11 738.526 67.4843   4
  -4   4 -11 769.754 102.234   3
  -4   4 -12 14028.8 399.810   3
   4  -4  12 13878.6 359.533   4
  -4  -4 -12 13887.6 388.571   3
  -4  -4 -12 14127.5 263.187   4
  -4   4 -12 13273.4 188.395   1
   4  -4  13 40.4877 64.0996   4
  -4  -4 -13 189.514 83.8817   3
  -4   4 -13 100.632 81.3228   3
  -4  -4 -14 6578.69 293.113   3
   4  -4  14 6816.80 267.772   4
  -4   4 -14 6294.05 299.530   3
  -4   4 -15 1043.47 146.321   3
   4  -4  15 1057.97 125.186   4
  -4  -4 -15 994.676 134.607   3
  -4   4 -16 47.5420 82.6092   3
  -4  -4 -16 47.8261 77.3783   3
   4  -6 -19 650.956 104.789   3
  -4  -6  19 310.500 95.9864   4
  -4  -6  18-23.9970 75.5947   4
   4  -6 -18 141.801 70.6216   3
   4  -6 -17 1450.86 128.576   3
  -4  -6  17 1328.73 139.360   4
   4  -6 -16 11.9968 53.3679   3
  -4  -6  16 5.01600 69.7786   4
   4   6 -16 21.8828 27.1448   1
   4   6 -15 2076.27 88.9637   1
  -4  -6  15 2027.64 151.024   4
   4  -6 -15 2185.54 134.516   3
  -4   6  14 111.711 23.7882   1
   4   6 -14 106.873 33.6441   1
  -4   6  14 78.1781 12.9479   4
  -4  -6  14 144.622 74.5691   4
   4  -6 -14 130.599 53.4898   3
   4   6 -13 837.402 65.1157   1
  -4   6  13 694.171 49.3603   1
   4  -6 -13 935.950 86.3828   3
  -4   6  13 479.674 25.7232   4
  -4  -6  13 959.205 106.355   4
  -4   6  12 895.502 60.5882   2
   4  -6 -12 911.258 77.9383   3
  -4   6  12 582.683 27.6450   4
   4   6 -12 910.372 70.4255   1
  -4  -6  12 898.598 99.5389   4
  -4   6  11 5265.98 141.235   2
   4  -6 -11 5514.41 165.785   3
   4   6 -11 5453.39 153.963   1
  -4  -6  11 5218.65 201.687   4
   4  -6 -10 268.186 42.9808   3
  -4  -6  10 238.141 63.8554   4
   4   6 -10 330.951 52.0805   1
  -4   6  10 210.095 21.1086   4
  -4   6  10 241.856 40.3092   2
   4   6  -9 3571.23 127.106   1
  -4   6   9 3411.95 119.212   2
  -4  -6   9 3501.65 156.526   4
  -4   6   8 568.964 56.4650   2
  -4  -6   8 678.953 77.4506   4
  -4  -6   7 97.3931 49.1882   4
  -4   6   7 96.8224 39.6241   2
  -4   6   7 98.2911 23.1915   4
  -4  -6   6 388.025 62.4957   4
  -4   6   6 280.478 50.1247   2
  -4   6   6 341.771 33.8990   3
  -4   6   6 337.887 34.9710   4
  -4   6   5 12535.5 138.710   3
  -4   6   5 13122.6 173.894   4
  -4   6   5 13146.8 231.051   2
  -4   6   4 3310.06 97.2098   4
  -4   6   4 3415.62 123.495   2
  -4   6   3 6811.31 145.694   4
  -4   6   3 6934.97 171.063   2
  -4   6   2 6837.44 153.682   4
  -4   6   2 6674.01 168.541   2
   4  -6  -1 1726.80 84.8355   4
  -4   6   1 1652.77 85.6270   4
  -4   6   1 1743.03 91.1076   2
   4  -6   0 4081.96 134.667   4
  -4   6   0 3911.49 133.131   4
  -4   6   0 4095.04 137.665   2
  -4   6  -1 12085.9 238.619   4
  -4   6  -1 12539.0 234.243   2
   4  -6   1 11706.7 232.677   4
   4   6   2 7827.43 181.190   1
   4  -6   2 7933.13 202.899   4
  -4   6  -2 8354.28 208.775   4
  -4   6  -2 8128.70 190.872   2
   4   6   3 1540.38 86.9810   1
   4   6   3 1600.24 96.0314   3
  -4   6  -3 1692.50 106.572   4
  -4   6  -3 1580.08 90.0741   2
   4  -6   3 1537.26 103.175   4
  -4   6  -4 386.610 53.4852   2
   4  -6   4 361.550 65.6719   4
   4   6   4 308.615 47.0320   1
   4   6   4 371.557 58.7169   3
  -4   6  -4 343.999 63.6916   4
   4   6   5 3511.60 148.613   3
   4  -6   5 3602.33 158.519   4
   4   6   5 3509.05 122.810   1
  -4   6  -5 3766.00 158.284   4
  -4   6  -5 3336.24 122.926   2
  -4  -6  -6 27.4893 25.3026   4
   4  -6   6 55.1096 48.7849   4
   4   6   6 38.3030 46.1069   3
  -4   6  -6 98.0847 51.5658   4
   4   6   6 33.6156 35.4262   1
  -4   6  -6 81.9227 39.9485   2
  -4   6  -7 3765.73 167.377   4
   4   6   7 3931.74 171.369   3
  -4  -6  -7 4064.92 110.046   4
  -4   6  -7 3902.52 137.469   2
   4  -6   7 3580.67 167.271   4
   4   6   7 3848.17 126.368   1
   4   6   8 1588.81 120.012   3
  -4   6  -8 1413.64 86.9023   2
   4  -6   8 1439.48 114.212   4
  -4  -6  -8 1645.50 74.3136   4
   4   6   8 1575.86 83.2073   1
  -4   6  -8 1544.00 114.827   4
  -4   6  -9 356.886 56.0701   2
   4  -6   9 309.369 71.5633   4
  -4  -6  -9 339.418 43.9327   4
   4   6   9 290.684 41.9909   1
   4  -6  10-22.4610 56.7677   4
  -4  -6 -10 46.3446 31.5021   4
   4   6  10 84.4838 33.4919   1
  -4   6 -10 41.0527 35.2918   2
   4  -6  11 1357.99 130.633   4
  -4  -6 -11 1341.27 72.3188   4
   4   6  11 1247.95 64.2460   1
   4  -6  12-13.4805 62.7919   4
  -4  -6 -12-15.2966 34.3063   4
  -4   6 -12-4.25730 35.9124   1
   4  -6  13 1223.55 129.801   4
  -4   6 -14 1166.50 143.921   3
   4  -6  14 1294.75 138.743   4
  -4   6 -15 2672.75 215.994   3
   4  -6  15 2686.34 188.031   4
  -4   6 -16 322.018 115.214   3
   4  -6  16 426.231 105.694   4
  -4  -8  18 289.119 103.802   4
  -4  -8  17 262.396 88.7539   4
  -4  -8  16 1323.82 142.493   4
   4   8 -16 1173.55 80.4915   1
   4   8 -15 800.968 74.7473   1
  -4  -8  15 649.670 106.350   4
   4   8 -14 2516.51 120.224   1
  -4   8  14 2192.58 96.7974   2
  -4  -8  14 2422.10 167.984   4
  -4   8  13 2372.72 106.886   2
  -4  -8  13 2399.62 160.549   4
   4   8 -13 2535.10 119.961   1
   4   8 -12 10437.0 235.523   1
  -4   8  12 9854.70 217.116   2
  -4  -8  12 10455.8 310.029   4
  -4   8  11 1092.02 78.9731   2
  -4  -8  11 1121.63 110.884   4
  -4   8  10 44.6812 34.7440   2
  -4  -8  10 7.91432 55.6873   4
  -4   8   9 31.6408 32.9657   2
  -4  -8   9 102.905 63.8411   4
  -4   8   8 4189.13 122.287   3
  -4   8   8 3673.57 74.0805   4
  -4   8   8 4354.94 148.780   2
  -4  -8   8 4355.40 179.976   4
  -4   8   7 26.6256 41.2516   2
  -4   8   7 62.6079 23.3192   4
  -4   8   7-19.1826 29.5703   3
  -4  -8   7 3.19031 48.4346   4
  -4   8   6 3504.63 97.1752   3
  -4   8   6 3662.18 96.7947   4
  -4  -8   6 3522.87 154.411   4
  -4   8   6 3560.08 139.569   2
  -4  -8   5 112.033 56.0502   4
  -4   8   5 139.844 30.9946   4
  -4   8   5 84.5607 44.5769   2
  -4  -8   4 1355.93 96.3324   4
  -4   8   4 1367.77 74.1224   4
  -4   8   4 1363.76 92.1301   2
  -4   8   3 621.109 58.7285   4
  -4   8   2 6577.75 170.567   4
   4  -8  -2 6738.81 167.176   4
  -4   8   1 1023.96 77.7121   4
   4  -8  -1 1105.96 80.8022   4
  -4   8   0 15576.6 279.864   4
   4  -8   0 15486.5 276.254   4
  -4   8  -1 1889.44 105.463   2
  -4   8  -1 1831.37 107.873   4
   4  -8   1 1817.57 107.031   4
  -4   8  -2 111.807 49.9152   2
   4  -8   2 106.291 50.0489   4
  -4   8  -2 63.3762 47.6346   4
  -4   8  -3 2012.69 107.190   2
  -4   8  -3 2136.31 122.353   4
   4  -8   3 2121.21 123.841   4
   4   8   4 1302.48 96.1607   3
  -4   8  -4 1160.55 100.022   4
   4  -8   4 1027.66 93.2565   4
  -4   8  -4 1258.72 88.4093   2
  -4   8  -5 152.442 46.7650   2
   4  -8   5 210.611 64.8496   4
   4   8   5 179.948 55.8236   3
  -4   8  -5 136.230 50.6859   4
   4   8   5 177.734 46.8334   1
   4   8   6 6068.76 210.404   3
   4   8   6 5851.77 174.013   1
  -4   8  -6 6015.35 183.434   2
   4  -8   6 6153.49 225.282   4
  -4   8  -6 6248.49 222.723   4
  -4   8  -7 206.364 48.3689   2
   4   8   7 186.144 58.7406   3
   4  -8   7 217.756 64.6598   4
   4   8   7 207.481 47.5243   1
  -4  -8  -7 179.995 31.0488   4
  -4   8  -7 288.709 72.7031   4
   4   8   8 4386.33 151.290   1
  -4  -8  -8 4284.90 104.194   4
  -4   8  -8 4219.67 160.128   2
   4  -8   8 4117.50 196.635   4
   4  -8   9 361.412 77.0588   4
   4   8   9 466.246 61.0137   1
  -4   8  -9 475.491 65.3756   2
  -4  -8  -9 464.272 38.9051   4
  -4   8 -10 574.907 71.2827   2
  -4  -8 -10 521.793 37.6356   4
   4   8  10 637.962 63.8936   1
   4  -8  10 664.786 102.333   4
  -4   8 -11 1369.34 98.2367   2
   4  -8  11 1240.67 130.395   4
  -4  -8 -11 1085.15 49.3804   4
   4   8  11 1370.06 82.9096   1
   4   8  12 1818.78 88.8593   1
   4  -8  12 1779.47 154.892   4
   4  -8  13 338.432 91.6210   4
   4  -8  14 302.237 89.5921   4
   4  -8  15 372.475 109.440   4
  -4 -10  18 335.977 112.332   4
  -4 -10  17 2447.96 195.931   4
   4  10 -16 204.195 60.2732   1
  -4 -10  16 58.8977 77.4894   4
  -4 -10  15 1057.12 136.109   4
   4  10 -15 792.988 86.0767   1
  -4  10  14 509.990 63.3715   2
   4  10 -14 627.071 79.1857   1
  -4 -10  14 716.781 112.918   4
   4  10 -13 924.194 92.3737   1
  -4 -10  13 778.421 108.878   4
  -4  10  13 666.191 73.7348   2
  -4 -10  12 3134.34 186.889   4
  -4  10  12 2766.95 132.879   2
  -4  10  11 2785.48 135.173   2
  -4 -10  11 2933.90 174.469   4
  -4 -10  10 2211.29 151.216   4
  -4  10  10 2031.89 115.392   2
  -4  10   9 16894.6 277.021   3
  -4 -10   9 16998.8 382.081   4
  -4  10   9 16980.6 323.336   2
  -4  10   8 56.7830 43.9279   2
  -4  10   8-24.4008 34.4751   3
  -4  10   8 31.1729 17.4500   4
  -4 -10   8 12.2121 54.4034   4
  -4  10   7 1714.68 68.7036   4
  -4  10   7 1732.80 109.889   2
  -4 -10   7 1760.12 125.507   4
  -4  10   7 1840.43 86.3820   3
  -4  10   6 56.6717 26.3095   4
  -4 -10   6 171.311 64.0666   4
  -4  10   5-17.0373 31.0564   4
  -4 -10   5 92.7534 56.0913   4
  -4  10   4 1308.76 78.5924   4
  -4 -10   4 1475.12 105.343   4
   4 -10  -3 5426.87 157.740   4
  -4  10   3 5187.87 156.143   4
  -4 -10   3 5592.76 187.458   4
  -4 -10   2 600.974 69.0859   4
   4 -10  -2 610.014 65.9596   4
  -4  10   2 607.515 63.7024   4
   4 -10  -1 1128.02 86.6240   4
  -4 -10   1 1068.00 82.5588   4
  -4  10   1 1085.26 87.4518   4
  -4  10   0 66.8332 45.1914   4
   4 -10   0 87.5212 47.3709   4
   4 -10   1 7238.77 216.398   4
  -4  10  -1 7199.19 215.749   4
   4 -10   2 167.800 59.3203   4
  -4  10  -2 72.2975 44.9146   4
   4 -10   3 22069.4 403.335   4
  -4  10  -3 22349.8 400.904   4
  -4  10  -4 1820.68 127.407   4
   4 -10   4 1862.96 129.573   4
  -4  10  -4 1823.20 115.747   2
   4  10   5 3180.05 155.253   3
  -4  10  -5 3073.23 164.928   4
   4 -10   5 2988.19 166.034   4
  -4  10  -5 3032.44 144.353   2
  -4  10  -6 323.945 63.2468   2
   4  10   6 242.368 59.7208   3
   4 -10   6 272.190 75.3203   4
   4  10   7 2038.49 118.959   1
   4 -10   7 1965.60 144.431   4
  -4  10  -7 1937.93 121.720   2
  -4  10  -8 156.378 47.8932   2
  -4 -10  -8 154.485 24.4926   4
   4  10   8 201.230 54.8857   1
   4 -10   8 115.211 64.7867   4
   4 -10   9 877.688 114.883   4
  -4  10  -9 864.018 88.0490   2
  -4 -10  -9 548.295 26.4402   4
   4  10   9 869.476 79.8510   1
   4  10  10 98.5919 46.1359   1
   4 -10  10 131.494 78.4404   4
  -4  10 -10 62.4004 45.8532   2
   4  10  11 503.405 65.8922   1
   4 -10  11 593.672 105.393   4
  -4  10 -11 539.433 73.5389   2
   4 -10  12 125.812 89.7891   4
   4  10  12 35.3418 41.5769   1
   4 -10  13 745.577 128.358   4
   4 -10  14 697.731 126.130   4
  -4 -12  17-62.5072 91.7936   4
  -4 -12  16 187.766 102.340   4
   4  12 -15-53.5150 58.5537   1
  -4 -12  15 72.0834 88.1529   4
  -4 -12  14 2761.33 199.730   4
   4  12 -14 2390.71 145.482   1
  -4 -12  13 222.581 93.8143   4
  -4  12  13 159.618 58.3292   2
  -4  12  12 545.834 77.3250   2
  -4 -12  12 661.635 104.618   4
  -4 -12  11 77.2889 70.8074   4
  -4  12  11 66.4687 47.4012   2
  -4  12  10 584.590 68.6764   3
  -4 -12  10 529.994 93.8073   4
  -4  12  10 608.113 79.1956   2
  -4  12   9 410.811 70.8483   2
  -4  12   9 513.522 63.0567   3
  -4 -12   9 399.345 82.3493   4
  -4  12   8 7657.63 241.691   2
  -4  12   8 7766.22 195.780   3
  -4 -12   8 7751.68 267.621   4
  -4  12   7 79.7893 36.1910   3
  -4 -12   7 78.0593 62.0886   4
  -4  12   7 73.3281 30.0680   4
  -4 -12   6 4769.31 204.361   4
  -4  12   6 4692.53 135.652   4
  -4  12   5 2832.22 114.786   4
  -4 -12   5 2893.57 157.844   4
   4 -12  -4 3521.89 133.339   4
  -4  12   4 3225.48 128.100   4
  -4 -12   4 3371.97 162.745   4
   4 -12  -3 6651.31 189.621   4
  -4  12   3 6102.50 184.416   4
  -4 -12   3 6512.15 213.358   4
  -4 -12   2 8518.13 235.403   4
  -4  12   2 8355.37 224.950   4
   4 -12  -2 8748.60 225.880   4
  -4 -12   1 7979.50 220.105   4
  -4  12   1 7929.85 228.155   4
   4 -12  -1 7975.78 225.281   4
  -4  12   0 15251.2 323.529   4
   4 -12   0 15205.3 320.225   4
  -4 -12   0 14832.4 287.191   4
   4 -12   1 2999.77 154.248   4
  -4 -12  -1 3042.43 129.084   4
  -4  12  -1 3059.65 153.575   4
  -4  12  -2 5596.57 214.234   4
   4 -12   2 5587.41 214.678   4
  -4 -12  -2 5684.49 167.784   4
   4 -12   3 1479.24 123.081   4
  -4 -12  -3 1654.18 91.9393   4
  -4  12  -3 1552.58 119.718   4
  -4 -12  -4 3975.55 127.007   4
   4 -12   4 3806.93 190.323   4
   4 -12   5 252.588 73.4564   4
  -4  12  -5 288.781 62.9538   2
  -4 -12  -5 374.448 48.2505   4
   4 -12   6 3375.85 190.277   4
  -4 -12  -6 3533.81 102.781   4
   4 -12   7 1541.49 139.398   4
  -4 -12  -7 1411.36 59.7360   4
  -4 -12  -8 109.704 17.2765   4
   4  12   8 79.7254 48.2621   1
   4 -12   8 135.844 72.6348   4
  -4 -12  -8 92.2165 16.0010   4
   4 -12   9 63.7688 68.1504   4
   4  12   9-1.20133 45.3231   1
   4  12  10 1185.35 103.641   1
   4 -12  10 1342.67 145.126   4
   4 -12  11 648.374 110.754   4
   4  12  11 693.327 83.2993   1
   4 -12  12 961.848 131.584   4
   4 -12  13 291.930 104.162   4
  -4 -14  16-85.0473 91.3436   4
   4  14 -15 593.612 95.7268   1
  -4 -14  15 804.263 139.104   4
  -4 -14  14-14.3580 82.7604   4
  -4 -14  13 769.137 122.709   4
  -4 -14  12 214.509 91.1693   4
  -4  14  11 2362.47 134.956   3
  -4 -14  11 2531.40 189.594   4
  -4  14  10 75.1281 47.8974   3
  -4 -14  10 63.7829 74.3022   4
  -4  14   9 1115.93 90.3306   3
  -4 -14   9 1221.56 130.811   4
  -4  14   8 543.393 65.6897   3
  -4 -14   8 546.202 98.4389   4
  -4 -14   7 187.445 71.5502   4
  -4 -14   6 2.57018 62.7247   4
  -4  14   6 8.92119 32.6251   4
  -4 -14   5 6872.35 252.088   4
  -4  14   5 6550.37 183.898   4
  -4 -14   4 782.549 95.8452   4
   4 -14  -4 785.217 78.2180   4
  -4  14   4 738.629 73.2098   4
   4 -14  -3 9042.26 238.577   4
  -4  14   3 8695.23 238.750   4
  -4 -14   3 8751.29 267.929   4
   4 -14  -2 5.45603 46.1005   4
  -4  14   2 74.8242 46.1420   4
  -4 -14   2 30.6210 49.9715   4
  -4 -14   1 739.143 85.6864   4
   4 -14  -1 660.898 81.6269   4
  -4  14   1 702.123 83.3486   4
  -4  14   0 8.67805 51.3453   4
   4 -14   0-5.65299 55.5744   4
  -4 -14   0 9.35082 48.5219   4
   4 -14   1 3.02189 54.0286   4
  -4  14  -1-30.7723 52.2823   4
  -4 -14  -1 36.5781 47.8415   4
   4 -14   2 2657.06 160.674   4
  -4 -14  -2 2548.70 127.508   4
   4 -14   3 3146.96 181.923   4
  -4 -14  -3 3089.32 132.402   4
   4 -14   4 48.7547 67.6363   4
  -4 -14  -4 44.4274 39.8262   4
   4 -14   5 853.606 112.804   4
  -4 -14  -5 994.170 76.0360   4
   4 -14   6 68.2458 72.4359   4
  -4 -14  -6-0.27754 30.2843   4
  -4 -14  -7 276.503 32.7637   4
   4 -14   7 510.718 103.558   4
   4 -14   8 11.0307 76.2870   4
   4  14   9 3477.66 182.672   1
   4 -14   9 3567.73 222.741   4
   4 -14  10 53.6000 77.1793   4
   4  14  10-5.41844 53.5885   1
   4  14  11 654.455 92.6879   1
   4 -14  11 740.332 132.458   4
   4 -14  12 44.5679 88.2323   4
  -4 -16  14 347.013 121.670   4
  -4 -16  13 190.167 104.514   4
  -4 -16  12 192.081 96.4402   4
  -4 -16  11-5.97395 81.0182   4
  -4 -16  10 131.752 80.3201   4
  -4  16   9 430.391 72.2876   3
  -4 -16   9 630.275 116.940   4
  -4  16   8 2524.99 136.974   3
  -4 -16   8 2830.97 193.686   4
  -4 -16   7 58.5331 69.9663   4
  -4 -16   6 1306.55 130.905   4
  -4  16   5 163.444 51.6333   4
  -4 -16   5 171.963 75.3474   4
   4 -16  -4 226.308 57.8930   4
  -4  16   4 179.419 53.5434   4
  -4 -16   4 274.553 77.5879   4
  -4  16   3 118.634 54.8680   4
   4 -16  -3 173.186 64.1521   4
  -4 -16   3 166.831 69.8695   4
   4 -16  -2 813.845 92.0442   4
  -4 -16   2 1004.14 109.420   4
  -4  16   2 833.381 94.4075   4
  -4 -16   1 762.253 93.2139   4
   4 -16  -1 735.770 90.2886   4
  -4 -16   0 2555.15 148.245   4
   4 -16   0 2501.01 156.436   4
   4 -16   1 631.061 95.8759   4
  -4 -16  -1 706.625 84.8298   4
   4 -16   2 176.480 71.7824   4
  -4 -16  -2 271.313 65.8590   4
   4 -16   3 370.658 85.5557   4
  -4 -16  -3 548.195 69.5926   4
   4 -16   4 149.900 75.1438   4
  -4 -16  -4 156.956 51.4999   4
   4 -16   5 257.635 88.0035   4
  -4 -16  -5 191.537 48.4899   4
  -4 -16  -6 2417.64 100.144   4
   4 -16   6 2761.77 203.183   4
   4 -16   7 269.306 94.8187   4
   4 -16   8 649.784 127.720   4
   4 -16   9 10.2537 96.4379   4
   4  16   9 8.92025 62.3043   1
   4  16  10 415.230 89.4685   1
   4 -16  10 417.918 108.325   4
  -4 -18  12-83.9436 100.596   4
  -4 -18  11 2938.45 222.087   4
  -4 -18  10 1134.01 152.292   4
  -4 -18   9 2478.43 199.526   4
  -4 -18   8 770.797 125.638   4
  -4 -18   7-68.7557 82.5998   4
  -4 -18   6 287.275 89.0251   4
  -4 -18   5 2602.92 185.912   4
   4 -18  -4 179.283 65.2991   4
  -4 -18   4-12.2835 73.5059   4
   4 -18  -3 7610.28 256.523   4
  -4 -18   3 7324.27 278.551   4
   4 -18  -2 233.222 75.6747   4
  -4 -18   2 286.940 80.6035   4
   4 -18  -1 1493.19 134.140   4
  -4 -18   1 1359.97 123.673   4
   4 -18   0 501.962 92.2284   4
  -4 -18   0 543.076 83.7965   4
  -4 -18  -1 773.512 95.1159   4
   4 -18   1 784.096 115.071   4
  -4 -18  -2 109.310 55.6318   4
   4 -18   2-46.5901 74.4506   4
   4 -18   3 1016.35 131.909   4
  -4 -18  -3 1048.94 98.6917   4
   4 -18   4-64.5370 85.0885   4
  -4 -18  -4-16.8994 51.5287   4
   4 -18   5 1457.02 156.931   4
   4 -18   6-27.8541 82.3172   4
   4 -18   7 817.188 132.834   4
   4 -18   8 335.070 102.522   4
   4  18   9 3045.42 203.295   1
  -4 -20   9 52.5491 85.9447   4
  -4 -20   8 153.147 96.9939   4
  -4 -20   7 42.1620 78.2812   4
  -4 -20   6 1070.41 138.185   4
  -4 -20   5 183.502 94.9919   4
  -4 -20   4 10.7819 71.5722   4
   4 -20  -4 14.5502 63.2507   4
  -4 -20   3 68.0103 77.1300   4
   4 -20  -3-12.1569 62.3758   4
   4 -20  -2 1290.07 130.484   4
  -4 -20   2 1330.47 136.036   4
   4 -20  -1 73.2005 76.7637   4
  -4 -20   1 194.234 71.3590   4
   4 -20   0 701.625 127.088   4
  -4 -20   0 823.572 108.622   4
   4 -20   1-4.85045 70.5907   4
  -4 -20  -1 58.9420 58.1917   4
   4 -20   2 18.1910 72.2701   4
  -4 -20  -2 56.8655 59.7079   4
   4 -20   3 119.009 91.6147   4
   4 -20   4 499.517 123.335   4
   4 -20   5 638.991 136.586   4
   4 -20   6 1240.35 172.933   4
   4 -22  -3 388.873 93.7303   4
  -4 -22   3 385.393 104.716   4
   4 -22  -2-12.4930 69.5859   4
  -4 -22   2 47.9471 72.9757   4
  -4 -22   1 341.945 96.3119   4
   4 -22  -1 193.251 91.7503   4
   4 -22   0-12.9277 72.6894   4
  -4 -22   0-2.99715 70.9143   4
   5   1 -20-103.349 85.3372   3
   5  -1 -20 32.8160 70.0669   3
   5   1 -19 1290.53 142.159   3
   5  -1 -19 1336.63 141.541   3
  -5  -1  19 1136.93 118.453   4
   5  -1 -18 148.087 73.5042   3
  -5   1  18 210.443 59.4724   4
  -5  -1  18 261.362 74.7485   4
   5  -1 -17 1433.73 134.166   3
  -5  -1  17 1174.60 111.766   4
  -5   1  17 1198.08 100.439   4
   5  -1 -16 2026.12 143.389   3
  -5   1  16 1857.43 112.635   4
  -5  -1  16 2018.76 131.352   4
  -5  -1  15 269.829 64.8370   4
  -5   1  15 256.043 54.3334   4
  -5   1  14 301.962 56.1551   4
   5   1 -14 289.807 25.9468   2
  -5  -1  14 387.746 65.9298   4
  -5  -1  13 3518.45 152.582   4
  -5   1  13 3560.66 140.870   4
   5   1 -13 3556.40 89.9877   2
   5  -1 -12 463.486 37.2673   2
  -5   1  12 438.781 35.8369   1
   5   1 -12 517.693 42.4499   2
  -5   1  12 499.169 59.1332   4
  -5  -1  12 448.582 61.1736   4
  -5   1  11 10060.9 157.641   1
   5  -1 -11 9714.82 152.048   2
  -5  -1  11 8979.50 220.285   4
  -5   1  11 9034.87 202.313   4
   5   1 -10 6714.47 135.797   1
   5  -1 -10 6563.60 133.171   2
  -5   1  10 6755.44 132.514   1
   5  -1  -9 714.333 52.4311   2
  -5  -1   9 758.529 52.4507   1
   5   1  -9 680.615 50.2369   1
  -5   1   9 772.113 51.7281   1
  -5   1   8 107.095 29.9301   1
   5   1  -8 105.562 34.1975   1
  -5  -1   8 100.075 31.3073   1
   5  -1  -8 93.5861 36.7638   2
  -5   1   7 623.839 49.2743   1
   5   1  -7 730.652 54.2564   1
  -5  -1   7 650.765 49.6906   1
   5  -1  -7 546.520 48.7273   2
   5  -1  -6 5229.12 126.978   2
  -5  -1   6 5481.03 128.235   1
  -5   1   6 5326.36 125.914   1
   5   1  -6 5497.03 128.063   1
  -5   1   5 9812.36 168.146   1
   5  -1  -5 9962.89 175.596   2
   5   1  -5 9866.82 172.298   1
  -5  -1   5 10119.4 171.956   1
   5   1  -4 5388.28 126.630   1
  -5  -1   4 5461.03 128.393   1
  -5   1   4 5235.77 126.829   1
   5  -1  -4 5153.77 128.731   2
   5   1  -3 37437.0 326.860   1
   5  -1  -3 37584.5 333.902   2
  -5  -1   3 37351.7 327.984   1
   5  -1  -2 6629.08 144.313   2
   5   1  -2 6726.80 141.517   1
   5  -1  -2 6534.21 103.633   3
  -5  -1   2 6450.72 138.250   1
  -5   1   2 6320.30 137.637   1
   5   1  -1 18463.4 233.749   1
   5  -1  -1 18457.3 238.408   2
  -5  -1   1 18289.5 229.129   1
   5  -1  -1 18641.7 194.108   3
  -5   1   1 18420.9 231.511   1
  -5  -1   0 11956.2 185.901   1
   5  -1   0 12106.6 176.779   3
   5   1   0 12409.8 191.299   3
  -5   1   0 11833.9 178.483   3
   5   1   0 12084.4 190.204   1
   5  -1   0 11979.9 191.782   2
  -5   1   0 12034.3 189.618   1
   5  -1   1 20075.7 254.785   3
  -5   1  -1 19690.8 246.266   3
   5  -1   1 19961.4 250.125   2
   5   1   1 19942.5 240.455   1
   5   1   1 20904.5 262.944   3
  -5   1  -1 19973.1 244.884   1
  -5  -1  -1 20352.5 243.706   1
   5   1   2 28604.6 333.584   3
  -5   1  -2 28748.9 326.995   3
   5   1   2 28099.9 288.788   1
   5  -1   2 28465.2 301.082   2
  -5  -1  -2 28220.0 290.432   1
  -5   1  -2 28106.8 291.415   1
  -5   1  -2 27775.6 325.055   4
   5   1   3 2008.48 82.0605   1
   5   1   3 1955.27 102.368   3
  -5   1  -3 1936.25 100.637   3
  -5  -1  -3 1932.53 103.032   3
   5  -1   3 1886.55 84.8503   2
  -5   1  -3 2031.07 97.9191   4
  -5  -1  -3 1916.25 80.3833   1
  -5   1  -3 1895.79 77.8825   1
  -5   1  -4 14862.1 273.956   3
  -5  -1  -4 14816.3 279.711   3
   5  -1   4 14315.7 216.961   2
  -5   1  -4 14674.7 258.772   4
  -5  -1  -4 14382.2 210.937   1
  -5  -1  -4 14909.6 243.830   4
   5   1   4 14824.9 281.914   3
   5   1   4 14613.0 210.579   1
  -5   1  -4 14290.1 210.744   1
  -5  -1  -5 151.280 54.8162   3
  -5  -1  -5 80.1404 34.6433   4
  -5   1  -5 179.009 53.5137   4
  -5   1  -5 124.060 34.9207   1
  -5   1  -5 135.114 49.4868   3
  -5  -1  -5 135.803 33.5925   1
   5  -1   5 118.195 34.9041   2
  -5   1  -6 123.023 51.5333   3
  -5  -1  -6 245.487 60.2458   3
  -5   1  -6 181.400 35.6658   1
  -5  -1  -6 180.417 47.0778   4
   5  -1   6 188.431 36.5594   2
   5   1   6 205.960 39.5134   2
  -5   1  -6 162.228 42.7020   4
  -5  -1  -6 169.017 34.0950   1
  -5   1  -7 2063.52 83.0475   1
  -5   1  -7 1884.55 125.300   3
  -5  -1  -7 1880.37 123.873   3
  -5  -1  -7 1918.98 79.8838   1
  -5   1  -7 1980.03 114.679   4
  -5  -1  -7 2027.94 104.699   4
   5   1   7 2072.07 82.8703   2
   5  -1   7 2014.29 83.0806   2
  -5   1  -8 12077.1 309.536   3
  -5  -1  -8 11955.5 305.887   3
  -5  -1  -8 12476.7 190.452   1
  -5   1  -8 12970.1 285.594   4
  -5   1  -8 12944.4 198.809   1
  -5  -1  -8 12770.2 269.659   4
   5   1   8 13030.0 193.538   2
  -5   1  -9 1017.01 59.4101   1
  -5   1  -9 915.515 101.823   3
  -5  -1  -9 926.812 102.341   3
   5   1   9 1005.88 54.7877   2
  -5   1  -9 962.172 90.4388   4
  -5  -1  -9 987.243 83.9349   4
  -5   1 -10 3631.82 167.079   4
  -5  -1 -10 3457.86 185.989   3
  -5   1 -10 3473.07 190.307   3
   5   1  10 3415.08 91.1391   2
  -5   1 -10 3446.52 95.7395   1
  -5  -1 -10 3640.64 155.293   4
  -5   1 -11 334.344 80.3667   3
  -5   1 -11 377.067 71.1666   4
  -5   1 -11 278.206 30.1755   1
  -5  -1 -11 413.823 82.6965   3
  -5  -1 -11 380.480 69.6547   4
  -5   1 -12 103.055 71.4926   3
  -5  -1 -12 157.906 65.7381   3
  -5   1 -12 105.324 59.9410   4
  -5  -1 -12 161.666 57.3344   4
  -5   1 -13 3336.77 211.459   3
  -5  -1 -13 3399.10 211.756   3
  -5  -1 -13 3293.53 166.274   4
  -5   1 -14 802.468 123.503   3
  -5  -1 -14 774.468 127.035   3
  -5   1 -15 274.209 98.1353   3
  -5  -1 -15 174.948 90.9532   3
  -5   1 -16 1623.04 186.587   3
  -5  -1 -16 1840.61 195.581   3
   5  -3 -20 58.2687 70.9485   3
  -5  -3  20-137.575 79.3387   4
   5  -3 -19 425.905 91.2368   3
  -5  -3  19 289.576 84.7741   4
   5  -3 -18 495.742 89.4492   3
  -5  -3  18 290.284 78.5738   4
   5  -3 -17-57.2055 62.9431   3
  -5   3  17 40.9547 40.5363   4
  -5  -3  17-37.7667 65.3717   4
   5  -3 -16 592.437 85.8997   3
  -5   3  16 605.505 68.5686   4
  -5  -3  16 600.529 92.3587   4
  -5   3  15 3250.44 126.143   4
   5   3 -15 2783.83 78.3395   2
   5  -3 -15 3177.73 160.585   3
  -5  -3  15 3166.06 166.594   4
   5  -3 -14 67.4036 54.4063   3
   5   3 -14 60.4352 25.5695   1
  -5   3  14 22.8545 13.9031   1
  -5  -3  14 110.514 59.6862   4
  -5   3  14 63.4120 36.1900   4
   5  -3 -13 4820.40 172.377   3
   5   3 -13 5014.56 120.658   1
  -5  -3  13 4683.09 186.439   4
  -5   3  13 4216.49 95.8498   1
  -5   3  13 4506.15 138.330   4
   5  -3 -12 3714.58 141.784   3
  -5   3  12 3745.45 98.2785   1
  -5  -3  12 3541.18 160.447   4
  -5   3  12 3545.60 118.095   4
   5   3 -12 4122.81 115.411   1
  -5   3  11 1886.49 75.3188   1
   5  -3 -11 1932.13 98.0797   3
   5   3 -11 1969.36 84.8881   1
  -5   3  11 1817.91 83.4047   4
  -5  -3  11 1819.58 113.821   4
   5  -3 -10 3852.10 124.104   3
  -5   3  10 4052.00 109.624   1
   5   3 -10 4145.53 119.972   1
  -5  -3  10 3852.92 153.599   4
   5  -3  -9 364.582 42.0433   3
   5  -3  -9 363.881 43.3155   2
   5   3  -9 376.593 46.9081   1
  -5   3   9 390.285 42.0810   1
  -5   3   8 2311.87 87.4580   1
   5   3  -8 2309.89 93.7793   1
   5  -3  -8 2345.21 89.9568   2
   5  -3  -7 67.2360 35.1708   2
   5   3  -7 59.2143 34.7733   1
   5  -3  -6 205.344 42.7035   2
   5   3  -6 203.212 42.3488   1
  -5   3   6 276.297 47.4462   2
   5  -3  -5 735.076 58.6440   2
  -5   3   5 840.366 64.2517   2
   5   3  -5 685.537 59.7007   1
  -5  -3   5 782.503 61.5682   1
  -5  -3   4 30109.2 318.651   1
  -5   3   4 28949.8 315.588   2
   5  -3  -4 29374.3 310.217   2
   5   3  -4 29569.4 311.290   1
   5   3  -3 11375.3 194.469   1
  -5  -3   3 11440.5 199.112   1
  -5   3   3 11489.9 202.135   2
   5  -3  -3 11041.1 195.125   2
   5   3  -2 347.414 51.8461   1
  -5   3   2 297.151 27.0784   3
   5  -3  -2 354.505 53.3438   2
  -5   3   2 367.519 55.0672   2
  -5  -3   2 376.908 52.0882   1
   5  -3  -1 402.880 53.7394   2
  -5   3   1 321.995 36.9169   3
   5   3  -1 402.920 52.4217   1
  -5  -3   1 389.003 53.2334   1
  -5   3   1 431.211 60.4106   2
  -5   3   0 177.545 37.0571   3
  -5   3   0 206.670 45.3291   4
   5  -3   0 182.035 47.0015   2
   5   3   0 105.050 41.0180   1
  -5  -3   0 188.067 44.6914   1
  -5   3   0 207.619 48.7782   2
  -5   3  -1 12133.3 200.584   3
  -5  -3  -1 11957.4 203.414   1
   5   3   1 12079.7 222.403   3
  -5   3  -1 12483.3 213.685   2
   5   3   1 11807.4 204.270   1
  -5   3  -1 12353.3 222.113   4
   5  -3   1 12014.2 209.941   2
   5   3   2 5032.48 147.901   3
  -5  -3  -2 4611.05 128.999   1
   5   3   2 4653.61 129.059   1
  -5   3  -2 4877.70 136.184   2
   5  -3   2 4574.52 132.188   2
  -5   3  -2 4877.18 149.456   4
   5   3   3 2722.01 118.442   3
  -5   3  -3 2297.67 103.026   4
  -5  -3  -3 2610.37 97.0486   1
  -5   3  -3 2602.78 98.8251   2
   5  -3   3 2591.26 102.291   2
   5   3   3 2778.38 100.953   1
   5   3   4 1083.62 84.1310   3
  -5   3  -4 1030.25 82.5051   4
  -5  -3  -4 983.348 66.1171   1
  -5   3  -4 968.604 65.7518   2
   5   3   4 997.351 65.9312   1
   5  -3   4 885.371 66.6655   2
   5  -3   5 413.068 62.0707   4
  -5   3  -5 536.252 74.3002   3
   5  -3   5 545.170 54.1390   2
   5   3   5 552.460 69.4930   3
  -5   3  -5 660.769 74.9501   4
  -5  -3  -5 517.590 73.0796   3
  -5  -3  -5 468.531 47.6898   4
   5   3   5 554.212 51.7965   1
  -5  -3  -6 497.565 73.3333   3
   5   3   6 494.611 48.3948   1
  -5   3  -6 527.250 74.8467   3
   5   3   6 535.204 71.6510   3
   5  -3   6 496.140 67.4137   4
  -5  -3  -6 472.679 54.0755   4
  -5   3  -6 507.304 64.8585   4
   5  -3   7 123.552 58.8073   4
   5   3   7 74.3034 31.3524   1
  -5   3  -7 88.2573 35.0527   1
  -5  -3  -7 53.8872 54.9899   3
  -5   3  -7 105.807 58.2452   3
  -5  -3  -7 60.2978 36.5829   4
  -5   3  -7 149.609 58.3762   4
  -5   3  -8 2550.35 154.120   3
  -5  -3  -8 2815.56 158.887   3
   5  -3   8 2637.63 142.355   4
  -5  -3  -8 2759.24 120.409   4
  -5   3  -8 2847.16 104.423   1
  -5   3  -8 2911.22 149.422   4
  -5  -3  -9-7.69568 56.4944   3
  -5   3  -9 108.879 62.0444   3
   5  -3   9 42.5712 52.6358   4
   5   3   9 85.9700 29.6589   2
  -5  -3  -9 54.4690 41.7965   4
  -5   3  -9 47.2989 33.6018   1
  -5   3  -9 99.1427 55.0946   4
  -5   3 -10 598.656 95.2279   3
  -5   3 -10 660.005 53.4398   1
  -5  -3 -10 691.380 99.2040   3
   5  -3  10 686.472 89.2948   4
   5   3  10 655.098 46.6538   2
  -5   3 -10 665.959 83.8496   4
  -5  -3 -10 616.707 69.6046   4
  -5   3 -11 6725.30 271.568   3
  -5  -3 -11 6713.70 269.701   3
  -5   3 -11 6861.27 144.819   1
  -5  -3 -11 6721.71 201.664   4
   5   3  11 6276.88 118.747   2
  -5   3 -12 242.727 32.2705   1
  -5   3 -12 307.926 89.3324   3
  -5  -3 -12 326.116 93.1603   3
  -5  -3 -12 367.658 65.5964   4
  -5   3 -13 496.932 104.036   3
  -5  -3 -13 426.474 100.725   3
  -5   3 -14 1936.59 178.615   3
  -5  -3 -14 1936.70 172.844   3
  -5  -3 -15 186.604 88.5080   3
  -5   3 -15 241.299 89.1167   3
  -5   3 -16 406.445 119.927   3
  -5  -3 -16 428.211 122.892   3
   5  -5 -19 385.399 86.9835   3
  -5  -5  19 281.798 100.155   4
   5  -5 -18 39.9160 60.2283   3
  -5  -5  18 146.924 78.7724   4
   5  -5 -17 70.5417 57.6223   3
  -5  -5  17 49.9372 65.1267   4
   5   5 -16 1137.51 61.5688   1
   5  -5 -16 1185.88 106.087   3
  -5  -5  16 1330.34 128.026   4
  -5   5  16 974.819 58.7342   4
  -5   5  15 553.557 33.4230   1
   5  -5 -15 874.951 86.5502   3
   5   5 -15 791.864 55.9618   1
  -5   5  15 768.900 53.2227   4
  -5  -5  15 871.393 107.638   4
  -5   5  14 4502.16 108.737   1
  -5   5  14 4950.01 121.226   4
   5  -5 -14 5247.75 184.667   3
  -5  -5  14 5420.35 221.976   4
   5   5 -14 5585.58 146.211   1
   5  -5 -13 2189.89 115.722   3
  -5  -5  13 2092.29 140.369   4
  -5   5  13 2060.44 80.9187   1
   5   5 -13 2271.89 97.8715   1
  -5   5  13 2093.61 79.9010   4
   5  -5 -12 2029.32 102.572   3
   5   5 -12 2038.36 94.3891   1
  -5   5  12 1991.46 74.6160   4
  -5  -5  12 2007.20 130.283   4
  -5   5  12 1976.28 83.1236   1
   5   5 -11 127.776 41.8485   1
  -5  -5  11 65.0160 56.4267   4
   5  -5 -11 99.9830 35.4358   3
   5  -5 -10 7601.05 165.796   3
   5   5 -10 7707.29 179.800   1
  -5   5  10 7369.42 170.597   2
  -5  -5  10 7456.06 226.387   4
   5  -5  -9 3608.50 104.875   3
   5   5  -9 3547.35 123.158   1
  -5   5   9 3540.65 120.664   2
  -5  -5   9 3478.98 152.010   4
  -5   5   8 9956.11 201.874   2
   5  -5  -8 10227.9 154.837   3
   5   5  -8 10334.7 206.897   1
   5   5  -7 19931.1 286.149   1
  -5   5   7 19440.5 281.662   2
  -5   5   6 1779.68 104.691   2
   5   5  -6 652.343 65.0826   1
  -5   5   5 102.725 40.5148   2
   5   5  -5 129.543 44.8962   1
   5   5  -4 1394.54 82.8271   1
  -5   5   4 1445.42 85.1682   2
  -5   5   3 635.688 55.5472   4
   5   5  -3 687.230 67.0496   1
  -5   5   3 650.916 64.5661   2
   5  -5  -2 3811.53 128.684   2
   5   5  -2 3880.19 132.612   1
  -5   5   2 3810.33 121.704   4
  -5   5   2 3880.15 131.839   2
  -5   5   1 3548.92 124.347   4
   5   5  -1 3516.61 125.220   1
  -5   5   1 3548.50 126.808   2
   5   5   0 1757.82 92.4763   1
  -5   5   0 1893.69 94.8083   2
  -5   5   0 1759.98 96.6563   4
  -5   5  -1 1387.89 83.7362   2
   5   5   1 1351.02 84.2148   1
   5  -5   1 1268.63 88.2009   4
  -5   5  -1 1229.86 83.7109   4
   5   5   2 4369.17 139.136   1
   5   5   2 4574.13 152.688   3
  -5   5  -2 4482.66 158.571   4
  -5   5  -2 4573.55 146.571   2
   5  -5   2 4334.94 151.159   4
   5   5   3 13308.8 266.526   3
  -5   5  -3 13754.0 279.394   4
  -5   5  -3 13676.4 248.094   2
   5  -5   3 13020.4 268.808   4
   5   5   3 13296.4 234.586   1
   5   5   4 6757.61 199.009   3
  -5   5  -4 6576.68 175.001   2
   5   5   4 6531.26 166.419   1
   5  -5   4 6348.41 200.045   4
  -5   5  -4 6959.62 207.837   4
   5  -5   5 1888.43 118.382   4
   5   5   5 1826.57 115.341   3
  -5   5  -5 1884.48 112.165   4
   5   5   5 1904.64 93.8565   1
  -5   5  -5 1874.82 97.8572   2
  -5  -5  -6 141.438 38.8194   4
   5   5   6 153.367 54.8439   3
   5  -5   6 128.411 59.5791   4
  -5   5  -6 53.5644 38.5568   4
   5   5   6 106.807 35.5600   1
  -5   5  -6 152.083 45.9254   2
   5   5   7 6194.51 221.394   3
   5  -5   7 6272.77 219.032   4
  -5  -5  -7 6435.49 161.931   4
  -5   5  -7 6406.83 221.205   4
  -5   5  -7 6430.28 176.571   2
   5   5   7 6375.60 164.188   1
  -5  -5  -8 2094.55 99.7016   4
   5   5   8 2090.00 96.2968   1
  -5   5  -8 1985.39 130.900   4
   5  -5   8 1970.24 135.667   4
  -5   5  -8 2103.89 103.863   2
  -5  -5  -9 749.808 66.7956   4
   5   5   9 869.874 62.9391   1
   5  -5   9 579.134 87.3682   4
  -5   5 -10 6490.76 169.682   1
   5  -5  10 6569.46 246.519   4
   5   5  10 6847.79 151.987   1
  -5  -5 -10 6763.83 183.549   4
  -5   5 -11 3360.78 204.229   3
  -5  -5 -11 3177.20 192.914   3
  -5  -5 -11 3346.74 132.274   4
  -5   5 -11 3529.78 123.233   1
   5  -5  11 3103.62 177.603   4
   5   5  11 3260.78 103.539   2
  -5   5 -12 1008.65 126.263   3
  -5  -5 -12 956.676 121.956   3
   5   5  12 867.748 46.1667   2
   5  -5  12 1173.26 126.953   4
  -5  -5 -12 1079.77 82.9997   4
  -5  -5 -13 2463.30 191.301   3
  -5   5 -13 2282.85 188.607   3
   5  -5  13 2279.98 166.673   4
  -5  -5 -14 1586.19 160.957   3
  -5   5 -14 1651.05 167.037   3
   5  -5  14 1558.68 148.869   4
  -5   5 -15-8.14687 83.4567   3
   5  -7 -19 483.208 92.0346   3
  -5  -7  19 480.784 113.334   4
   5  -7 -18-17.8203 54.1637   3
  -5  -7  18 8.53891 75.6333   4
   5  -7 -17 703.540 91.7081   3
  -5  -7  17 650.515 112.971   4
  -5  -7  16 254.147 93.9650   4
   5  -7 -16 122.277 57.1454   3
   5   7 -16 9.58150 35.3556   1
  -5   7  15 218.990 34.6709   1
   5  -7 -15 304.663 61.6927   3
  -5  -7  15 221.590 72.7801   4
  -5   7  14 832.698 61.1679   1
   5  -7 -14 1114.67 93.8627   3
   5   7 -14 1196.38 85.7672   1
  -5  -7  14 1157.07 125.286   4
   5   7 -13 3564.67 138.591   1
  -5  -7  13 3618.79 187.956   4
   5   7 -12 1615.07 97.2054   1
  -5   7  12 1480.75 85.4757   2
  -5   7  12 942.381 35.8909   4
  -5  -7  12 1584.47 131.697   4
   5   7 -11 1519.16 94.9368   1
  -5   7  11 1388.20 88.1708   2
  -5  -7  11 1407.20 120.714   4
  -5   7  11 1107.02 44.0406   4
  -5   7  10 1945.07 59.1130   4
   5   7 -10 2377.00 114.052   1
  -5   7  10 2190.59 107.242   2
  -5  -7  10 2411.64 143.816   4
   5   7  -9 135.868 46.7442   1
  -5   7   9 49.9644 33.2673   2
  -5   7   9 50.0096 19.8963   4
  -5  -7   9 114.545 62.6766   4
  -5   7   8 55.4406 24.8120   4
  -5  -7   8 29.9582 53.6380   4
   5   7  -8 46.4902 41.3540   1
  -5   7   8 46.8904 35.1624   2
  -5  -7   7 7897.33 225.253   4
  -5   7   7 7749.35 140.974   4
  -5   7   7 7694.21 196.373   2
  -5   7   6 4136.87 81.8299   3
  -5   7   6 4838.55 158.365   2
  -5   7   6 4802.15 118.958   4
  -5   7   5 10666.7 232.008   2
  -5   7   5 10490.0 184.727   4
  -5   7   4 17848.7 254.038   4
  -5   7   4 17896.4 300.189   2
  -5   7   3 671.341 69.6397   2
  -5   7   3 673.514 61.2732   4
  -5   7   2 14686.8 253.350   4
  -5   7   2 14882.8 276.502   2
   5  -7  -1 7145.80 183.251   4
  -5   7   1 7272.13 187.808   4
  -5   7   1 7044.84 190.689   2
   5   7   0 9733.74 222.959   1
   5  -7   0 9886.07 221.793   4
  -5   7   0 9837.16 225.718   4
  -5   7   0 9769.23 227.312   2
   5  -7   1 2977.07 133.300   4
   5   7   1 2900.55 127.385   1
  -5   7  -1 2742.00 128.333   4
  -5   7  -1 2764.31 124.954   2
   5  -7   2 2299.78 122.395   4
  -5   7  -2 2245.17 123.068   4
   5   7   2 2402.55 118.413   1
  -5   7  -2 2408.16 117.354   2
  -5   7  -3 635.284 69.2336   2
   5  -7   3 565.109 77.5320   4
   5   7   3 560.725 71.1496   3
   5   7   3 459.336 61.9235   1
  -5   7  -3 596.357 78.7821   4
   5  -7   4 918.378 93.2604   4
   5   7   4 925.413 85.0693   3
   5   7   4 940.657 77.8629   1
  -5   7  -4 953.908 93.2250   4
  -5   7  -4 1014.83 80.9100   2
   5   7   5 828.806 72.8566   1
   5  -7   5 900.499 97.3082   4
  -5   7  -5 852.126 74.1896   2
  -5   7  -5 908.968 91.7765   4
   5   7   5 881.281 86.2295   3
   5   7   6 44.7792 35.1755   1
   5   7   6 35.5388 49.7329   3
   5  -7   6 31.4461 55.0202   4
  -5   7  -6 48.3803 50.6916   4
  -5   7  -6 57.2204 33.1871   2
   5   7   7 5855.89 220.517   3
  -5  -7  -7 5994.97 143.198   4
   5  -7   7 5676.28 221.162   4
   5   7   7 5662.28 170.980   1
  -5   7  -7 5835.49 184.206   2
  -5   7  -7 5860.21 225.217   4
   5  -7   8 471.536 84.7414   4
  -5   7  -8 496.448 69.7197   2
  -5  -7  -8 404.969 46.4244   4
   5   7   8 387.722 54.0347   1
   5  -7   9 65.3438 63.3848   4
  -5  -7  -9 117.383 39.8720   4
  -5   7  -9 93.4117 46.1794   2
   5   7   9 103.234 43.9665   1
   5   7  10 2000.39 100.485   1
   5  -7  10 1922.42 147.032   4
  -5   7 -10 2033.78 114.199   2
  -5  -7 -10 2188.78 94.2553   4
   5  -7  11 3311.38 197.390   4
   5   7  11 3236.29 116.585   1
  -5  -7 -11 3254.83 110.924   4
   5  -7  12-28.5773 71.3397   4
  -5   7 -13 5734.58 293.728   3
   5  -7  13 5888.23 271.391   4
  -5   7 -14 142.941 86.7553   3
   5  -7  14 105.030 85.9251   4
  -5   7 -15 240.804 110.165   3
   5  -7  15 291.513 90.6565   4
  -5  -9  18 1121.58 147.565   4
  -5  -9  17 247.848 95.2097   4
   5   9 -16 285.639 57.9487   1
  -5  -9  16 221.082 87.3211   4
  -5  -9  15 666.784 113.878   4
   5   9 -15 659.328 77.6390   1
   5   9 -14 530.420 78.6068   1
  -5   9  14 184.580 43.3080   2
  -5  -9  14 239.803 85.8842   4
  -5   9  13-24.0167 39.1293   2
  -5  -9  13 96.0111 70.2285   4
   5   9 -13 87.6396 48.8892   1
   5   9 -12 1227.39 96.0750   1
  -5   9  12 1178.22 90.8223   2
  -5  -9  12 1321.56 122.837   4
   5   9 -11 1910.24 117.066   1
  -5   9  11 1718.26 107.176   2
  -5  -9  11 2183.90 152.779   4
  -5   9  10 8921.58 231.121   2
  -5  -9  10 9644.66 288.675   4
  -5   9   9 1050.02 47.3165   4
  -5   9   9 1153.08 89.9517   2
  -5  -9   9 1160.70 108.534   4
  -5   9   8 177.586 34.3804   3
  -5   9   8 227.751 33.3260   4
  -5   9   8 231.673 54.4921   2
  -5  -9   8 176.507 67.6899   4
  -5   9   7 3814.57 101.561   3
  -5  -9   7 3911.30 176.107   4
  -5   9   7 3956.63 109.706   4
  -5   9   7 3901.76 155.812   2
  -5  -9   6 378.470 70.7037   4
  -5   9   6 357.860 42.4750   4
  -5   9   6 372.082 61.9659   2
  -5   9   6 376.713 36.4446   3
  -5  -9   5 2104.40 125.578   4
  -5   9   5 2127.31 120.390   2
  -5   9   5 2068.99 92.7063   4
  -5   9   4 5913.79 160.952   4
  -5   9   4 6175.17 196.031   2
  -5   9   3 80.0583 46.8773   2
  -5   9   3 43.3527 38.8369   4
  -5   9   2 10121.6 229.482   4
   5  -9  -2 10043.4 222.918   4
  -5   9   2 10182.8 250.403   2
  -5   9   1 5603.07 186.702   2
   5  -9  -1 5487.84 175.668   4
  -5   9   1 5423.12 178.271   4
  -5   9   0 414.101 66.9063   4
   5  -9   0 343.402 62.6492   4
  -5   9   0 355.847 60.2492   2
   5  -9   1 162.172 56.9077   4
  -5   9  -1 61.3884 44.3650   2
  -5   9  -1 90.7887 45.7515   4
   5  -9   2 1525.89 110.429   4
  -5   9  -2 1629.08 114.812   4
  -5   9  -2 1447.98 102.125   2
  -5   9  -3 183.743 56.3139   4
   5  -9   3 234.684 62.3325   4
   5   9   3 232.081 55.1552   1
  -5   9  -3 296.358 60.0358   2
   5   9   4 1070.23 87.2140   1
   5   9   4 1104.62 96.7039   3
  -5   9  -4 1151.19 105.225   4
  -5   9  -4 1010.90 88.6883   2
   5  -9   4 911.173 98.9046   4
  -5   9  -5 10913.7 307.476   4
   5  -9   5 11032.9 302.639   4
  -5   9  -5 10899.3 270.085   2
   5   9   5 11121.0 291.653   3
   5   9   5 10774.4 257.552   1
   5   9   6 2390.43 125.424   1
   5  -9   6 2407.08 153.350   4
  -5   9  -6 2392.54 128.606   2
  -5   9  -7 9864.59 260.374   2
   5   9   7 9938.22 247.666   1
   5  -9   7 10038.1 310.211   4
   5   9   8 2669.92 131.920   1
  -5  -9  -8 2766.86 92.8115   4
   5  -9   8 2622.22 168.844   4
  -5   9  -8 2633.76 139.759   2
  -5   9  -9 127.518 55.1399   2
   5   9   9 80.4986 42.1513   1
   5  -9   9-0.95745 64.2162   4
  -5  -9  -9 88.5207 30.1032   4
   5  -9  10 2115.50 161.171   4
  -5  -9 -10 1919.48 74.5941   4
   5   9  10 2124.99 114.828   1
  -5   9 -10 2024.22 128.119   2
   5  -9  11 725.659 113.234   4
  -5   9 -11 765.929 86.5221   2
   5   9  11 826.163 77.4123   1
   5  -9  12 181.389 89.3112   4
   5  -9  13 659.065 119.578   4
   5  -9  14 632.624 124.913   4
  -5 -11  17 945.406 147.709   4
   5  11 -16 68.7044 53.7697   1
  -5 -11  16 213.895 90.9844   4
   5  11 -15 269.060 68.0120   1
  -5 -11  15 230.355 95.0834   4
  -5 -11  14 136.444 82.7440   4
   5  11 -14 198.859 62.7765   1
   5  11 -13 306.719 69.8330   1
  -5 -11  13 351.269 99.3315   4
  -5  11  13 345.249 65.9937   2
   5  11 -12 2275.48 140.037   1
  -5  11  12 2017.93 127.326   2
  -5 -11  12 2368.89 174.822   4
  -5  11  11 920.038 90.6648   2
  -5 -11  11 1151.69 125.168   4
  -5  11  10 77.3964 48.4780   2
  -5 -11  10 15.6353 65.2427   4
  -5  11   9 3395.19 120.156   3
  -5  11   9 2816.52 81.2505   4
  -5  11   9 3388.76 159.227   2
  -5 -11   9 3620.09 187.383   4
  -5  11   8 1466.89 78.4539   3
  -5  11   8 1290.51 63.6740   4
  -5  11   8 1495.97 111.212   2
  -5 -11   8 1367.23 121.227   4
  -5  11   7 1294.60 104.950   2
  -5  11   7 1276.51 70.2968   3
  -5  11   7 1195.25 69.9682   4
  -5 -11   7 1281.86 114.929   4
  -5  11   6 4097.56 131.079   4
  -5 -11   6 4216.47 185.801   4
  -5  11   6 4326.16 179.874   2
  -5  11   5 4789.35 150.266   4
  -5 -11   5 4968.07 194.458   4
  -5  11   5 4742.55 187.026   2
  -5  11   4 7188.17 190.728   4
  -5  11   4 7221.89 227.984   2
  -5 -11   4 7333.03 228.853   4
  -5 -11   3 81.2601 51.5736   4
  -5  11   3 190.799 52.2367   2
   5 -11  -3 58.0292 40.2578   4
  -5  11   3 42.6249 37.7664   4
   5 -11  -2 2469.50 125.460   4
  -5  11   2 2361.24 124.247   4
  -5 -11   2 2500.29 129.602   4
  -5  11   2 2646.03 144.488   2
  -5  11   1 7389.28 219.619   4
   5 -11  -1 7429.98 215.730   4
  -5  11   1 7403.48 234.796   2
   5 -11   0 1382.08 104.513   4
  -5  11   0 1354.36 103.641   4
  -5  11   0 1507.75 110.995   2
  -5  11  -1 163.499 55.8555   2
  -5  11  -1 217.246 58.1826   4
   5 -11   1 219.277 59.9061   4
   5 -11   2 6040.89 220.028   4
  -5  11  -2 6239.06 223.654   4
  -5  11  -2 6131.94 215.966   2
   5 -11   3 5582.68 218.967   4
  -5  11  -3 5938.87 214.923   2
  -5  11  -3 6059.15 226.477   4
   5 -11   4 4488.94 204.829   4
  -5  11  -4 4471.43 189.932   2
  -5  11  -5 4650.93 194.158   2
   5  11   5 4295.83 181.925   1
   5 -11   5 4635.51 214.414   4
  -5  11  -6 210.509 59.3830   2
   5 -11   6 210.948 77.3209   4
   5  11   6 190.747 58.5117   1
   5  11   7 2873.42 149.924   1
   5 -11   7 3113.35 189.930   4
  -5  11  -7 3123.71 162.673   2
  -5  11  -8 53.8248 47.2249   2
   5 -11   8-17.8419 75.5895   4
   5  11   8 133.269 54.8374   1
  -5 -11  -8 55.7588 24.6734   4
   5 -11   9 3.92547 69.3909   4
   5  11   9 21.9556 43.5091   1
  -5  11  -9-42.3986 48.2386   2
   5  11  10 83.3875 51.6954   1
   5 -11  10 114.014 81.6505   4
  -5  11 -10 67.2662 53.2896   2
   5 -11  11 588.909 110.619   4
   5  11  11 710.850 81.4015   1
   5 -11  12 1194.19 144.877   4
   5 -11  13 669.223 128.414   4
  -5 -13  16 401.785 107.637   4
   5  13 -16 407.650 81.0174   1
   5  13 -15 1984.20 143.616   1
  -5 -13  15 2244.63 196.650   4
  -5 -13  14 109.866 87.0406   4
   5  13 -14 32.3302 57.3904   1
  -5 -13  13 1946.64 172.802   4
  -5 -13  12 454.976 108.331   4
  -5  13  12 422.616 78.8951   2
  -5 -13  11 1603.61 148.586   4
  -5  13  10 2500.90 121.587   3
  -5 -13  10 2325.80 167.879   4
  -5  13   9 593.274 64.7763   3
  -5  13   9 613.000 45.3928   4
  -5 -13   9 643.088 101.981   4
  -5  13   8 99.0950 33.3215   4
  -5  13   8 129.340 42.5408   3
  -5 -13   8 82.9381 63.7949   4
  -5 -13   7 133.758 67.7368   4
  -5  13   7 140.252 38.8616   4
  -5 -13   6 986.258 108.138   4
  -5  13   6 1101.33 79.2001   4
  -5  13   5 338.258 55.1998   4
  -5 -13   5 365.145 79.3478   4
  -5  13   4 7307.53 209.932   4
  -5 -13   4 7619.79 246.125   4
  -5 -13   3 1206.24 104.653   4
  -5  13   3 1258.09 96.7323   4
   5 -13  -3 1255.16 96.5246   4
   5 -13  -2 1858.34 118.419   4
  -5 -13   2 1937.86 125.070   4
  -5  13   2 1875.01 120.245   4
  -5  13   1 1651.78 117.477   4
  -5 -13   1 1671.80 114.716   4
   5 -13  -1 1712.35 116.745   4
   5 -13   0 5049.15 200.769   4
  -5  13   0 5076.31 207.349   4
  -5 -13   0 5179.85 183.171   4
  -5 -13  -1 756.696 80.4080   4
   5 -13   1 757.175 97.2969   4
  -5  13  -1 672.884 91.9435   4
   5 -13   2 4806.80 209.808   4
  -5 -13  -2 4806.81 166.740   4
  -5 -13  -3 145.580 45.9931   4
   5 -13   3 208.039 68.5705   4
  -5 -13  -4 880.830 71.8449   4
   5 -13   4 963.803 113.543   4
  -5 -13  -5 2004.57 96.4016   4
   5 -13   5 1899.90 154.664   4
   5  13   6-55.4467 56.6514   1
   5 -13   6-33.7563 68.0435   4
   5  13   7 8.78095 51.1888   1
   5 -13   7 42.8300 73.0448   4
  -5 -13  -7 50.4386 30.7493   4
   5  13   8 137.095 57.2292   1
   5 -13   8 136.812 81.9413   4
   5 -13   9 157.512 88.3224   4
   5  13   9 132.223 60.2926   1
   5  13  10 1896.21 138.053   1
   5 -13  10 1974.60 178.770   4
   5  13  11 61.8556 52.4691   1
   5 -13  11 116.591 90.5510   4
   5 -13  12-9.55929 87.0090   4
   5  15 -15 334.711 90.1136   1
  -5 -15  15 352.481 115.954   4
   5  15 -14 385.229 93.4060   1
  -5 -15  14 461.697 114.055   4
  -5 -15  13 3165.54 223.831   4
  -5 -15  12 120.527 85.7521   4
  -5 -15  11 683.968 118.359   4
  -5  15  10 335.108 64.2411   3
  -5 -15  10 336.512 90.3418   4
  -5  15   9-51.6226 43.6475   3
  -5 -15   9 15.9460 70.4450   4
  -5  15   8 884.063 79.2422   3
  -5  15   8 953.901 70.1765   4
  -5 -15   8 1100.40 125.771   4
  -5 -15   7-2.78598 68.4196   4
  -5  15   7 22.9811 34.9215   4
  -5 -15   6 151.245 72.0704   4
  -5  15   6 121.106 45.1080   4
  -5 -15   5 77.8717 63.5461   4
  -5  15   5 72.3799 45.1587   4
  -5  15   4 2780.99 142.823   4
   5 -15  -4 3264.75 154.318   4
  -5 -15   4 3104.25 177.947   4
   5 -15  -3 672.308 85.2417   4
  -5  15   3 582.957 78.5951   4
  -5 -15   3 627.628 92.2006   4
  -5 -15   2 85.0128 57.5023   4
   5 -15  -2 52.2551 53.0787   4
  -5  15   2-10.7261 48.1110   4
  -5  15   1 4296.87 196.300   4
   5 -15  -1 4449.58 196.651   4
  -5 -15   1 4200.20 185.443   4
   5 -15   0 204.058 68.1341   4
  -5 -15   0 215.345 61.2474   4
   5 -15   1 600.648 94.6016   4
  -5 -15  -1 579.917 76.9024   4
   5 -15   2 4028.23 205.028   4
  -5 -15  -2 4053.43 164.325   4
   5 -15   3-30.5998 66.3649   4
  -5 -15  -3 125.868 56.4857   4
   5 -15   4 2789.97 185.304   4
  -5 -15  -4 2362.48 116.233   4
   5 -15   5 1792.97 160.329   4
  -5 -15  -5 1927.47 102.873   4
   5 -15   6 3364.61 210.715   4
  -5 -15  -6 2940.18 109.364   4
   5  15   7 2486.62 166.739   1
   5 -15   7 2472.70 192.205   4
   5 -15   8 550.150 114.691   4
   5  15   8 381.659 84.4463   1
   5  15   9 51.9957 59.3172   1
   5 -15   9 68.2612 85.9970   4
   5  15  10 117.642 58.7579   1
   5 -15  10 191.483 97.8058   4
   5 -15  11 219.561 92.6853   4
  -5 -17  13 1149.95 157.332   4
  -5 -17  12 1645.55 173.100   4
  -5 -17  11 850.225 136.803   4
  -5 -17  10 1550.48 158.947   4
  -5 -17   9 56.1773 76.9726   4
  -5 -17   8 172.891 80.6409   4
  -5 -17   7 1797.95 161.027   4
  -5 -17   6 2526.65 183.914   4
  -5  17   6 2528.30 133.344   4
  -5 -17   5 66.5894 66.6465   4
  -5  17   5-7.52850 48.1857   4
   5 -17  -4 513.575 80.8013   4
  -5 -17   4 570.250 101.718   4
  -5  17   4 429.315 74.2867   4
   5 -17  -3-56.8208 62.2315   4
  -5 -17   3 18.7606 63.0224   4
  -5  17   3 42.4714 54.5296   4
   5 -17  -2 123.511 63.0557   4
  -5 -17   2 62.1717 63.0993   4
  -5 -17   1 151.835 63.8024   4
   5 -17  -1 75.2262 63.5038   4
   5 -17   0 2467.70 164.842   4
  -5 -17   0 2400.79 150.086   4
   5 -17   1 144.660 69.6278   4
  -5 -17  -1 137.433 59.3523   4
   5 -17   2 3421.98 205.204   4
  -5 -17  -2 3465.21 164.707   4
   5 -17   3 4.95428 72.6651   4
  -5 -17  -3 48.5954 50.4134   4
   5 -17   4 452.153 97.3848   4
  -5 -17  -4 512.452 69.2846   4
   5 -17   5 280.660 94.7841   4
  -5 -17  -5 277.417 57.7135   4
   5 -17   6 117.563 92.6160   4
   5 -17   7 380.542 107.997   4
   5  17   8 402.769 97.2139   1
   5 -17   8 306.516 101.660   4
   5 -17   9 28.9721 96.7060   4
   5  17   9 90.2686 72.0863   1
  -5 -19  11 1386.15 175.537   4
  -5 -19  10 291.527 107.036   4
  -5 -19   9-42.1149 83.3907   4
  -5 -19   8 5.73513 82.6330   4
  -5 -19   7 107.592 84.8578   4
  -5 -19   6 805.346 130.036   4
  -5 -19   5 124.652 81.5484   4
  -5 -19   4 2368.56 184.780   4
   5 -19  -3 321.436 76.7061   4
  -5 -19   3 183.241 76.9066   4
   5 -19  -2 114.729 71.4807   4
  -5 -19   2 87.3963 70.5936   4
   5 -19  -1 1314.69 137.805   4
  -5 -19   1 1239.27 127.229   4
   5 -19   0 271.422 92.9751   4
  -5 -19   0 134.259 70.4658   4
   5 -19   1 116.192 81.9602   4
  -5 -19  -1 202.065 72.4233   4
   5 -19   2 33.1876 73.8732   4
  -5 -19  -2 185.946 60.4077   4
  -5 -19  -3-57.8221 52.8913   4
   5 -19   3-6.09841 74.6193   4
   5 -19   4 788.063 147.728   4
   5 -19   5 197.836 102.658   4
   5 -19   6 194.350 99.5017   4
   5 -19   7 77.4880 84.5335   4
  -5 -21   7 1263.64 163.942   4
  -5 -21   6 53.9457 89.3585   4
  -5 -21   5 636.325 120.753   4
  -5 -21   4 701.395 121.717   4
   5 -21  -3 89.4578 77.4874   4
  -5 -21   3 151.152 82.9902   4
  -5 -21   2 1228.78 134.966   4
   5 -21  -2 1385.35 139.395   4
   5 -21  -1 95.9196 80.8163   4
  -5 -21   1 87.2536 74.8493   4
   5 -21   0 124.327 90.5653   4
  -5 -21   0-66.2160 66.3326   4
   5 -21   1 34.4722 75.3619   4
  -5 -21  -1 102.950 63.6011   4
   5 -21   2 669.964 139.094   4
   5 -21   3 59.9171 84.8654   4
   6   0 -20 2857.53 201.539   3
   6   0 -19-125.153 73.4376   3
  -6   0  19 102.973 65.3319   4
  -6   0  18 1792.40 131.006   4
  -6   0  17 82.2956 59.7241   4
  -6   0  16 2229.53 136.130   4
  -6   0  15 73.5884 53.7005   4
  -6   0  14 10129.8 257.811   4
   6   0 -14 10643.4 162.132   2
  -6   0  13 19.4192 43.5605   4
   6   0 -13-18.6816 26.2349   2
  -6   0  12 3950.45 112.133   1
   6   0 -12 4149.36 117.362   2
  -6   0  12 3562.56 145.008   4
   6   0 -11-10.9986 30.3730   2
  -6   0  11 36.0479 27.6292   1
  -6   0  10 257.059 38.0585   1
   6   0 -10 258.995 41.9220   2
  -6   0   9-2.35598 27.2657   1
  -6   0   8 15877.1 231.186   1
   6   0  -7-31.5558 33.1600   1
  -6   0   7-40.5110 34.3895   1
  -6   0   6 15618.5 231.146   1
   6   0  -6 15799.3 228.153   1
  -6   0   5-92.3187 41.4213   1
   6   0  -5-8.71157 34.8276   1
  -6   0   4 53609.3 424.499   1
   6   0  -4 53111.4 418.237   1
  -6   0   3-38.0255 41.8710   1
   6   0  -3-11.2389 38.1927   1
  -6   0   2 7033.23 158.202   1
   6   0  -2 7039.60 155.950   1
   6   0  -1 34.7444 38.3434   1
   6   0  -1 69.3187 36.0445   3
  -6   0   1 77.9566 41.6915   1
  -6   0   0 11626.7 203.166   1
   6   0   0 11876.7 200.595   3
   6   0   0 11634.5 202.648   1
  -6   0  -1 20.5959 34.3062   1
   6   0   1 20.1335 35.3946   3
  -6   0  -1-28.4631 41.5549   3
   6   0   2 1188.81 77.5684   3
  -6   0  -2 1386.89 86.1156   3
  -6   0  -2 1247.56 72.0393   1
  -6   0  -3 39.1145 35.9611   1
  -6   0  -3 12.6008 35.6543   4
  -6   0  -3 27.2902 43.3039   3
   6   0   3 22.4554 35.8944   2
  -6   0  -4 25472.1 376.951   3
  -6   0  -4 25537.7 347.987   4
   6   0   4 25769.3 311.946   2
  -6   0  -4 25213.2 305.778   1
  -6   0  -5 56.9528 41.5316   4
  -6   0  -5 19.1372 44.5116   3
  -6   0  -5-2.14817 27.6895   1
   6   0   5 49.3063 34.9783   2
  -6   0  -6 27520.4 433.940   3
  -6   0  -6 28175.9 398.270   4
   6   0   6 28032.4 329.380   2
  -6   0  -6 27744.5 323.267   1
  -6   0  -7-0.52927 27.3920   1
  -6   0  -7-22.6568 48.9039   3
   6   0   7-18.7318 32.5846   2
  -6   0  -7 6.86508 40.8202   4
  -6   0  -8 2853.43 161.038   3
  -6   0  -8 2840.50 103.544   1
   6   0   8 3068.71 108.057   2
  -6   0  -8 3051.68 145.412   4
   6   0   9 68.1406 36.0433   2
  -6   0  -9 65.5099 58.3930   3
  -6   0  -9 3.77506 27.2595   1
  -6   0  -9 2.65895 46.7429   4
  -6   0 -10 2800.78 177.024   3
  -6   0 -10 2763.73 94.4734   1
  -6   0 -10 2887.41 155.457   4
  -6   0 -11 17.3584 65.5328   3
  -6   0 -11 68.0352 56.2055   4
  -6   0 -12 6883.16 289.433   3
  -6   0 -13 72.1761 76.9230   3
  -6   0 -14 3158.27 253.972   3
  -6   0 -15-7.70996 81.4331   3
   6  -2 -20 63.3363 72.4320   3
  -6  -2  20 303.199 86.2617   4
   6  -2 -19 12.3504 60.6224   3
  -6  -2  19 183.114 77.8537   4
   6  -2 -18 23.7254 56.9001   3
  -6   2  18-34.7980 50.2499   4
  -6  -2  18 103.757 67.0447   4
   6  -2 -17 2924.61 170.221   3
  -6   2  17 2823.81 139.967   4
  -6  -2  17 2753.77 163.366   4
  -6   2  16 149.338 51.3535   4
   6  -2 -16 215.826 65.7510   3
   6   2 -16 168.366 22.2413   2
  -6  -2  16 174.923 64.7772   4
   6  -2 -15 2265.31 138.645   3
  -6   2  15 2084.56 116.524   4
  -6  -2  15 2017.66 135.631   4
   6   2 -15 2064.83 76.9579   2
   6   2 -14 1070.96 62.6672   2
  -6   2  14 864.114 50.3538   1
  -6   2  14 1002.61 81.7974   4
  -6  -2  14 910.718 96.6369   4
  -6   2  13 323.274 38.1964   1
  -6  -2  13 315.393 67.4881   4
  -6   2  13 303.120 52.1614   4
  -6  -2  12 101.956 52.8816   4
   6  -2 -12 83.6494 31.1262   2
  -6   2  12 37.4673 27.4162   1
   6   2 -12 60.4193 32.7818   1
   6   2 -11 7997.60 167.546   1
  -6   2  11 7853.35 160.708   1
   6  -2 -11 7563.58 158.635   2
  -6   2  10 124.591 35.0746   1
   6   2 -10 150.105 35.9142   1
   6  -2 -10 138.825 38.1842   2
   6   2  -9 2387.90 98.6139   1
  -6   2   9 2353.27 94.5060   1
  -6  -2   9 2341.54 96.6108   1
   6  -2  -9 2342.03 93.8398   2
  -6   2   8 465.286 47.9163   1
  -6  -2   8 430.432 48.1964   1
   6  -2  -8 514.879 55.9103   2
   6   2  -8 454.921 51.2713   1
  -6  -2   7 2486.62 102.263   1
   6  -2  -7 2347.47 99.2616   2
  -6   2   7 2265.71 94.3052   1
   6   2  -7 2243.29 96.4916   1
   6   2  -6 912.419 66.4493   1
  -6  -2   6 938.612 68.5950   1
   6  -2  -6 887.933 66.1587   2
  -6   2   6 874.483 63.5922   1
  -6   2   5 5016.26 137.744   1
  -6  -2   5 5279.27 141.530   1
   6  -2  -5 5002.53 140.613   2
   6   2  -5 4906.55 140.219   1
  -6  -2   4 319.347 49.1184   1
   6   2  -4 286.067 48.1541   1
  -6   2   4 349.920 52.1647   1
   6  -2  -4 261.446 49.0344   2
   6  -2  -3 47000.0 251.066   3
  -6  -2   3 51401.3 424.736   1
   6  -2  -3 49919.8 430.465   2
   6   2  -3 50085.7 426.496   1
  -6   2   3 50125.6 425.311   1
   6  -2  -2 9703.29 134.166   3
   6   2  -2 10114.5 193.968   1
   6  -2  -2 10138.3 196.609   2
  -6  -2   2 10384.2 193.918   1
  -6   2   2 10259.4 195.899   1
   6  -2  -1 1818.41 90.1873   2
   6  -2  -1 1819.61 69.4720   3
   6   2  -1 1927.84 92.4576   1
  -6   2   1 1838.51 74.4648   3
  -6   2   1 1757.79 89.9156   1
  -6  -2   1 1903.28 91.7471   1
   6   2   0 1222.06 76.1308   1
  -6   2   0 1176.51 68.1846   3
  -6   2   0 1153.57 74.8529   1
   6   2   0 1198.33 72.6633   3
  -6  -2   0 1244.57 73.9385   1
   6  -2   0 1199.68 77.2586   2
  -6   2  -1 3922.05 124.299   3
   6   2   1 4053.53 124.760   1
  -6  -2  -1 3691.61 120.352   1
   6   2   1 3869.66 131.254   3
  -6   2  -1 3753.65 123.001   1
  -6   2  -1 3982.87 135.350   4
   6  -2   1 3819.53 127.411   2
  -6  -2  -2 163.032 41.2162   1
  -6   2  -2 230.765 48.0983   3
   6   2   2 151.926 45.5979   3
  -6   2  -2 256.872 48.0812   1
  -6   2  -2 211.929 42.9898   4
   6  -2   2 326.324 54.4421   2
   6   2   2 221.507 47.6630   1
  -6   2  -3 3795.59 122.443   1
  -6   2  -3 3716.86 138.465   3
   6   2   3 4085.33 148.596   3
  -6   2  -3 3885.03 147.985   4
  -6  -2  -3 3873.77 126.530   1
   6  -2   3 3904.83 128.927   2
   6   2   3 3910.56 124.137   1
   6   2   4-14.3939 44.1272   3
  -6   2  -4 56.4781 48.1692   3
  -6  -2  -4 100.946 51.3655   3
  -6  -2  -4 41.2973 33.8733   4
  -6   2  -4 50.8234 42.4931   4
  -6   2  -4-16.8386 33.6044   1
   6   2   4 47.9194 37.2380   1
  -6  -2  -4 39.0545 33.9146   1
   6  -2   4 41.5865 35.4007   2
   6  -2   5 108.010 38.7691   2
   6   2   5 123.477 49.7302   3
  -6   2  -5 174.790 58.4957   3
  -6   2  -5 104.995 30.5383   1
  -6   2  -5 128.410 50.7332   4
   6   2   5 137.248 36.8167   1
  -6  -2  -5 130.783 38.2083   1
  -6  -2  -5 98.9922 38.5309   4
  -6  -2  -5 129.530 50.1189   3
   6  -2   6 22.4194 32.8731   2
  -6   2  -6 59.1077 50.5642   3
  -6   2  -6 75.5941 36.4190   1
  -6  -2  -6 32.8236 38.0044   4
  -6  -2  -6 60.3564 34.9735   1
  -6   2  -6 17.5775 45.6156   4
  -6  -2  -6-11.4665 47.7970   3
  -6   2  -7 4606.45 197.211   3
  -6   2  -7 4747.54 184.703   4
  -6   2  -7 4728.06 140.246   1
  -6  -2  -7 4466.05 132.422   1
  -6  -2  -7 4581.71 196.036   3
  -6  -2  -7 4567.29 161.202   4
   6   2   7 4777.24 138.566   2
   6  -2   7 4600.42 138.669   2
  -6   2  -8 4083.17 194.329   3
  -6   2  -8 4358.58 134.233   1
  -6  -2  -8 4310.72 197.398   3
   6   2   8 4575.02 133.662   2
  -6  -2  -8 4491.67 167.070   4
  -6   2  -8 4562.48 187.270   4
  -6   2  -9 8965.95 290.651   3
  -6  -2  -9 9104.67 294.989   3
  -6   2  -9 9431.66 278.896   4
   6   2   9 9648.33 184.121   2
  -6  -2  -9 9428.30 248.008   4
  -6   2  -9 9572.03 191.795   1
  -6  -2 -10 112.145 51.8942   4
  -6   2 -10 95.7293 59.7883   3
  -6   2 -10 155.184 37.3890   1
  -6  -2 -10 134.087 70.0383   3
  -6   2 -10 250.229 70.1338   4
   6   2  10 159.458 34.2593   2
   6   2  11 12.4496 22.0871   2
  -6   2 -11 31.3030 65.4146   3
  -6  -2 -11 97.1076 72.8052   3
  -6  -2 -11 27.7658 47.0123   4
  -6   2 -11-7.10677 27.3233   1
  -6   2 -12 365.121 94.9105   3
  -6  -2 -12 456.050 99.7831   3
  -6  -2 -12 409.442 71.3743   4
  -6   2 -13 1813.30 171.459   3
  -6  -2 -13 1686.80 160.397   3
  -6   2 -14 134.182 77.5827   3
  -6  -2 -14 238.616 93.9959   3
  -6   2 -15 2002.95 196.654   3
  -6  -2 -15 1893.34 195.831   3
   6  -4 -20 129.693 65.9348   3
  -6  -4  20 283.757 95.2028   4
   6  -4 -19 426.533 91.1403   3
  -6  -4  19 206.933 72.8692   4
   6  -4 -18 477.496 85.7129   3
  -6  -4  18 413.463 96.3595   4
  -6   4  17 718.993 66.0169   4
   6  -4 -17 901.476 97.5911   3
  -6  -4  17 709.572 104.970   4
   6  -4 -16 97.8291 54.2427   3
  -6  -4  16 110.171 64.9515   4
  -6   4  16 95.3416 42.6037   4
   6  -4 -15 603.350 76.5471   3
   6   4 -15 647.660 55.4120   1
  -6   4  15 557.763 59.0561   4
  -6  -4  15 490.147 87.4927   4
  -6   4  15 417.670 37.1508   1
   6  -4 -14 3443.94 146.026   3
   6   4 -14 3766.77 123.531   1
  -6   4  14 3256.63 100.488   1
  -6   4  14 3317.93 119.955   4
  -6  -4  14 3336.54 175.734   4
  -6   4  13 69.6476 31.6481   1
   6  -4 -13 8.12700 35.8863   3
  -6  -4  13 66.8327 57.6674   4
   6   4 -13 14.9777 33.3516   1
  -6   4  13-25.7379 35.9010   4
   6  -4 -12 4885.34 151.272   3
  -6   4  12 4842.26 134.596   1
  -6  -4  12 4765.55 193.000   4
   6   4 -12 4948.27 146.356   1
   6  -4 -11 1981.91 89.5356   3
  -6   4  11 1937.88 87.6039   1
   6   4 -11 2050.49 97.0408   1
  -6  -4  11 1937.42 123.171   4
   6  -4 -10 712.913 52.9825   3
  -6   4  10 641.883 57.6472   1
   6   4 -10 682.379 62.8477   1
   6  -4  -9 1176.35 56.0955   3
   6   4  -9 1341.27 80.4590   1
   6  -4  -9 1319.98 76.8243   2
   6  -4  -8 3511.16 80.4607   3
  -6   4   8 3826.58 129.103   2
   6   4  -8 3756.05 127.980   1
   6  -4  -8 3846.55 126.234   2
   6  -4  -7 2563.42 55.9435   3
   6   4  -7 3650.89 126.195   1
   6  -4  -7 3389.62 119.440   2
  -6   4   7 3368.33 123.341   2
   6   4  -6 17732.1 272.696   1
  -6   4   6 17699.0 273.320   2
   6  -4  -6 17651.4 265.896   2
   6  -4  -5 80.6022 41.3440   2
   6   4  -5 128.204 42.0455   1
  -6   4   5 113.372 42.9597   2
   6   4  -4 1409.19 86.0333   1
  -6   4   4 1435.32 89.0600   2
   6  -4  -4 1547.66 89.4796   2
  -6  -4   3 4851.14 144.706   1
  -6   4   3 3659.83 62.9740   3
   6   4  -3 4582.19 143.342   1
  -6   4   3 4618.84 145.950   2
   6  -4  -3 4572.07 146.041   2
   6  -4  -2 85.8428 50.6426   2
   6   4  -2 11.1789 41.1360   1
  -6   4   2 42.7502 21.7064   3
  -6  -4   2 48.1941 38.0855   1
  -6   4   2 114.224 45.3721   2
  -6   4   1 634.306 47.5081   3
   6  -4  -1 717.316 68.0673   2
   6   4  -1 732.755 66.5233   1
  -6  -4   1 747.960 66.3076   1
  -6   4   1 755.959 68.1152   2
  -6   4   1 742.871 65.7907   4
   6  -4   0 459.049 61.8565   2
  -6   4   0 420.433 48.0974   3
   6   4   0 447.092 60.0232   1
  -6   4   0 461.714 62.9398   4
  -6   4   0 472.821 62.8287   2
  -6  -4   0 426.018 57.7040   1
  -6   4  -1 5630.82 147.639   3
  -6   4  -1 5614.88 170.989   4
  -6  -4  -1 5355.81 154.139   1
   6   4   1 5626.33 156.447   1
  -6   4  -1 5766.28 165.974   2
   6  -4   1 5614.31 158.461   2
   6  -4   2 58.3609 42.6466   2
   6   4   2 58.0580 42.8006   3
   6   4   2 156.979 47.3071   1
  -6   4  -2 71.7739 47.5739   4
  -6   4  -2 96.9602 43.8570   2
  -6   4  -3 2036.58 103.000   2
  -6   4  -3 1985.82 113.092   4
   6   4   3 2033.70 111.648   3
   6   4   3 1905.34 96.6518   1
   6  -4   3 1866.43 99.9040   2
  -6   4  -4 964.516 78.5855   3
  -6   4  -4 925.120 77.2020   4
  -6   4  -4 1012.90 74.1901   2
   6   4   4 1078.32 87.6747   3
   6   4   4 1105.39 73.7725   1
   6  -4   4 870.648 68.9512   2
   6   4   5 1463.55 85.9895   1
   6   4   5 1473.32 105.219   3
  -6   4  -5 1517.63 88.0740   2
  -6   4  -5 1515.50 106.278   4
  -6   4  -5 1398.36 102.240   3
   6   4   6 8027.10 250.793   3
  -6   4  -6 8657.11 253.280   4
   6   4   6 8131.14 189.174   1
  -6   4  -6 8100.85 245.417   3
  -6  -4  -6 8096.69 193.962   4
  -6   4  -7 3218.07 171.467   3
  -6   4  -7 3479.97 129.179   1
   6   4   7 3565.27 177.075   3
  -6  -4  -7 3481.77 135.865   4
  -6   4  -7 3693.85 175.972   4
   6   4   7 3593.43 125.072   1
  -6   4  -8 3026.75 172.426   3
  -6  -4  -8 3229.91 137.341   4
  -6  -4  -8 2888.62 169.892   3
   6   4   8 3173.83 116.115   1
  -6   4  -8 3141.23 167.015   4
  -6   4  -8 3054.54 123.697   1
  -6   4  -9 579.137 90.2287   3
  -6   4  -9 706.582 62.8234   1
  -6  -4  -9 653.130 96.3166   3
  -6  -4  -9 719.723 74.6133   4
  -6   4 -10-50.2710 73.0368   3
  -6  -4 -10 6.98657 60.2336   3
   6   4  10 10.1114 30.9930   2
  -6   4 -10 21.4540 37.2871   1
  -6  -4 -10 18.9648 47.4499   4
  -6   4 -11 102.512 39.6836   1
  -6   4 -11 50.9342 65.8708   3
  -6  -4 -11 32.5746 67.5433   3
  -6  -4 -11-15.7795 47.6520   4
   6   4  11 6.59288 25.0675   2
  -6   4 -12 4684.65 251.537   3
  -6  -4 -12 4636.35 244.267   3
  -6   4 -13 1077.18 138.770   3
  -6  -4 -13 1185.05 142.914   3
  -6   4 -14 511.092 113.736   3
  -6  -4 -14 791.962 128.990   3
  -6   4 -15 139.218 92.6609   3
  -6  -4 -15 151.504 92.4366   3
  -6  -6  19 161.838 82.8582   4
   6  -6 -19 126.139 65.0870   3
   6  -6 -18-23.7177 54.7626   3
  -6  -6  18 37.1457 71.8834   4
   6  -6 -17 1312.95 112.014   3
  -6  -6  17 1224.56 135.125   4
   6   6 -16-34.1636 39.2182   1
   6  -6 -16 53.4223 48.9236   3
  -6   6  16-72.0417 26.5848   4
  -6  -6  16 34.0718 68.9612   4
   6  -6 -15 5612.67 193.087   3
  -6  -6  15 5356.61 237.956   4
  -6   6  15 4522.95 110.753   4
   6   6 -15 3760.45 133.169   1
  -6   6  15 4724.30 129.399   1
  -6   6  14 266.884 40.9091   1
   6  -6 -14 255.223 52.8347   3
   6   6 -14 280.821 51.5979   1
  -6   6  14 330.299 37.5313   4
  -6  -6  14 258.296 75.3325   4
   6  -6 -13 836.857 70.1232   3
   6   6 -13 885.759 74.0137   1
  -6   6  13 785.855 51.7375   4
  -6  -6  13 867.383 104.442   4
  -6   6  13 825.930 64.8410   1
   6   6 -12 16.7608 39.4547   1
   6  -6 -12 0.88073 33.0282   3
  -6  -6  12 58.4148 63.0328   4
   6   6 -11 5403.33 166.013   1
   6  -6 -11 5615.73 143.554   3
  -6   6  11 5379.51 163.248   2
  -6  -6  11 5399.97 213.743   4
  -6   6  10 1612.03 93.0954   2
   6   6 -10 1772.71 100.347   1
  -6  -6  10 1655.59 122.961   4
   6   6  -9 3678.95 139.854   1
  -6   6   9 3487.68 134.370   2
   6   6  -8 1595.37 96.4662   1
  -6   6   8 1353.04 88.9341   2
   6   6  -7 648.143 72.7710   1
  -6   6   7 580.549 71.1372   2
  -6   6   6 4777.48 157.238   2
   6   6  -6 4772.74 157.900   1
   6   6  -5 36290.6 421.590   1
  -6   6   5 35653.3 358.175   4
  -6   6   5 36009.7 424.288   2
  -6   6   4 484.252 54.9070   4
   6   6  -4 451.946 62.7119   1
  -6   6   4 468.658 65.2508   2
  -6   6   3 11818.4 226.327   4
   6   6  -3 11989.3 244.374   1
  -6   6   3 11736.5 248.395   2
   6   6  -2 1075.63 85.0053   1
  -6   6   2 928.737 77.9028   4
  -6   6   2 953.038 81.4921   2
  -6   6   1 826.044 73.9549   4
  -6   6   1 910.549 81.3137   2
   6   6  -1 837.536 78.2896   1
  -6   6   0 395.883 62.4734   4
   6   6   0 495.874 69.0704   1
  -6   6   0 331.744 60.4118   2
   6   6   1 27215.8 366.774   1
  -6   6  -1 27823.7 397.368   4
  -6   6  -1 27460.6 380.914   2
   6   6   2 5589.02 178.051   1
   6  -6   2 5563.38 187.300   4
  -6   6  -2 5642.08 187.780   4
  -6   6  -2 5550.57 175.579   2
   6   6   3 3607.65 154.015   3
  -6   6  -3 3681.47 160.702   4
  -6   6  -3 3694.82 144.032   2
   6  -6   3 3500.48 154.517   4
   6   6   3 3630.40 138.051   1
   6   6   4 4657.07 178.396   3
  -6   6  -4 4651.22 182.665   4
  -6   6  -4 4981.67 169.223   2
   6  -6   4 4625.03 179.969   4
   6   6   4 4715.65 155.684   1
   6   6   5 11234.5 286.335   3
  -6   6  -5 11023.3 249.483   2
   6   6   5 10683.8 234.521   1
  -6   6  -5 11497.6 297.105   4
   6  -6   5 10790.1 282.502   4
   6   6   6 3259.26 163.017   3
  -6   6  -6 3367.20 141.211   2
  -6   6  -6 3416.19 168.181   4
   6   6   6 3377.36 132.666   1
   6  -6   6 3254.69 165.875   4
   6   6   7 12.1238 37.7489   1
   6  -6   7 64.2866 60.0140   4
  -6  -6  -7 27.5436 34.8307   4
  -6   6  -7 127.614 49.8935   2
   6  -6   8 623.147 92.2224   4
   6   6   8 682.085 66.6031   1
  -6   6  -8 792.045 78.9591   2
  -6  -6  -8 633.925 64.0086   4
   6   6   9 6500.08 176.733   1
   6  -6   9 6150.39 245.337   4
  -6  -6  -9 6401.38 177.902   4
   6  -6  10-62.9629 73.9328   4
  -6   6 -10 102.667 66.0253   3
  -6   6 -10 87.7792 41.1814   1
  -6  -6 -10 30.8194 41.4352   4
   6   6  10 41.0897 34.8972   1
  -6   6 -11 1753.35 153.590   3
   6  -6  11 1746.86 145.711   4
  -6  -6 -11 1875.86 105.395   4
  -6   6 -11 1875.04 105.552   1
   6  -6  12 146.801 81.4928   4
  -6   6 -12 190.516 86.1946   3
  -6   6 -13 2923.73 217.493   3
  -6   6 -14 29.4104 83.3737   3
  -6  -8  19 68.9937 89.0093   4
  -6  -8  18 287.817 95.4972   4
  -6  -8  17 253.965 94.0378   4
   6   8 -16 4005.19 153.209   1
  -6  -8  16 3929.42 226.417   4
   6   8 -15 75.1552 47.5417   1
  -6  -8  15-37.5857 78.0585   4
  -6   8  15 20.5281 32.7232   1
  -6  -8  14 2177.51 161.459   4
   6   8 -14 1340.66 89.8594   1
  -6   8  13 9.74227 9.92988   4
  -6   8  13 6.12784 36.2908   2
  -6   8  13 2.64654 9.54917   4
  -6  -8  13-21.6955 64.2700   4
   6   8 -13-86.7298 48.0670   1
   6   8 -12 13117.0 283.260   1
  -6   8  12 12415.5 269.262   2
  -6  -8  12 12886.8 350.171   4
  -6   8  11 51.9540 19.6643   4
   6   8 -11 25.2343 42.4009   1
  -6   8  11-7.91584 38.6983   2
  -6  -8  11 112.902 66.1906   4
  -6   8  10 3.60280 21.4065   4
   6   8 -10-21.1938 43.2496   1
  -6   8  10 53.1303 41.1178   2
  -6  -8  10 58.0957 61.5184   4
  -6  -8   9 266.573 68.8765   4
   6   8  -9 383.541 66.3995   1
  -6   8   9 250.200 34.5222   4
  -6   8   9 249.187 53.2712   2
   6   8  -8 2053.41 118.142   1
  -6   8   8 2210.09 86.0647   4
  -6  -8   8 2226.81 138.560   4
  -6   8   8 2198.86 121.185   2
   6   8  -7 1747.17 110.294   1
  -6   8   7 1759.66 82.1886   4
  -6   8   7 1680.35 105.998   2
  -6   8   6 989.451 69.3567   4
  -6   8   6 659.959 31.1738   3
   6   8  -6 975.228 85.0929   1
  -6   8   6 1065.71 89.4733   2
  -6   8   5 416.871 64.4689   2
   6   8  -5 390.610 67.2389   1
  -6   8   5 314.010 46.4822   4
   6   8  -4 1030.56 87.3679   1
  -6   8   4 1056.85 75.5731   4
  -6   8   4 1087.19 90.2261   2
   6   8  -3 2036.52 114.719   1
  -6   8   3 1916.42 101.813   4
  -6   8   3 1842.66 112.388   2
   6   8  -2 22376.3 357.787   1
  -6   8   2 23331.9 375.309   2
  -6   8   2 22503.9 345.097   4
  -6   8   1 691.548 77.6765   2
   6   8  -1 698.249 78.6768   1
  -6   8   1 658.814 73.3656   4
   6   8   0 6659.39 200.011   1
  -6   8   0 6810.80 208.405   2
   6  -8   0 6776.56 204.403   4
  -6   8   0 6652.07 204.428   4
  -6   8  -1 244.342 61.4194   2
   6  -8   1 255.080 60.7200   4
   6   8   1 324.247 64.2213   1
  -6   8  -1 241.888 58.7646   4
  -6   8  -2 31.4533 44.5659   2
   6  -8   2 31.1347 50.2500   4
   6   8   2 50.6603 43.9472   1
  -6   8  -2 187.757 59.0929   4
   6   8   3 4133.89 161.311   1
   6  -8   3 4163.83 178.728   4
   6   8   3 4253.32 178.795   3
  -6   8  -3 4202.93 179.230   4
  -6   8  -3 4051.48 164.299   2
   6  -8   4 1024.08 101.203   4
   6   8   4 1100.31 99.9591   3
   6   8   4 1070.04 87.9493   1
  -6   8  -4 1190.47 104.440   4
  -6   8  -4 1056.71 91.5845   2
   6   8   5 14.4591 47.8048   3
   6  -8   5 70.3724 60.3783   4
  -6   8  -5-42.2239 59.4979   4
  -6   8  -5 49.9577 43.6947   2
   6   8   5 28.7780 39.6166   1
   6  -8   6 5122.95 218.139   4
   6   8   6 4891.73 173.584   1
  -6   8  -6 5069.99 184.363   2
   6  -8   7 177.812 71.6689   4
  -6  -8  -7 171.489 40.8888   4
   6   8   7 188.077 50.0217   1
  -6   8  -7 190.356 48.1486   2
  -6  -8  -8 1187.22 75.2191   4
   6  -8   8 1197.46 120.803   4
  -6   8  -8 1122.37 97.6550   2
   6   8   8 1135.03 89.8955   1
   6  -8   9 986.374 115.872   4
  -6  -8  -9 1040.65 73.7940   4
  -6   8  -9 1007.38 91.7719   2
   6   8   9 1018.92 84.9479   1
   6   8  10 6504.66 191.410   1
  -6   8 -10 6296.40 212.580   2
  -6  -8 -10 6613.04 167.359   4
   6  -8  10 6196.44 265.817   4
   6  -8  11-0.06586 69.0842   4
   6   8  11 28.2626 40.1558   1
   6  -8  12 3776.61 223.287   4
  -6   8 -13 251.341 88.8116   3
   6  -8  13 243.024 89.6593   4
  -6   8 -14 534.358 122.928   3
   6  -8  14 549.841 119.771   4
  -6 -10  18 56.7438 83.1714   4
  -6 -10  17 1068.72 142.281   4
   6  10 -16 125.157 54.9577   1
  -6 -10  16 117.575 78.1667   4
  -6 -10  15 680.967 119.882   4
   6  10 -15 669.200 85.5327   1
  -6  10  14 604.850 74.2757   2
   6  10 -14 642.855 83.4186   1
  -6 -10  14 779.301 114.957   4
   6  10 -13 39.3358 53.8814   1
  -6  10  13 124.459 59.3114   2
  -6 -10  13 101.535 79.6926   4
   6  10 -12 428.867 69.4501   1
  -6  10  12 367.391 61.7664   2
  -6 -10  12 426.331 93.6494   4
  -6 -10  11 77.6714 72.1970   4
   6  10 -11 82.1188 57.6748   1
  -6  10  11 16.6218 13.7752   4
  -6  10  11 10.2899 45.2495   2
   6  10 -10 2211.69 133.243   1
  -6  10  10 2057.86 72.2494   4
  -6  10  10 2059.82 126.555   2
  -6 -10  10 2284.34 156.117   4
  -6  10   9 471.687 69.7178   2
  -6  10   9 462.531 44.5795   4
   6  10  -9 299.749 64.2928   1
  -6 -10   9 484.118 85.7675   4
  -6  10   8 4111.84 103.964   3
  -6  10   8 4621.12 128.969   4
  -6  10   8 4538.28 182.532   2
  -6 -10   8 4676.39 202.326   4
  -6 -10   7 107.282 60.3440   4
  -6  10   7 88.9204 47.9493   2
  -6  10   7 106.551 25.7050   3
  -6  10   7 189.085 41.4650   4
  -6 -10   6 37.2529 52.2173   4
  -6  10   6 7.95802 45.5907   2
  -6  10   6 28.0553 32.8477   4
  -6  10   5 876.313 88.2542   2
  -6  10   5 874.338 70.3831   4
  -6  10   4 203.982 57.0484   2
  -6  10   4 295.956 51.9438   4
  -6  10   3 3891.07 152.528   4
  -6  10   3 3920.01 172.787   2
  -6  10   2 824.990 90.8306   2
  -6  10   2 838.698 84.5600   4
   6 -10  -1 211.805 56.5299   4
  -6  10   1 156.539 59.9380   2
  -6  10   1 200.542 57.4633   4
  -6  10   0 251.407 60.5595   2
   6 -10   0 296.293 63.4884   4
  -6  10   0 230.060 57.5185   4
   6  10   1 5775.65 204.164   1
   6 -10   1 6101.12 215.464   4
  -6  10  -1 6440.14 223.613   4
  -6  10  -1 6044.27 210.957   2
  -6  10  -2 28.3120 43.9757   2
   6  10   2 26.7552 46.4467   1
   6 -10   2 4.49546 53.4427   4
  -6  10  -2-3.33667 49.0428   4
  -6  10  -3 10448.8 281.680   2
   6  10   3 9910.75 265.868   1
   6 -10   3 10522.1 294.753   4
  -6  10  -3 10773.1 303.805   4
   6 -10   4 1200.66 112.574   4
   6  10   4 1247.98 102.916   1
  -6  10  -4 1183.30 103.778   2
   6  10   5 3510.48 162.071   1
  -6  10  -5 3690.89 171.987   2
   6 -10   5 3746.61 193.273   4
   6 -10   6 267.606 80.1352   4
   6  10   6 115.361 51.8116   1
  -6  10  -6 176.919 58.4663   2
   6  10   7 692.769 82.9789   1
   6 -10   7 818.212 106.561   4
  -6  10  -7 738.513 85.4200   2
   6  10   8 121.590 49.6525   1
   6 -10   8 186.016 78.7240   4
  -6 -10  -8 179.405 39.5952   4
  -6  10  -8 98.2030 48.1705   2
   6 -10   9 1599.13 157.004   4
  -6  10  -9 1344.60 114.504   2
   6  10   9 1598.25 112.470   1
   6 -10  10 57.3184 72.2795   4
   6  10  10 50.4757 45.0412   1
  -6  10 -10 83.1835 56.7540   2
   6 -10  11 1698.53 165.693   4
   6  10  11 1317.26 101.953   1
   6 -10  12 184.202 94.4867   4
   6 -10  13 96.6874 85.0187   4
  -6 -12  17 446.490 165.870   4
  -6 -12  16 252.810 95.5846   4
   6  12 -16 295.739 71.4317   1
   6  12 -15-12.4729 55.6530   1
  -6 -12  15 7.29093 79.2811   4
   6  12 -14 2144.53 145.854   1
  -6 -12  14 2131.99 175.275   4
   6  12 -13 6.36521 56.0352   1
  -6 -12  13 56.1016 78.7166   4
  -6  12  13 137.018 60.2776   2
   6  12 -12 1002.64 106.810   1
  -6  12  12 864.952 99.4804   2
  -6 -12  12 947.120 122.429   4
  -6  12  11 194.381 63.1527   2
  -6  12  11 115.135 15.2772   4
  -6 -12  11 230.141 83.1831   4
   6  12 -11 175.524 67.6719   1
  -6  12  10-0.73986 50.2478   2
  -6  12  10 1.08413 21.1298   4
  -6 -12  10 56.3444 68.1410   4
  -6  12   9 34.0128 57.2458   2
  -6  12   9 91.6626 34.5093   3
  -6  12   9 59.0080 28.8295   4
  -6 -12   9 61.8849 61.8636   4
  -6  12   8 1567.82 77.0538   3
  -6  12   8 1633.62 85.2031   4
  -6  12   8 1597.20 123.169   2
  -6 -12   8 1560.60 134.198   4
  -6  12   7 1313.34 70.7150   3
  -6  12   7 1151.29 105.951   2
  -6  12   7 1172.52 79.0672   4
  -6 -12   7 1228.60 117.244   4
  -6  12   6 3099.69 131.123   4
  -6  12   6 3229.85 169.304   2
  -6 -12   6 3332.11 175.480   4
  -6 -12   5 915.029 100.739   4
  -6  12   5 987.107 99.0340   2
  -6  12   5 875.739 77.4597   4
  -6  12   4 3113.11 141.577   4
  -6  12   4 3309.02 170.855   2
  -6 -12   4 3294.77 163.083   4
  -6 -12   3 325.932 66.7389   4
  -6  12   3 414.098 75.4984   2
  -6  12   3 296.650 58.6902   4
   6 -12  -2 2231.12 130.346   4
  -6  12   2 2216.49 129.539   4
  -6  12   2 2292.32 145.989   2
   6 -12  -1 182.732 60.2565   4
  -6  12   1 96.1760 52.3453   4
   6 -12   0 6404.29 227.094   4
  -6  12   0 6311.38 227.311   4
   6 -12   1 3256.04 168.212   4
  -6  12  -1 3173.41 168.204   4
   6 -12   2 600.734 88.6853   4
   6  12   3 870.357 98.0645   1
   6 -12   3 797.194 102.438   4
   6  12   4 1449.28 118.851   1
   6 -12   4 1394.78 127.887   4
   6 -12   5 21.8626 66.8219   4
   6  12   5 102.879 54.7357   1
   6  12   6 3040.17 167.100   1
   6 -12   6 3000.10 190.606   4
   6 -12   7 33.6381 67.5870   4
   6  12   7 102.232 60.1470   1
   6 -12   8 106.524 70.8939   4
   6  12   8 61.9123 56.8542   1
   6  12   9 946.844 100.829   1
   6 -12   9 1048.23 138.266   4
   6  12  10 715.280 90.8395   1
   6 -12  10 798.818 122.620   4
   6 -12  11 76.9548 84.7982   4
   6 -12  12 1858.36 180.280   4
   6  14 -16 110.957 69.7031   1
  -6 -14  16 356.641 113.484   4
   6  14 -15 740.992 103.157   1
  -6 -14  15 575.634 117.279   4
   6  14 -14 944.529 109.911   1
  -6 -14  14 1149.93 142.511   4
   6  14 -13 697.596 103.472   1
  -6 -14  13 529.510 110.943   4
  -6 -14  12 537.792 111.570   4
  -6 -14  11 2066.01 174.631   4
  -6  14  10 68.9251 25.7937   4
  -6  14  10 132.996 44.5491   3
  -6 -14  10 158.771 81.1154   4
  -6  14   9 1066.48 76.5329   3
  -6  14   9 1084.29 68.9415   4
  -6 -14   9 1130.66 126.459   4
  -6  14   8 967.915 72.7241   3
  -6  14   8 998.734 74.9962   4
  -6 -14   8 958.659 122.573   4
  -6  14   7 67.5877 35.1310   4
  -6 -14   7 204.911 84.4700   4
  -6  14   6 28.4319 41.0924   4
  -6 -14   6-5.59970 67.3206   4
  -6  14   5 6239.53 202.294   4
  -6 -14   5 6383.57 243.480   4
  -6  14   4 749.339 82.0978   4
  -6 -14   4 860.338 102.052   4
  -6  14   3 777.578 87.3729   4
  -6 -14   3 790.146 97.0639   4
  -6 -14   2 962.967 101.792   4
   6 -14  -2 1006.89 100.714   4
  -6  14   2 925.730 94.2791   4
  -6 -14   1 151.838 59.8039   4
   6 -14  -1 93.1227 57.5002   4
  -6  14   1 64.4843 50.1215   4
  -6 -14   0 341.373 69.1836   4
   6 -14   0 312.742 75.8200   4
   6 -14   1 2204.18 152.486   4
  -6 -14  -1 2180.22 126.983   4
  -6 -14  -2 627.431 78.9439   4
   6 -14   2 698.152 97.8342   4
   6 -14   3 6430.74 263.358   4
  -6 -14  -3 6638.77 198.040   4
   6 -14   4 44.4693 68.6670   4
   6  14   4 26.6764 65.2109   1
  -6 -14  -5 271.551 59.3585   4
   6  14   5 137.677 69.4218   1
   6 -14   5 3.00653 70.1006   4
   6 -14   6 41.8816 71.0670   4
   6  14   6 25.7519 58.3954   1
  -6 -14  -6 19.2391 38.7799   4
   6  14   7 1528.61 135.030   1
   6 -14   7 1677.56 159.708   4
   6 -14   8 19.0781 73.8763   4
   6  14   8 197.563 73.0035   1
   6  14   9 2867.67 174.908   1
   6 -14   9 3226.01 222.420   4
   6  14  10 692.096 104.076   1
   6 -14  10 486.712 120.513   4
   6 -14  11 383.120 112.183   4
   6  16 -14 673.243 113.730   1
  -6 -16  14 769.589 141.147   4
  -6 -16  13 158.496 100.039   4
   6  16 -13 86.9570 79.2799   1
  -6 -16  12 55.1560 83.0650   4
  -6 -16  11 188.556 86.3867   4
  -6 -16  10 1229.42 140.693   4
  -6 -16   9 232.998 94.3392   4
  -6 -16   8 8329.93 317.124   4
  -6 -16   7-87.9365 73.9221   4
  -6  16   7-45.3191 46.2123   4
  -6 -16   6 4426.28 224.728   4
  -6  16   6 3961.17 168.680   4
  -6  16   5 854.135 88.6427   4
  -6 -16   5 753.030 101.990   4
  -6  16   4 1193.94 107.897   4
  -6 -16   4 1401.39 131.830   4
   6 -16  -3 7.58698 58.4392   4
  -6 -16   3 4.35001 64.5019   4
  -6  16   3-33.2640 49.5102   4
   6 -16  -2 108.148 60.6542   4
  -6 -16   2 65.4413 59.8971   4
   6 -16  -1 175.871 66.0338   4
  -6 -16   1 231.342 72.7757   4
   6 -16   0 898.159 108.303   4
  -6 -16   0 873.889 97.2634   4
   6 -16   1 9.36086 64.9013   4
  -6 -16  -1-53.4022 54.3557   4
   6 -16   2 351.790 87.2561   4
  -6 -16  -2 488.021 74.8492   4
   6 -16   3 467.535 95.8084   4
  -6 -16  -3 516.271 72.5629   4
   6 -16   4 20.3423 72.4911   4
  -6 -16  -4 53.0751 45.5575   4
   6  16   5 118.458 75.3025   1
   6 -16   5 156.288 82.8785   4
  -6 -16  -5 215.444 58.4505   4
   6  16   6 2231.38 167.849   1
   6 -16   6 2503.10 194.772   4
   6 -16   7 403.368 103.876   4
   6  16   7 364.854 88.1214   1
   6 -16   8 546.205 112.352   4
   6  16   8 545.533 98.1836   1
   6 -16   9 88.9552 89.0264   4
   6  16   9-34.5373 66.9230   1
  -6 -18  12-104.252 93.7019   4
  -6 -18  11 681.785 130.424   4
  -6 -18  10 672.030 122.745   4
  -6 -18   9 1265.29 146.924   4
  -6 -18   8 588.911 113.366   4
  -6 -18   7-23.5341 79.0586   4
  -6 -18   6 1387.24 156.693   4
  -6 -18   5 1154.12 143.279   4
  -6 -18   4 137.524 68.3240   4
  -6 -18   3 1328.23 133.765   4
   6 -18  -2 252.804 79.0374   4
  -6 -18   2 88.3052 63.1790   4
   6 -18  -1 118.430 68.9121   4
  -6 -18   1 120.561 75.3086   4
  -6 -18   0 37.2426 57.9214   4
   6 -18   0 64.1158 74.0065   4
  -6 -18  -1 140.659 67.5170   4
   6 -18   1 130.071 71.0732   4
   6 -18   2 126.610 82.2624   4
  -6 -18  -2 170.114 63.0483   4
   6 -18   3 797.811 122.562   4
  -6 -18  -3 984.976 97.6193   4
   6 -18   4 132.148 92.8178   4
   6 -18   5 214.183 88.9910   4
   6  18   5 336.021 99.3514   1
   6  18   6 506.795 102.858   1
   6 -18   6 588.489 122.932   4
   6 -18   7 179.483 84.6773   4
   6  18   7 203.210 88.4910   1
  -6 -20   9 65.9682 87.3626   4
  -6 -20   8 792.725 142.242   4
  -6 -20   7 96.0996 89.9895   4
  -6 -20   6 1068.02 141.679   4
  -6 -20   5 242.527 95.1146   4
  -6 -20   4 105.261 77.7186   4
  -6 -20   3 184.845 83.7296   4
  -6 -20   2 1178.30 134.478   4
   6 -20  -2 1248.18 133.272   4
  -6 -20   1 17.9512 67.1833   4
   6 -20  -1 83.5434 70.1406   4
   6 -20   0 1575.03 157.652   4
  -6 -20   0 1593.30 141.374   4
   6 -20   1 59.9188 75.3889   4
  -6 -20  -1 124.599 68.6319   4
   6 -20   2 534.078 113.904   4
  -6 -20  -2 390.466 78.5449   4
   6 -20   3 188.002 97.2337   4
   6 -20   4 455.444 138.533   4
   7  -1 -20-94.0203 70.0694   3
  -7  -1  20 115.975 71.1822   4
  -7   1  19 550.247 88.3166   4
   7  -1 -19 429.208 88.8481   3
  -7  -1  19 548.739 89.8372   4
   7  -1 -18 1848.95 147.066   3
  -7   1  18 1771.13 126.116   4
  -7  -1  18 1624.95 131.823   4
  -7   1  17 588.595 80.5157   4
  -7  -1  17 636.057 92.1977   4
   7   1 -16 3293.50 96.2130   2
  -7   1  16 3152.42 155.420   4
  -7  -1  16 3155.33 168.053   4
  -7   1  15 1971.56 122.500   4
   7   1 -15 2142.23 87.1643   2
  -7  -1  15 1820.10 127.710   4
   7  -1 -15 1978.17 78.3256   2
  -7   1  14 87.1990 48.0979   4
   7  -1 -14 60.7016 31.1555   2
  -7   1  14 10.0301 30.5333   1
   7   1 -14 98.9519 37.1211   2
  -7  -1  14-35.1807 53.0265   4
  -7  -1  13 289.065 62.9956   4
   7   1 -13 255.115 45.7636   2
  -7   1  13 187.471 36.4458   1
   7  -1 -13 304.111 46.5210   2
  -7   1  12 989.910 66.6128   1
   7  -1 -12 953.194 67.9255   2
  -7  -1  11 337.953 46.7643   1
  -7   1  11 336.931 45.8547   1
   7  -1 -11 369.905 50.7544   2
   7   1 -10 4539.71 137.615   1
  -7  -1  10 4615.76 139.804   1
   7  -1 -10 4552.38 140.152   2
  -7   1  10 4488.96 135.888   1
   7  -1  -9 124.931 39.0754   2
  -7   1   9 147.486 39.0189   1
  -7  -1   9 113.940 37.4103   1
   7   1  -9 175.167 44.0261   1
  -7  -1   8 307.301 49.0777   1
  -7   1   8 300.436 48.0182   1
   7   1  -8 349.837 50.5207   1
   7  -1  -8 351.112 52.2010   2
  -7  -1   7 202.725 45.4548   1
   7   1  -7 214.478 46.4529   1
  -7   1   7 254.503 50.4397   1
   7  -1  -7 144.592 44.8163   2
  -7   1   6 4094.44 131.137   1
   7  -1  -6 4045.57 134.497   2
  -7  -1   6 4066.46 130.769   1
   7   1  -6 3935.60 128.915   1
  -7  -1   5 6552.13 167.549   1
  -7   1   5 6420.61 168.099   1
   7  -1  -5 6533.64 169.500   2
   7   1  -5 6339.82 162.193   1
   7   1  -4 9386.47 195.025   1
  -7  -1   4 9637.52 197.751   1
  -7   1   4 9362.98 195.768   1
   7  -1  -4 9124.46 199.667   2
  -7   1   3 723.942 63.1493   1
   7   1  -3 666.402 64.3119   1
   7  -1  -3 770.192 46.9192   3
   7  -1  -3 729.364 67.0215   2
  -7  -1   3 758.796 65.4190   1
  -7   1   2 436.369 54.7898   1
   7  -1  -2 441.497 42.1343   3
   7   1  -2 404.561 55.4406   1
   7  -1  -2 380.862 55.6712   2
  -7  -1   2 492.285 56.9451   1
   7  -1  -1 2418.82 89.8368   3
   7   1  -1 2510.55 100.149   3
   7  -1  -1 2462.90 111.312   2
  -7   1   1 2433.47 104.516   1
   7   1  -1 3245.10 152.433   1
  -7  -1   1 2309.76 102.613   1
   7  -1   0 1247.87 75.4464   3
   7   1   0 1190.53 78.3428   3
  -7   1   0 1123.60 72.8968   3
   7  -1   0 1102.84 81.6953   2
  -7  -1   0 1114.31 73.5387   1
   7   1   0 1231.45 78.5146   1
  -7   1   0 1191.80 78.2655   1
   7  -1   1 1002.45 74.6582   3
   7   1   1 1061.36 79.2742   3
  -7   1  -1 994.481 71.6642   3
   7  -1   1 1039.14 78.3582   2
  -7   1  -1 965.938 73.1412   1
  -7  -1  -1 996.784 71.6011   1
   7   1   1 935.283 72.9025   1
   7   1   2 18042.6 307.809   3
  -7   1  -2 17875.4 296.513   3
   7   1   2 18192.8 277.686   1
  -7   1  -2 18304.6 283.556   1
   7  -1   2 18233.8 288.090   2
  -7  -1  -2 18126.2 279.116   1
  -7   1  -2 17989.6 302.956   4
   7   1   3 23.0033 39.6366   3
   7   1   3 35.6975 37.6547   1
  -7   1  -3 60.1193 45.9774   3
  -7  -1  -3 69.9082 34.3197   1
  -7  -1  -3 57.3851 48.1342   3
  -7   1  -3 48.0987 40.1608   4
  -7   1  -3 26.4275 32.9285   1
   7  -1   3-17.7938 38.3180   2
   7   1   4 11400.5 269.252   3
  -7   1  -4 11010.1 220.466   1
  -7   1  -4 10480.6 257.880   3
  -7  -1  -4 10979.4 267.210   3
  -7  -1  -4 10363.0 236.992   4
  -7   1  -4 10599.6 252.349   4
  -7  -1  -4 10670.5 216.944   1
   7  -1   4 10874.2 224.158   2
  -7   1  -5 1025.86 96.1867   3
  -7  -1  -5 1047.47 96.4125   3
  -7   1  -5 944.905 84.7267   4
   7  -1   5 929.923 71.8517   2
  -7  -1  -5 1011.36 85.8591   4
   7   1   5 1019.05 74.7998   2
  -7  -1  -5 1010.67 74.0337   1
  -7   1  -5 995.752 77.0751   1
  -7  -1  -6 997.912 73.4537   1
  -7  -1  -6 868.722 96.0836   3
  -7   1  -6 885.440 89.8011   4
  -7   1  -6 962.089 100.904   3
   7   1   6 921.781 73.5243   2
   7  -1   6 920.058 71.2385   2
  -7  -1  -6 925.684 83.6188   4
  -7   1  -6 864.407 66.4926   1
   7  -1   7 224.672 45.1398   2
  -7   1  -7 157.085 64.2074   3
  -7  -1  -7 224.046 65.2717   3
  -7  -1  -7 230.962 59.4212   4
  -7   1  -7 188.595 55.9978   4
  -7   1  -7 172.072 35.6111   1
   7   1   7 211.097 43.0051   2
  -7  -1  -7 241.872 44.6928   1
  -7   1  -8 5977.85 238.398   3
  -7  -1  -8 5889.33 239.875   3
  -7  -1  -8 6084.92 165.269   1
  -7  -1  -8 6297.27 210.217   4
  -7   1  -8 5926.55 164.364   1
  -7   1  -8 6099.20 221.428   4
   7   1   8 6395.81 167.971   2
   7  -1   8 6168.84 167.498   2
  -7  -1  -9 744.699 63.1067   1
  -7   1  -9 529.718 89.7640   3
  -7  -1  -9 688.220 98.3631   3
  -7   1  -9 712.270 60.9046   1
  -7  -1  -9 707.651 86.2931   4
  -7   1  -9 756.415 94.6305   4
   7  -1   9 754.107 63.2403   2
   7   1   9 749.335 59.5211   2
   7   1  10 352.653 44.6853   2
  -7   1 -10 277.136 82.0213   3
  -7  -1 -10 251.791 81.9820   3
  -7  -1 -10 339.150 70.0107   4
  -7   1 -10 417.294 49.4179   1
  -7  -1 -11 3383.50 175.003   4
  -7   1 -11 3303.49 206.155   3
  -7  -1 -11 3395.79 208.183   3
  -7   1 -12 102.785 80.1413   3
  -7  -1 -12 19.8710 71.6139   3
  -7   1 -13 816.215 125.221   3
  -7  -1 -13 848.119 131.061   3
  -7   1 -14 124.095 93.6125   3
  -7  -1 -14 84.3066 79.4444   3
   7  -3 -20 46.1386 67.7242   3
  -7  -3  20 37.3524 71.3004   4
   7  -3 -19 1172.36 121.967   3
  -7  -3  19 1057.54 123.323   4
   7  -3 -18 141.070 67.1036   3
  -7   3  18 27.0767 45.3794   4
  -7  -3  18-43.6227 65.2158   4
   7  -3 -17 49.0176 52.9228   3
   7   3 -17 7.65191 25.4342   2
  -7   3  17 38.6342 45.5332   4
  -7  -3  17-6.58886 65.1921   4
   7  -3 -16 1135.20 101.351   3
  -7   3  16 876.051 51.6649   1
  -7   3  16 1012.26 86.1759   4
   7   3 -16 1174.54 71.1762   2
  -7  -3  16 967.042 112.157   4
   7  -3 -15 2500.70 133.192   3
  -7   3  15 2301.85 89.6803   1
  -7  -3  15 2349.06 154.571   4
  -7   3  15 2318.39 119.171   4
  -7   3  14 32.7772 39.3355   4
   7   3 -14 98.4191 41.6057   1
   7  -3 -14-17.0599 41.4295   3
  -7   3  14 68.5561 31.7611   1
  -7  -3  14 96.9833 57.6523   4
   7   3 -13 13322.6 239.184   1
   7  -3 -13 12968.5 257.668   3
  -7   3  13 12779.0 222.297   1
  -7  -3  13 12318.7 314.826   4
  -7  -3  12 517.527 79.4483   4
   7  -3 -12 646.815 59.8753   2
  -7   3  12 580.970 56.5293   1
   7   3 -12 616.507 61.1738   1
  -7   3  11 1467.92 84.6943   1
   7   3 -11 1556.38 89.5425   1
   7  -3 -11 1540.93 86.0238   2
   7   3 -10 1082.71 77.1969   1
  -7   3  10 1107.44 72.8778   1
   7  -3 -10 1266.69 82.1185   2
   7   3  -9 738.141 65.2919   1
   7  -3  -9 827.293 70.3743   2
  -7   3   9 854.788 64.9740   1
   7   3  -8 189.102 47.1792   1
  -7   3   8 200.828 42.5248   1
  -7  -3   8 236.453 46.2765   1
   7  -3  -8 178.896 45.3226   2
  -7  -3   7 6597.81 176.087   1
  -7   3   7 6206.64 166.266   1
   7  -3  -7 6310.60 169.193   2
   7   3  -7 6379.97 169.767   1
  -7  -3   6 2085.45 102.196   1
   7  -3  -6 1933.21 101.423   2
   7   3  -6 2013.05 100.365   1
  -7   3   6 1922.03 97.0958   1
  -7  -3   5 1078.93 78.5564   1
   7  -3  -5 1119.23 80.3862   2
   7   3  -5 1101.86 80.9383   1
  -7  -3   4 11420.1 228.240   1
   7  -3  -4 11264.2 223.116   2
   7   3  -4 10841.9 221.266   1
  -7  -3   3 3817.03 133.652   1
   7  -3  -3 3685.56 134.259   2
   7   3  -3 3382.23 128.147   1
  -7   3   2 785.950 49.8029   3
  -7  -3   2 845.342 71.5816   1
   7   3  -2 866.358 74.6428   1
   7  -3  -2 739.208 69.4557   2
  -7   3   1 5352.43 126.198   3
  -7  -3   1 5803.78 162.892   1
   7  -3  -1 5249.60 160.668   2
   7   3  -1 5348.32 158.929   1
  -7   3   0 829.008 62.3605   3
   7   3   0 764.107 70.1277   1
   7   3   0 858.993 75.7668   3
  -7   3   0 832.924 74.4171   4
  -7  -3   0 775.890 67.6726   1
   7  -3   0 783.579 71.4544   2
   7   3   1 6331.82 172.994   1
  -7   3  -1 6437.47 166.549   3
  -7   3  -1 6529.61 189.528   4
   7   3   1 6398.90 184.528   3
  -7  -3  -1 6573.02 173.447   1
   7  -3   1 6371.62 175.777   2
  -7   3  -2 3802.59 140.982   3
   7   3   2 4044.93 140.250   1
   7   3   2 3970.91 152.023   3
  -7  -3  -2 3926.06 137.344   1
  -7   3  -2 4059.77 155.192   4
   7  -3   2 3949.29 140.599   2
   7  -3   3 156.840 46.2613   2
  -7   3  -3 124.211 47.3812   3
   7   3   3 152.739 47.1965   3
  -7   3  -3 88.2670 38.1316   4
  -7  -3  -3 114.859 41.2575   1
  -7   3  -3 130.336 39.8636   1
   7   3   3 158.613 44.2702   1
   7   3   4 1080.77 98.2028   3
  -7   3  -4 1098.92 77.7433   1
  -7   3  -4 926.840 79.7325   3
  -7  -3  -4 1062.60 78.9186   1
  -7   3  -4 1171.57 93.6557   4
   7   3   4 1088.68 77.8086   1
   7  -3   4 1076.02 77.1764   2
   7   3   5 3163.71 156.416   3
  -7   3  -5 2943.33 148.670   3
  -7  -3  -5 2866.03 123.407   4
  -7  -3  -5 3030.28 123.030   1
  -7   3  -5 2959.43 119.957   1
  -7   3  -5 3186.30 153.242   4
   7   3   5 3162.74 124.696   1
   7  -3   5 3024.25 125.080   2
   7   3   6 735.106 65.8432   1
   7   3   6 776.708 89.4203   3
  -7  -3  -6 689.559 91.6747   3
  -7   3  -6 700.671 87.2587   3
  -7   3  -6 723.273 63.4591   1
  -7  -3  -6 707.289 73.7129   4
  -7   3  -6 738.887 83.3140   4
   7  -3   6 746.178 70.0066   2
  -7   3  -7 135.876 38.4438   1
  -7   3  -7 108.888 58.6099   3
  -7  -3  -7 197.666 55.3981   4
  -7  -3  -7 205.359 74.0870   3
  -7   3  -7 132.598 50.5563   4
  -7   3  -8 3811.05 194.977   3
  -7   3  -8 4036.45 144.177   1
  -7  -3  -8 3880.01 198.442   3
   7   3   8 4066.99 143.016   2
  -7  -3  -8 3997.05 163.326   4
  -7   3  -8 4033.89 191.434   4
  -7   3  -9 2532.48 167.097   3
  -7  -3  -9 2379.69 167.572   3
  -7  -3  -9 2499.03 135.826   4
  -7   3  -9 2393.14 112.039   1
   7   3   9 2559.56 109.177   2
  -7   3 -10 486.075 97.6654   3
  -7  -3 -10 632.738 105.271   3
  -7  -3 -10 522.519 74.7305   4
  -7   3 -10 635.226 63.4560   1
   7   3  10 634.240 56.8886   2
  -7   3 -11 15371.2 430.686   3
  -7  -3 -11 15762.8 438.388   3
  -7  -3 -11 15956.9 352.214   4
   7   3  11 16147.1 236.650   2
  -7   3 -12 244.528 92.6144   3
  -7  -3 -12 309.427 96.5204   3
  -7   3 -13 2802.76 211.544   3
  -7  -3 -13 3006.46 209.606   3
  -7   3 -14 444.801 117.965   3
  -7  -3 -14 415.146 116.232   3
   7  -5 -20-45.1226 65.3171   3
  -7  -5  20-73.9481 81.5541   4
   7  -5 -19 1532.03 131.628   3
  -7  -5  19 1304.97 146.333   4
   7  -5 -18 1336.39 116.725   3
  -7  -5  18 1149.08 132.119   4
   7  -5 -17 366.102 69.2420   3
   7   5 -17 279.705 46.0435   1
  -7   5  17 280.749 47.6040   4
  -7  -5  17 256.872 82.4074   4
   7  -5 -16 2185.95 126.218   3
   7   5 -16 2551.69 111.753   1
  -7   5  16 2115.11 100.106   4
  -7  -5  16 2003.98 156.326   4
   7  -5 -15 910.312 78.7725   3
   7   5 -15 1493.93 94.6475   1
  -7  -5  15 939.015 111.961   4
  -7   5  15 933.171 66.4930   1
  -7   5  15 916.542 69.2431   4
  -7  -5  14 20.5227 58.8347   4
   7  -5 -14-33.5096 36.9518   3
   7   5 -14 11.3149 38.7909   1
  -7   5  14 42.5201 32.9459   1
  -7   5  14 50.0355 39.0637   4
   7  -5 -13 2138.03 101.602   3
  -7   5  13 2135.75 100.219   1
   7   5 -13 2289.30 113.100   1
  -7  -5  13 2079.82 144.028   4
   7  -5 -12 1366.67 75.6687   3
   7   5 -12 1441.22 91.9221   1
  -7   5  12 1275.98 80.8149   1
  -7  -5  12 1285.68 113.857   4
  -7   5  11 264.619 47.4050   1
   7  -5 -11 237.822 34.7567   3
   7   5 -11 216.756 50.0305   1
   7  -5 -10 534.730 40.7335   3
   7   5 -10 523.328 64.0671   1
   7  -5  -9 2732.45 70.8911   3
  -7   5   9 3104.11 129.720   2
   7   5  -9 3035.88 128.655   1
   7  -5  -9 3313.44 126.089   2
  -7   5   8 10514.4 235.533   2
   7   5  -8 10440.3 230.534   1
   7  -5  -8 10618.6 225.711   2
  -7   5   7 45483.5 481.239   2
   7   5  -7 45273.8 470.457   1
   7  -5  -7 45495.5 466.685   2
  -7   5   6 34888.3 423.584   2
   7  -5  -6 34779.4 417.558   2
   7   5  -6 35053.9 412.427   1
   7   5  -5 3281.66 135.075   1
  -7   5   5 3164.68 135.936   2
   7  -5  -5 3268.12 133.195   2
   7   5  -4 5669.97 170.701   1
  -7   5   4 5497.80 177.348   2
   7  -5  -4 5408.05 166.892   2
   7  -5  -3 117.811 45.8975   2
   7   5  -3 362.691 69.5876   1
  -7   5   3 105.404 21.7015   3
  -7   5   3 185.451 53.0308   2
  -7   5   2 2223.40 73.7671   3
  -7   5   2 2399.96 115.497   4
   7   5  -2 2347.44 116.106   1
  -7   5   2 2299.61 118.688   2
   7  -5  -2 2223.75 112.422   2
  -7   5   1 3371.29 102.171   3
  -7   5   1 3638.73 144.306   4
  -7   5   1 3641.13 146.819   2
   7  -5  -1 3492.76 138.716   2
   7   5  -1 3687.44 140.654   1
  -7   5   0 5500.70 143.398   3
  -7   5   0 5433.97 176.724   4
   7   5   0 5723.80 171.965   1
  -7   5   0 5722.42 179.184   2
   7  -5   0 5613.13 174.835   2
  -7   5  -1 991.651 89.4264   4
   7   5   1 835.525 75.3457   1
  -7   5  -1 906.995 81.3874   2
  -7   5  -1 859.793 69.8338   3
   7  -5   1 854.211 79.1202   2
  -7   5  -2 45.9450 40.2787   3
   7  -5   2 85.2939 43.4275   2
   7   5   2 119.923 48.6856   3
  -7   5  -2 133.287 52.6018   4
   7   5   2 350.355 82.0342   1
  -7   5  -2 141.050 51.5275   2
   7   5   3 979.849 90.3642   3
   7  -5   3 1109.14 84.5327   2
  -7   5  -3 1092.71 94.1360   4
  -7   5  -3 1053.22 83.5145   2
  -7   5  -3 1077.06 87.6742   3
   7   5   3 1099.71 81.5549   1
  -7   5  -4 10036.4 258.793   3
   7   5   4 10050.8 266.335   3
  -7   5  -4 10199.7 240.235   2
  -7   5  -4 10214.5 272.402   4
   7   5   4 9952.53 230.254   1
  -7   5  -5 6751.18 220.379   3
   7   5   5 6934.13 232.361   3
  -7   5  -5 6932.19 202.569   2
  -7   5  -5 6937.63 231.186   4
   7   5   5 7059.52 194.392   1
  -7   5  -6 128.450 55.0438   3
  -7  -5  -6 77.3981 39.3241   4
   7   5   6 98.3010 43.5387   1
  -7   5  -6 23.6964 47.3696   4
  -7   5  -7 4651.87 207.436   3
   7   5   7 4804.05 158.763   1
  -7  -5  -7 4501.78 157.262   4
  -7   5  -7 4673.34 163.756   1
  -7   5  -8 1620.28 137.934   3
  -7   5  -8 1503.48 98.0279   1
  -7  -5  -8 1637.48 103.833   4
   7   5   8 1648.11 97.2031   1
  -7   5  -9 1151.81 124.544   3
   7   5   9 1171.28 79.6653   1
  -7  -5  -9 1099.94 88.2395   4
  -7   5  -9 1090.95 86.0095   1
  -7   5 -10 1057.86 122.803   3
  -7   5 -10 1064.46 87.1068   1
  -7  -5 -10 1174.34 96.5719   4
  -7   5 -11 1117.20 134.605   3
   7   5  11 1239.59 78.9534   2
  -7   5 -12 310.468 91.9897   3
  -7   5 -13 1560.11 166.777   3
  -7   5 -14-29.1816 93.8937   3
   7  -7 -19 228.379 69.1254   3
  -7  -7  19 280.834 103.173   4
   7  -7 -18-51.2481 48.6696   3
  -7  -7  18 106.723 83.4856   4
   7  -7 -17 226.120 60.9020   3
   7   7 -17 150.214 45.5315   1
  -7  -7  17 143.643 81.1532   4
   7   7 -16 262.850 56.8781   1
   7  -7 -16 190.291 52.1113   3
  -7  -7  16 211.994 85.4543   4
  -7   7  15 170.602 42.6778   1
   7   7 -15 193.062 51.1736   1
  -7  -7  15 184.148 78.8762   4
  -7   7  15 65.8841 25.3720   4
  -7   7  14 155.935 46.2678   1
   7   7 -14 457.741 71.6789   1
  -7  -7  14 86.7707 67.8607   4
  -7   7  14 184.965 33.3550   4
   7   7 -13 1457.03 98.8838   1
  -7  -7  13 1489.05 130.074   4
   7   7 -12 1872.86 113.154   1
  -7   7  12 1757.11 106.862   2
  -7  -7  12 1737.70 134.015   4
  -7  -7  11 428.201 81.0033   4
   7   7 -11 498.405 67.5493   1
  -7   7  11 442.252 62.6326   2
  -7  -7  10 476.469 84.0346   4
  -7   7  10 589.691 70.2573   2
   7   7 -10 534.031 70.0241   1
  -7   7   9 475.240 66.6274   2
   7   7  -9 382.839 58.3007   1
   7   7  -8 1582.47 106.208   1
  -7   7   8 1450.19 102.537   2
   7   7  -7 12582.9 270.907   1
  -7   7   7 12687.2 277.544   2
  -7   7   6 66.1085 33.1988   4
   7   7  -6 63.1175 48.1765   1
  -7   7   6 55.0456 44.1267   2
   7   7  -5 3857.43 157.779   1
  -7   7   5 3604.46 131.500   4
  -7   7   5 3760.65 156.347   2
  -7   7   4 13.7121 36.2040   4
   7   7  -4 50.1465 47.9806   1
  -7   7   4 24.1207 41.8230   2
  -7   7   3 80.5220 40.5618   4
   7   7  -3 205.316 57.5525   1
  -7   7   3 153.413 52.3785   2
  -7   7   2 113.383 46.5224   4
   7   7  -2 50.4994 44.8377   1
  -7   7   2-6.96927 44.1702   2
   7   7  -1 1272.75 99.7376   1
  -7   7   1 1368.10 98.2717   4
  -7   7   1 1299.89 96.5842   2
   7   7   0 2585.21 129.404   1
  -7   7   0 2474.38 129.568   4
  -7   7   0 2658.41 133.938   2
  -7   7  -1 1528.72 112.231   4
   7   7   1 1563.43 105.580   1
  -7   7  -1 1445.48 100.480   2
   7   7   2 107.963 47.0499   1
  -7   7  -2 14.5218 43.8078   2
  -7   7  -2 55.6276 51.7800   4
   7   7   3 770.918 84.3760   3
   7   7   3 727.461 76.2337   1
  -7   7  -3 724.692 83.6907   4
  -7   7  -3 756.540 80.5625   2
   7   7   4 907.831 99.1296   3
   7   7   4 839.480 79.5418   1
  -7   7  -4 981.984 89.9007   2
  -7   7  -4 1085.97 104.022   4
   7  -7   4 947.595 99.2273   4
   7  -7   5 1891.61 134.385   4
   7   7   5 1835.53 109.111   1
  -7   7  -5 1983.25 120.777   2
   7  -7   6 200.804 74.0446   4
  -7   7  -6 139.327 45.0022   2
   7   7   6 165.517 49.0742   1
   7   7   7 261.577 55.5201   1
   7  -7   7 239.301 81.5294   4
  -7  -7  -7 288.876 54.5573   4
  -7   7  -7 302.938 60.1853   2
   7   7   8 2809.24 133.464   1
  -7  -7  -8 2581.25 120.998   4
   7  -7   8 2772.00 175.695   4
  -7   7  -8 2689.44 142.011   2
  -7   7  -9 223.859 75.7865   3
   7  -7   9 142.333 75.5963   4
  -7  -7  -9 221.349 56.0730   4
   7   7   9 132.647 45.1686   1
  -7   7 -10 2842.06 199.240   3
  -7   7 -10 2816.51 140.788   1
  -7  -7 -10 3108.43 134.505   4
   7   7  10 3278.67 135.825   1
  -7   7 -11 970.660 129.066   3
   7   7  11 1136.33 82.1549   1
  -7   7 -12 403.827 104.347   3
  -7   7 -13 596.988 115.776   3
  -7  -9  19 517.756 120.924   4
  -7  -9  18 1152.62 150.142   4
  -7  -9  17 8.25372 79.1006   4
   7   9 -17 46.0738 46.2591   1
  -7  -9  16 532.818 108.635   4
   7   9 -16 456.051 73.9346   1
   7   9 -15 100.224 51.7631   1
  -7  -9  15 72.6558 81.1821   4
  -7  -9  14 25.6266 71.5374   4
   7   9 -14 35.3681 49.7182   1
  -7   9  14 0.73266 42.8724   2
  -7   9  13 18.8673 15.3008   4
  -7   9  13 31.2716 45.8136   2
  -7  -9  13 60.5597 69.9008   4
   7   9 -13 103.890 56.7539   1
  -7   9  12 760.634 48.0515   4
  -7   9  12 842.826 86.5124   2
   7   9 -12 907.319 91.1777   1
  -7  -9  12 735.462 102.660   4
  -7   9  11 130.673 31.2608   4
   7   9 -11 114.493 56.5820   1
  -7   9  11 89.7354 50.1520   2
  -7  -9  11 109.305 67.4843   4
  -7   9  10 6887.32 152.678   4
   7   9 -10 7217.69 226.992   1
  -7   9  10 6902.19 222.573   2
  -7  -9  10 7238.45 264.638   4
  -7   9   9 1372.89 106.467   2
   7   9  -9 1401.24 107.319   1
  -7   9   9 1338.03 75.1802   4
  -7  -9   9 1416.99 123.684   4
  -7   9   8 4865.48 142.669   4
   7   9  -8 5098.39 191.943   1
  -7   9   8 5096.21 191.391   2
  -7   9   7 166.986 40.9325   4
   7   9  -7 150.808 56.6262   1
  -7   9   7 132.739 53.3768   2
  -7   9   6 55.1998 12.2134   3
   7   9  -6 62.5872 50.7709   1
  -7   9   6 115.265 40.8048   4
  -7   9   6 91.1074 52.6641   2
  -7   9   5 173.361 57.4339   2
   7   9  -5 34.6193 47.0001   1
  -7   9   5 37.7940 33.9253   4
   7   9  -4 4656.09 181.514   1
  -7   9   4 4277.52 156.280   4
  -7   9   4 4513.65 183.919   2
  -7   9   3-7.78214 44.2847   2
   7   9  -3 5.38407 50.5102   1
  -7   9   3 91.4283 46.5498   4
   7   9  -2 1817.27 120.891   1
  -7   9   2 1882.43 118.423   4
  -7   9   2 1828.80 121.085   2
  -7   9   1 87.4073 51.7235   2
   7   9  -1 25.9374 48.5981   1
  -7   9   1 25.7539 43.7612   4
   7   9   0 3204.73 152.616   1
  -7   9   0 3075.26 151.766   4
  -7   9   0 3209.74 154.667   2
  -7   9  -1 343.429 71.1062   4
   7   9   1 339.814 69.5748   1
  -7   9  -1 306.664 60.5731   2
   7   9   2 3005.53 150.355   1
   7  -9   2 3056.06 159.873   4
  -7   9  -2 3336.00 170.969   4
  -7   9  -2 3172.93 155.980   2
   7   9   3 508.775 76.4876   3
   7  -9   3 434.194 76.8133   4
  -7   9  -3 644.473 86.7250   4
   7   9   3 634.078 83.4278   1
  -7   9  -3 556.841 78.0891   2
   7   9   4 2492.97 138.186   1
  -7   9  -4 2545.54 144.871   2
   7  -9   4 2794.55 162.270   4
   7   9   5 3761.59 165.869   1
   7  -9   5 3742.14 192.426   4
  -7   9  -5 3887.96 176.416   2
   7   9   6 723.300 87.4060   1
   7  -9   6 478.335 93.6435   4
  -7   9  -6 514.555 77.6257   2
   7   9   7 791.155 84.3185   1
   7  -9   7 850.570 110.899   4
  -7   9  -7 756.768 84.6339   2
   7  -9   8 4164.76 222.524   4
  -7  -9  -8 4004.99 139.254   4
  -7   9  -8 4203.52 187.251   2
   7   9   8 4431.08 178.756   1
   7   9   9 103.981 51.3703   1
   7  -9   9 142.237 79.3269   4
  -7   9  -9 75.7093 47.7508   2
   7  -9  10 2485.47 186.680   4
   7   9  10 2624.27 137.557   1
   7  -9  11 147.227 83.3355   4
  -7   9 -12-23.6323 76.3794   3
   7  -9  12-68.7048 90.2923   4
  -7   9 -13 107.260 96.3991   3
  -7 -11  18 247.660 100.176   4
  -7 -11  17 208.743 100.898   4
   7  11 -16 1314.86 114.577   1
  -7 -11  16 1212.25 149.443   4
   7  11 -15 1755.20 131.538   1
  -7 -11  15 1930.19 176.657   4
  -7  11  14 368.391 73.5307   2
   7  11 -14 530.573 84.8795   1
  -7 -11  14 335.871 96.4857   4
   7  11 -13 649.294 87.2441   1
  -7  11  13 513.547 81.4405   2
  -7 -11  13 592.485 106.383   4
  -7  11  12 351.035 30.2050   4
   7  11 -12 441.854 77.4099   1
  -7  11  12 434.280 74.2018   2
  -7 -11  12 420.628 91.0045   4
   7  11 -11-71.2771 61.8834   1
  -7  11  11 50.2121 25.2077   4
  -7  11  11-64.5880 55.6236   2
  -7 -11  11 21.0726 69.4900   4
   7  11 -10 1123.80 109.435   1
  -7  11  10 1169.86 69.0115   4
  -7  11  10 1150.41 111.141   2
  -7 -11  10 1082.86 120.722   4
   7  11  -9 2244.90 142.497   1
  -7  11   9 2371.33 101.521   4
  -7  11   9 2257.46 142.155   2
  -7 -11   9 2417.01 162.833   4
  -7  11   8 641.491 87.8674   2
  -7 -11   8 892.349 111.743   4
  -7  11   8 697.315 64.7802   4
  -7  11   8 501.496 36.5230   3
   7  11  -8 643.016 89.0567   1
  -7  11   7 10943.6 233.314   4
   7  11  -7 11050.1 300.210   1
  -7  11   7 10876.2 300.477   2
  -7 -11   7 11109.0 311.712   4
  -7  11   6 385.389 72.7255   2
   7  11  -6 427.474 80.1848   1
  -7  11   6 386.000 54.4238   4
  -7  11   5 11419.2 258.483   4
   7  11  -5 11610.7 303.047   1
  -7  11   5 11819.7 310.529   2
   7  11  -4 4332.13 187.747   1
  -7  11   4 4128.21 165.953   4
  -7  11   4 4445.25 193.866   2
  -7  11   3 45.1509 53.8925   2
   7  11  -3-16.4143 55.5676   1
  -7  11   3-31.0191 46.1396   4
   7  11  -2 6142.98 225.897   1
  -7  11   2 6568.76 222.434   4
  -7  11   2 6702.95 235.023   2
   7  11  -1 2073.98 133.603   1
  -7  11   1 2066.41 136.707   2
  -7  11   1 1897.47 126.748   4
  -7  11   0 54.9023 53.3432   2
   7 -11   0 53.0833 54.5908   4
   7  11   0 22.4277 51.6084   1
  -7  11   0 198.182 65.9497   4
  -7  11  -1 249.645 67.6922   2
   7 -11   1 260.479 65.9674   4
  -7  11  -1 399.092 79.3195   4
   7  11   1 457.164 79.6399   1
   7  11   2 6275.51 226.345   1
   7 -11   2 6430.94 239.634   4
   7 -11   3 1078.74 110.770   4
   7  11   3 986.415 98.2756   1
   7  11   4 4167.23 188.323   1
   7 -11   4 4223.03 210.449   4
   7 -11   5 5208.64 238.771   4
   7  11   5 5315.39 212.415   1
   7 -11   6 97.5846 68.8474   4
   7  11   6 193.654 61.7918   1
   7  11   7 4329.82 191.138   1
   7 -11   7 4472.17 233.909   4
   7 -11   8 938.027 121.857   4
   7  11   8 1008.91 102.777   1
   7 -11   9 290.992 95.6227   4
   7  11   9 183.648 61.7749   1
   7 -11  10 2420.81 192.153   4
   7  11  10 2653.41 151.100   1
   7 -11  11 639.645 123.603   4
   7 -11  12 1216.63 210.995   4
  -7 -13  17-47.8794 90.7196   4
  -7 -13  16 102.647 99.4299   4
   7  13 -16 191.594 73.1683   1
   7  13 -15 330.266 83.4868   1
  -7 -13  15 409.219 108.907   4
   7  13 -14 123.819 66.7974   1
  -7 -13  14-12.8914 77.8677   4
   7  13 -13 822.031 103.359   1
  -7 -13  13 968.103 133.559   4
   7  13 -12 196.842 71.2553   1
  -7 -13  12 152.249 78.1099   4
   7  13 -11 601.223 93.1633   1
  -7  13  11 461.057 42.3531   4
  -7 -13  11 598.443 105.383   4
   7  13 -10 558.782 90.4286   1
  -7  13  10 595.715 55.3428   4
  -7 -13  10 636.212 111.913   4
  -7  13   9-10.3076 27.1019   3
   7  13  -9 33.3813 59.7322   1
  -7  13   9 45.8634 36.6024   4
  -7 -13   9 104.771 69.7824   4
  -7  13   8 203.902 34.9091   3
  -7  13   8 219.322 47.8131   4
  -7 -13   8 199.417 77.6426   4
  -7  13   7 218.189 36.5292   3
  -7  13   7 246.395 53.9691   4
  -7 -13   7 215.936 72.3752   4
  -7 -13   6 160.457 73.1310   4
  -7  13   6 179.653 49.8636   4
  -7 -13   5 5.79654 60.9575   4
  -7  13   5-2.73768 43.5847   4
  -7 -13   4 30.2867 62.6874   4
  -7  13   4 42.1093 46.7446   4
  -7  13   3 3226.96 161.396   4
  -7  13   2 985.162 101.069   4
   7 -13  -1 6257.51 232.188   4
  -7  13   1 6053.30 231.167   4
   7  13   0 1618.71 134.295   1
   7 -13   0 1573.26 126.815   4
   7  13   1 2866.16 168.878   1
   7 -13   1 2741.66 166.462   4
   7  13   2 2536.99 155.960   1
   7 -13   2 2576.74 168.819   4
   7 -13   3-26.6081 63.8553   4
   7  13   3-33.3953 58.2325   1
   7 -13   4-4.97301 64.5757   4
   7  13   4 43.5611 55.4452   1
   7  13   5 1583.15 130.065   1
   7 -13   5 1804.83 159.620   4
   7 -13   6 174.879 92.8947   4
   7  13   6 29.2987 56.7659   1
   7 -13   7 221.523 92.3456   4
   7  13   7 60.8009 54.4553   1
   7  13   8 1091.84 114.751   1
   7 -13   8 1096.53 134.889   4
   7  13   9 56.7642 67.7751   1
   7 -13   9 73.6993 82.8171   4
   7  13  10 472.327 82.0711   1
   7 -13  10 373.284 101.744   4
   7 -13  11 753.917 132.223   4
   7  15 -15 135.417 75.0040   1
  -7 -15  15 190.843 101.242   4
   7  15 -14 25.8862 70.5004   1
  -7 -15  14 94.3307 82.2841   4
   7  15 -13 418.047 93.6361   1
  -7 -15  13 468.184 112.052   4
   7  15 -12-113.355 77.0271   1
  -7 -15  12 150.096 91.6917   4
   7  15 -11 9.06016 65.3398   1
  -7 -15  11 113.270 83.5868   4
  -7 -15  10 175.347 89.8378   4
  -7 -15   9 79.2369 70.5289   4
  -7  15   8 710.778 63.3349   3
  -7  15   8 900.184 80.5204   4
  -7 -15   8 780.254 112.781   4
  -7  15   7 985.594 89.4835   4
  -7 -15   7 996.635 117.837   4
  -7  15   6 3393.03 157.759   4
  -7 -15   6 3550.19 200.196   4
  -7  15   5 28.4551 47.6754   4
  -7 -15   5 67.4640 63.8402   4
  -7  15   4 954.872 94.9666   4
  -7 -15   4 1073.70 115.887   4
  -7  15   3 1449.56 120.609   4
  -7 -15   3 1694.35 134.899   4
  -7 -15   2 869.206 99.9364   4
   7 -15  -1 3484.95 188.374   4
  -7 -15   1 3553.01 178.060   4
  -7 -15   0-54.9183 54.6514   4
   7 -15   0 113.487 71.1298   4
  -7 -15  -1 779.570 90.1280   4
   7 -15   1 886.011 116.324   4
   7  15   2 2180.91 162.261   1
   7 -15   2 2390.25 171.067   4
  -7 -15  -2 2241.50 132.018   4
  -7 -15  -3 855.444 84.0611   4
   7 -15   3 869.031 119.127   4
   7  15   3 740.290 107.353   1
  -7 -15  -4 68.0433 52.2951   4
   7 -15   4 251.814 92.9064   4
   7  15   4-145.455 76.3185   1
   7 -15   5 981.641 130.030   4
   7  15   5 841.604 110.714   1
  -7 -15  -5 1037.48 85.7647   4
   7 -15   6 562.602 115.587   4
   7  15   6 426.545 89.7992   1
   7 -15   7 1578.91 163.271   4
   7  15   7 1332.61 132.305   1
   7 -15   8 95.6701 95.2714   4
   7  15   8 2.42761 64.6676   1
   7  15   9 32.1706 61.4217   1
   7 -15   9 175.822 103.566   4
   7  17 -13 1530.74 153.065   1
  -7 -17  13 1801.24 188.769   4
   7  17 -12 340.845 92.9696   1
  -7 -17  12 442.363 114.025   4
   7  17 -11 1306.28 142.732   1
  -7 -17  11 1231.79 151.274   4
  -7 -17  10 1088.47 142.056   4
  -7 -17   9 167.401 88.3383   4
  -7 -17   8 1014.78 127.754   4
  -7 -17   7 77.3433 80.3878   4
  -7  17   6 2769.80 153.939   4
  -7 -17   6 2511.90 195.817   4
  -7  17   5 577.494 87.4856   4
  -7 -17   5 593.961 108.429   4
  -7 -17   4 3140.41 193.826   4
  -7 -17   3 403.135 91.1746   4
  -7 -17   2 2379.27 159.199   4
   7 -17  -1 1056.39 123.866   4
  -7 -17   1 1079.18 112.191   4
   7 -17   0 195.625 73.6453   4
  -7 -17   0 290.704 73.7429   4
   7 -17   1 530.649 103.223   4
  -7 -17  -1 412.593 77.6423   4
   7 -17   2 681.647 122.271   4
  -7 -17  -2 669.712 89.9227   4
   7  17   3 59.9989 72.6261   1
   7 -17   3 113.997 83.3960   4
  -7 -17  -3 111.159 54.4930   4
   7  17   4 3723.54 217.424   1
   7 -17   4 4006.56 242.062   4
  -7 -17  -4 3790.77 162.525   4
   7 -17   5 50.8275 85.5027   4
   7  17   5 125.454 81.5111   1
   7 -17   6-98.1375 91.1932   4
   7  17   6-139.488 78.3611   1
   7 -17   7 1256.16 161.621   4
   7  17   7 1203.86 140.265   1
  -7 -19  11 30.7996 88.3409   4
  -7 -19  10 997.662 147.045   4
  -7 -19   9-169.034 99.1863   4
  -7 -19   8-9.94966 81.6239   4
  -7 -19   7-42.3234 83.9825   4
  -7 -19   6 429.246 106.421   4
  -7 -19   5 160.643 87.3275   4
  -7 -19   4 888.196 132.334   4
  -7 -19   3 774.288 122.940   4
  -7 -19   2 217.490 82.1852   4
   7 -19  -1 4270.31 235.506   4
  -7 -19   1 4227.23 216.215   4
   7 -19   0 143.147 82.7430   4
  -7 -19   0 197.063 71.9270   4
   7 -19   1 923.755 128.738   4
  -7 -19  -1 667.304 94.8498   4
   7 -19   2 2118.45 180.115   4
  -7 -19  -2 1881.91 136.839   4
   7  19   3-144.404 87.0226   1
   7 -19   3-36.0621 83.1958   4
   7 -19   4 218.920 102.732   4
   7  19   4 303.128 93.6344   1
   7 -19   5 234.396 115.480   4
   7  19   5 268.700 96.1424   1
  -7 -21   6 362.156 105.960   4
  -7 -21   5 371.698 110.337   4
  -7 -21   4 467.022 111.222   4
  -7 -21   3 1.44776 78.3203   4
  -7 -21   2 172.734 80.2966   4
  -7 -21   1 53.8547 68.6176   4
   7 -21   0 105.943 83.7951   4
  -7 -21   0-10.6146 71.4846   4
   8   0 -20 2919.30 195.694   3
  -8   0  20 2577.51 168.265   4
  -8   0  19-27.4716 60.5515   4
  -8   0  18 121.963 65.4746   4
   8   0 -17 13.7462 25.1840   2
  -8   0  17 156.201 63.3138   4
   8   0 -16 1191.73 71.5679   2
  -8   0  16 937.157 97.8304   4
  -8   0  15 244.482 79.9672   4
   8   0 -15 54.4803 39.5299   2
  -8   0  14 2664.06 111.757   1
   8   0 -14 2836.34 116.742   2
  -8   0  13-33.6640 34.8659   1
   8   0 -13-59.8798 40.9933   2
  -8   0  12 4003.09 138.645   1
   8   0 -12 4155.61 142.599   2
  -8   0  11 76.8951 38.3587   1
   8   0 -11-59.2361 39.5412   2
  -8   0  10 1702.69 93.2252   1
  -8   0   9-3.18066 34.5368   1
  -8   0   8 11422.7 231.916   1
   8   0  -7-18.5117 41.4701   1
  -8   0   7 1.00863 39.4349   1
   8   0  -6 62853.6 529.872   1
  -8   0   6 63536.6 538.117   1
  -8   0   5 65.5317 45.2644   1
   8   0  -5 54.2862 43.4161   1
   8   0  -4 6708.65 178.282   1
  -8   0   4 6925.93 183.009   1
  -8   0   3-0.92255 41.0947   1
   8   0  -3 14.7619 42.1778   1
  -8   0   2 921.954 74.5928   1
   8   0  -2 988.240 65.3109   3
   8   0  -2 926.968 76.6027   1
   8   0  -1 429.791 66.8834   3
  -8   0   1 15.3065 40.6738   1
   8   0   0 8135.75 190.925   3
  -8   0   0 7824.37 198.938   1
  -8   0  -1-29.9998 39.2451   1
   8   0   1 11.7784 40.7296   3
   8   0   2 7952.59 215.439   3
  -8   0  -2 7748.16 214.335   3
   8   0   2 8256.97 211.080   2
  -8   0  -2 7620.43 195.893   1
  -8   0  -3 60.2429 49.6543   3
  -8   0  -3-6.19645 38.8538   4
   8   0   3-66.7147 47.0956   2
  -8   0  -3 7.00733 37.5726   1
  -8   0  -4 2949.84 153.723   3
  -8   0  -4 2920.14 140.288   4
   8   0   4 3171.71 130.800   2
  -8   0  -4 3013.58 124.952   1
  -8   0  -5-16.9410 49.7468   3
  -8   0  -5 1.99469 38.2688   1
  -8   0  -5-1.17333 42.9021   4
   8   0   5 5.51096 36.9864   2
  -8   0  -6 18670.9 312.250   1
  -8   0  -6 18316.9 399.268   3
  -8   0  -6 18735.7 365.565   4
   8   0   6 19562.4 319.982   2
  -8   0  -7 3.40691 34.7050   1
  -8   0  -7 14.6748 56.9665   3
  -8   0  -7-9.62889 50.4862   4
   8   0   7 43.1469 44.8572   2
   8   0   8 562.206 62.0366   2
  -8   0  -8 539.823 90.2704   3
  -8   0  -8 503.230 78.4526   4
  -8   0  -8 541.170 62.4879   1
   8   0   9 9.17945 36.0515   2
  -8   0  -9-9.76043 60.2274   3
  -8   0  -9-3.86200 55.4599   4
  -8   0  -9 33.6433 47.0877   1
   8   0  10 313.976 46.2292   2
  -8   0 -10 337.468 86.5565   3
  -8   0 -10 361.490 54.0684   1
  -8   0 -11-28.4217 67.5911   3
  -8   0 -12 552.782 113.962   3
  -8   0 -13-84.1530 79.0537   3
  -8   0 -14 271.114 106.898   3
   8  -2 -20 41.9285 65.2834   3
  -8  -2  20-45.1648 73.9625   4
   8  -2 -19 17.7136 57.6196   3
  -8   2  19 124.777 57.5682   4
  -8  -2  19 166.308 77.3910   4
   8  -2 -18 167.454 62.0180   3
  -8   2  18-70.2119 54.2169   4
  -8  -2  18 205.892 76.4155   4
   8  -2 -17 2764.64 155.958   3
   8   2 -17 2704.76 102.494   2
  -8   2  17 2202.96 133.423   4
  -8  -2  17 2311.10 162.080   4
   8   2 -16 85.3793 43.3829   2
  -8   2  16 23.1481 29.4962   1
  -8  -2  16 10.6513 56.5370   4
  -8   2  16 30.4379 45.2434   4
  -8   2  15 116.962 53.7141   4
   8  -2 -15 65.0340 36.6199   2
   8   2 -15 92.9156 43.4067   2
  -8   2  15 90.2783 35.6485   1
  -8  -2  15 8.04847 57.6105   4
  -8   2  14 8.46775 31.8903   1
  -8  -2  14 47.0804 52.9128   4
   8  -2 -14 1.10056 37.5961   2
   8  -2 -13 618.107 61.2391   2
   8   2 -13 731.469 66.8220   1
  -8   2  13 616.946 60.5028   1
   8   2 -12 483.317 59.6310   1
  -8   2  12 455.209 55.0805   1
   8  -2 -12 443.364 54.5751   2
  -8  -2  11 13050.9 252.967   1
   8  -2 -11 13256.2 250.400   2
   8   2 -11 13352.5 251.708   1
  -8   2  11 13212.1 248.426   1
  -8   2  10 3251.60 126.903   1
  -8  -2  10 3133.43 127.522   1
   8   2 -10 3270.16 128.484   1
   8  -2 -10 3189.08 128.044   2
  -8   2   9 4457.32 148.713   1
  -8  -2   9 4649.38 154.475   1
   8   2  -9 4484.16 149.000   1
   8  -2  -9 4649.56 154.113   2
   8  -2  -8 288.421 53.6645   2
  -8  -2   8 266.650 50.3487   1
  -8   2   8 319.113 54.2241   1
   8   2  -8 327.545 54.4050   1
  -8   2   7 278.498 48.3638   1
   8  -2  -7 276.806 53.3865   2
   8   2  -7 278.635 52.5282   1
  -8  -2   7 279.301 51.7700   1
  -8  -2   6-77.1653 44.2843   1
  -8   2   6 10.4936 37.1625   1
   8   2  -6 23.8363 41.6683   1
   8   2  -5 2225.93 109.977   1
  -8  -2   5 2229.64 106.705   1
   8  -2  -5 2114.79 108.794   2
  -8   2   5 2290.85 109.738   1
   8  -2  -4 573.316 39.9631   3
  -8  -2   4 582.133 65.0070   1
   8  -2  -4 491.078 67.4708   2
  -8   2   4 596.947 67.3784   1
   8   2  -4 523.712 65.9337   1
   8  -2  -3 775.958 49.2085   3
  -8  -2   3 699.285 68.9632   1
   8  -2  -3 753.559 75.1850   2
   8   2  -3 756.145 72.8894   1
  -8   2   3 756.028 71.6423   1
   8  -2  -2 6934.39 144.700   3
   8   2  -2 7066.13 189.592   1
  -8  -2   2 7113.25 185.037   1
   8  -2  -2 6941.75 188.801   2
  -8   2   2 6816.83 184.891   1
   8   2  -1 169.582 47.5448   1
   8  -2  -1 225.325 39.5469   3
  -8  -2   1 227.737 50.5199   1
   8   2  -1 173.098 43.1074   3
   8  -2  -1 142.787 47.2677   2
  -8   2   1 157.304 44.1021   1
   8   2   0 5512.70 166.699   3
  -8   2   0 5371.63 154.968   3
  -8  -2   0 5473.71 164.745   1
   8   2   0 5310.82 164.469   1
   8  -2   0 5392.36 170.394   2
  -8   2   0 5363.37 166.437   1
   8   2   1 13805.3 271.642   3
  -8   2  -1 13637.2 259.459   3
  -8  -2  -1 13852.4 263.279   1
   8  -2   1 13951.2 269.556   2
   8   2   1 13769.1 261.109   1
  -8   2  -1 13830.4 261.214   1
  -8   2  -1 13998.9 283.788   4
   8   2   2 2606.48 130.663   3
  -8   2  -2 2613.47 124.197   3
  -8  -2  -2 2780.46 120.246   1
  -8   2  -2 2616.40 122.747   4
   8  -2   2 2956.35 133.628   2
  -8   2  -2 2783.07 121.375   1
   8   2   2 2881.74 122.294   1
   8   2   3 5390.97 166.036   1
   8   2   3 5676.93 193.782   3
  -8   2  -3 4991.68 173.228   3
  -8  -2  -3 5381.79 169.656   1
  -8   2  -3 5418.50 187.991   4
  -8   2  -3 5422.98 166.663   1
   8  -2   3 5221.23 166.104   2
   8   2   4-16.8175 43.0618   3
  -8   2  -4 43.0068 44.3808   3
  -8  -2  -4 55.8474 40.8605   4
   8   2   4 34.9239 39.8799   1
  -8   2  -4 40.3424 43.9606   4
  -8  -2  -4 22.7296 39.3798   1
   8  -2   4 53.0505 41.0575   2
  -8   2  -4 68.6921 44.5191   1
   8  -2   5 610.538 65.4524   2
   8   2   5 721.493 92.9863   3
  -8   2  -5 714.870 85.2134   3
  -8  -2  -5 727.583 93.2707   3
  -8  -2  -5 600.805 68.8667   4
  -8   2  -5 741.816 82.1601   4
  -8   2  -5 735.286 69.4266   1
  -8  -2  -5 700.452 69.2485   1
   8  -2   6 307.421 54.8615   2
  -8  -2  -6 344.912 59.6324   4
  -8   2  -6 294.564 67.6653   3
  -8  -2  -6 368.294 75.7275   3
  -8   2  -6 318.916 52.6891   1
   8   2   6 314.159 60.1494   2
  -8  -2  -6 314.751 54.4146   1
  -8   2  -6 263.521 62.3028   4
  -8   2  -7 7508.80 264.163   3
  -8  -2  -7 7313.30 195.884   1
  -8  -2  -7 7321.38 265.618   3
  -8   2  -7 7201.92 244.063   4
   8   2   7 7682.15 203.925   2
   8  -2   7 7452.29 201.913   2
  -8   2  -7 7467.48 202.409   1
  -8  -2  -7 7151.43 224.384   4
   8  -2   8 107.025 41.5415   2
  -8   2  -8 85.4407 65.4587   3
  -8  -2  -8 151.277 73.6446   3
  -8  -2  -8 132.091 43.7294   1
  -8  -2  -8 79.1580 54.7508   4
  -8   2  -8 101.420 39.9600   1
   8   2   8 147.246 45.9718   2
  -8   2  -9 3741.05 207.176   3
  -8  -2  -9 3741.31 215.021   3
   8   2   9 3727.36 137.559   2
  -8  -2  -9 3603.14 172.891   4
  -8   2  -9 3517.88 137.110   1
  -8  -2 -10 562.025 85.6833   4
  -8   2 -10 523.398 54.4759   1
  -8   2 -10 607.191 99.3764   3
  -8  -2 -10 594.101 104.765   3
   8   2  10 619.294 61.5026   2
   8   2  11 514.009 52.9611   2
  -8   2 -11 545.492 105.129   3
  -8  -2 -11 547.016 110.528   3
  -8   2 -12 1963.42 177.684   3
  -8  -2 -12 1893.86 176.934   3
  -8   2 -13 324.474 108.513   3
  -8  -2 -13 360.234 100.215   3
  -8   2 -14 371.393 103.375   3
  -8  -2 -14 474.461 118.185   3
   8  -4 -20 568.282 93.8772   3
  -8  -4  20 409.118 99.3605   4
   8  -4 -19-11.4628 54.3529   3
  -8  -4  19 72.1403 79.9244   4
   8  -4 -18 89.3858 50.9403   3
  -8  -4  18 71.1820 78.1846   4
   8  -4 -17 41.9258 44.4197   3
  -8   4  17-14.9364 39.8547   4
  -8  -4  17-33.0623 70.4685   4
   8  -4 -16 793.172 78.2738   3
  -8   4  16 758.170 60.7733   1
   8   4 -16 181.347 46.0763   1
  -8  -4  16 683.069 100.954   4
  -8   4  16 572.431 69.4342   4
  -8   4  15 424.865 59.1672   4
   8  -4 -15 604.344 67.2952   3
  -8   4  15 611.737 60.1613   1
   8   4 -15 865.357 75.1522   1
  -8  -4  15 560.229 93.7588   4
   8  -4 -14 4879.44 157.788   3
   8   4 -14 5134.21 165.559   1
  -8   4  14 4655.80 150.466   1
  -8  -4  14 4590.06 207.403   4
  -8   4  13 1379.44 86.9396   1
   8  -4 -13 1477.85 83.6197   3
   8   4 -13 1530.60 96.4996   1
  -8  -4  13 1392.67 122.646   4
   8  -4 -12 451.657 59.2549   2
   8  -4 -12 408.385 45.0981   3
   8   4 -12 485.085 63.4578   1
  -8   4  12 486.682 60.4706   1
   8  -4 -11 1734.37 72.8032   3
  -8   4  11 1740.87 98.1307   1
   8  -4 -11 1724.76 99.3059   2
   8   4 -11 1782.43 103.217   1
   8   4 -10 32.2136 41.7183   1
   8  -4 -10 66.8466 39.9970   2
   8  -4 -10 90.8673 24.0954   3
  -8   4  10 122.094 40.6967   1
   8  -4  -9 4564.13 82.4214   3
  -8   4   9 5707.70 172.053   1
   8  -4  -9 5703.22 173.752   2
   8   4  -9 5827.28 176.740   1
  -8   4   8 16234.9 289.742   1
   8  -4  -8 15634.8 282.564   2
   8   4  -8 16183.1 288.833   1
   8  -4  -7 769.656 75.3602   2
  -8  -4   7 863.769 77.6783   1
   8   4  -7 771.776 74.1241   1
  -8  -4   6 7005.45 194.185   1
   8  -4  -6 6473.87 186.367   2
   8   4  -6 6592.21 189.169   1
  -8  -4   5 944.800 83.4560   1
   8  -4  -5 979.068 83.5380   2
   8   4  -5 936.052 79.5234   1
  -8  -4   4 7795.49 203.923   1
  -8   4   4 7758.81 208.640   2
   8  -4  -4 7362.91 198.391   2
   8   4  -4 7425.32 199.838   1
  -8  -4   3 1104.60 86.0425   1
  -8   4   3 1102.95 88.7941   2
   8  -4  -3 1126.61 88.0233   2
   8   4  -3 1077.57 86.3892   1
  -8   4   2 5205.93 172.771   2
  -8   4   2 5148.89 120.916   3
  -8  -4   2 5236.99 167.986   1
   8  -4  -2 5075.29 165.677   2
   8   4  -2 5254.98 165.992   1
  -8   4   1 1163.88 69.4425   3
  -8  -4   1 1302.33 91.0681   1
  -8   4   1 1357.96 96.2736   4
  -8   4   1 1189.71 92.9546   2
   8  -4  -1 1219.99 90.9955   2
   8   4  -1 1300.51 93.3357   1
  -8   4   0 1873.98 94.6219   3
  -8  -4   0 2017.76 109.690   1
  -8   4   0 2121.88 117.075   4
   8  -4   0 1968.75 112.963   2
   8   4   0 2040.28 111.997   1
   8  -4   1 739.258 75.3282   2
   8   4   1 815.765 77.9057   1
   8   4   1 871.916 80.0278   3
  -8  -4  -1 847.563 77.0722   1
  -8   4  -1 725.032 68.3138   3
  -8   4  -1 816.960 80.1916   4
   8   4   2 2819.05 130.809   1
  -8   4  -2 2658.80 127.333   3
   8   4   2 3142.50 146.145   3
  -8  -4  -2 2854.87 130.304   1
  -8   4  -2 3054.12 149.032   4
   8  -4   2 2832.01 133.413   2
  -8   4  -3 1915.48 116.222   3
   8   4   3 1833.93 123.306   3
   8   4   3 1889.94 108.540   1
  -8  -4  -3 1807.37 104.038   1
  -8   4  -3 1858.11 121.719   4
   8  -4   3 1784.17 106.417   2
  -8   4  -3 1772.80 105.743   1
  -8   4  -4 4249.30 173.304   3
   8   4   4 4398.11 181.220   3
  -8  -4  -4 4358.10 157.365   1
  -8   4  -4 4547.69 161.115   1
   8   4   4 4475.57 162.009   1
  -8   4  -4 4491.84 180.952   4
   8  -4   4 4411.62 161.422   2
   8  -4   5 573.357 69.4260   2
   8   4   5 616.773 81.5607   3
  -8   4  -5 559.780 72.7680   3
   8   4   5 636.653 68.4914   1
  -8   4  -5 567.766 64.5823   1
  -8   4  -5 677.340 83.5261   4
  -8   4  -6 437.796 79.1269   4
  -8   4  -6 482.432 80.9231   3
  -8  -4  -6 416.629 62.6929   4
   8   4   6 508.679 66.0069   1
  -8   4  -6 412.149 55.4907   1
  -8   4  -7 1201.75 116.779   3
   8   4   7 1401.08 94.6373   1
  -8   4  -7 1303.23 92.3867   1
  -8  -4  -7 1291.77 96.1226   4
  -8   4  -8 0.38432 64.9671   3
  -8  -4  -8 114.973 51.5782   4
  -8   4  -8 55.5757 42.2710   1
  -8   4  -9 1392.94 97.1096   1
  -8   4  -9 1366.32 131.607   3
  -8  -4  -9 1423.75 109.225   4
   8   4   9 1461.71 96.2988   2
  -8   4 -10 1506.52 144.926   3
   8   4  10 1555.97 93.5390   2
  -8  -4 -10 1405.87 113.200   4
  -8   4 -10 1478.32 98.7205   1
  -8   4 -11 108.754 74.8870   3
  -8   4 -12 1098.76 138.856   3
  -8   4 -13-14.3958 79.3749   3
  -8  -6  20 252.872 101.410   4
   8  -6 -19 360.719 73.5174   3
  -8  -6  19 363.072 101.597   4
   8  -6 -18 54.7732 46.4771   3
  -8  -6  18 44.4398 77.8499   4
   8   6 -17 865.301 77.0856   1
   8  -6 -17 853.213 84.9297   3
  -8  -6  17 834.107 122.108   4
   8  -6 -16 117.636 43.6894   3
   8   6 -16 204.924 56.6532   1
  -8   6  16 15.7237 34.4149   4
  -8  -6  16 113.995 77.5866   4
   8   6 -15 4612.32 167.822   1
  -8   6  15 4472.31 155.062   1
   8  -6 -15 4998.94 163.087   3
  -8  -6  15 4527.18 224.626   4
  -8   6  15 3773.19 131.920   4
   8   6 -14 98.0600 46.2281   1
  -8   6  14 93.2381 41.7772   1
   8  -6 -14 66.1185 36.1944   3
  -8  -6  14 245.294 91.2975   4
  -8  -6  13-42.3163 61.9137   4
   8  -6 -13 44.7803 29.5119   3
   8   6 -13-22.9974 42.9103   1
  -8   6  13 46.2723 36.7296   1
  -8  -6  12 98.4641 68.8928   4
  -8   6  12 106.110 45.9524   1
   8  -6 -12 46.5097 25.7184   3
   8   6 -12 95.2968 46.9382   1
   8   6 -11 96.0027 50.0905   1
   8   6 -10 219.115 56.6370   1
  -8   6   9 12899.8 285.693   2
   8   6  -9 13038.4 277.124   1
   8  -6  -8 181.365 47.2965   2
   8   6  -8 276.325 58.7158   1
  -8   6   8 165.371 50.2415   2
   8   6  -7 3547.26 149.079   1
  -8   6   7 3465.13 149.929   2
   8  -6  -7 3543.23 143.484   2
   8   6  -6 2383.91 125.690   1
  -8   6   6 2545.26 133.667   2
   8  -6  -6 2424.22 126.885   2
   8   6  -5 7598.89 212.966   1
  -8   6   5 8052.97 226.999   2
   8  -6  -5 7724.13 212.992   2
  -8   6   4 1480.26 97.6960   4
   8   6  -4 1623.24 106.618   1
  -8   6   4 1364.79 100.762   2
   8  -6  -4 1541.38 102.948   2
  -8   6   3 18377.1 191.799   3
   8   6  -3 19490.6 339.546   1
  -8   6   3 20640.6 360.445   2
  -8   6   3 19957.2 330.953   4
   8  -6  -3 19870.4 340.826   2
   8  -6  -2-24.0858 51.9149   2
   8   6  -2 58.4718 46.0530   1
  -8   6   2 12.7581 26.8021   3
  -8   6   2 10.3540 40.7244   4
  -8   6   2 8.04757 46.8121   2
   8  -6  -1 135.868 56.9342   2
  -8   6   1 76.0371 33.1843   3
   8   6  -1 101.162 49.7599   1
  -8   6   1 77.0049 45.3962   4
  -8   6   1 91.5650 47.6400   2
  -8   6   0-6.98646 35.4107   3
   8  -6   0-22.2364 48.3341   2
   8   6   0 56.9813 44.0584   1
  -8   6   0-40.3256 46.8538   4
  -8   6   0 57.2885 46.6304   2
  -8   6  -1 486.383 60.9252   3
   8  -6   1 474.966 70.0685   2
   8   6   1 441.786 65.8911   1
  -8   6  -1 493.479 72.0396   4
  -8   6  -1 574.612 76.0662   2
  -8   6  -2 1520.45 98.2723   3
   8  -6   2 1564.48 105.579   2
   8   6   2 1752.27 120.327   3
  -8   6  -2 1715.80 111.817   2
   8   6   2 1657.52 109.225   1
  -8   6  -2 1552.27 111.995   4
  -8   6  -3 8768.21 240.384   3
   8   6   3 8875.78 258.279   3
  -8   6  -3 8785.55 267.901   4
  -8   6  -3 9006.08 247.064   2
   8   6   3 8585.61 230.007   1
  -8   6  -4-25.6190 44.0356   3
   8   6   4 32.3967 44.6282   3
  -8   6  -4 46.6804 47.1372   2
  -8   6  -4 53.7700 51.9645   4
   8   6   4 30.7494 43.7173   1
  -8   6  -5 5836.55 217.532   3
  -8   6  -5 5930.70 203.858   2
   8   6   5 5795.15 191.925   1
  -8  -6  -6 199.884 50.5355   4
  -8   6  -6 241.377 61.9982   3
   8   6   6 215.942 57.6397   1
  -8   6  -7 439.157 80.3306   3
  -8  -6  -7 430.834 61.0092   4
   8   6   7 445.441 67.0004   1
  -8   6  -8 340.855 80.8167   3
   8   6   8 502.225 67.1964   1
  -8  -6  -8 397.268 63.4038   4
  -8   6  -8 486.565 66.2196   1
  -8   6  -9 4028.95 223.150   3
  -8  -6  -9 4169.99 170.087   4
  -8   6  -9 3958.26 167.920   1
   8   6   9 4341.89 161.661   1
  -8   6 -10 325.851 94.8777   3
  -8   6 -11 887.150 128.426   3
  -8   6 -12 181.021 87.8661   3
  -8   6 -13-2.87657 90.1093   3
  -8  -8  19 36.1981 80.3849   4
  -8  -8  18 206.799 94.1005   4
   8   8 -17 9.61668 46.2309   1
  -8  -8  17 92.5368 89.3525   4
   8   8 -16 258.151 58.9984   1
  -8  -8  16 273.666 88.9916   4
  -8   8  15 696.052 72.8321   1
   8   8 -15 804.365 86.8592   1
  -8   8  15 552.215 46.2162   4
  -8  -8  15 633.588 109.786   4
  -8   8  14 869.845 81.0213   1
   8   8 -14 1083.36 96.7542   1
  -8  -8  14 1128.38 130.935   4
   8   8 -13 621.613 79.0655   1
  -8  -8  13 561.543 99.1972   4
   8   8 -12 5565.54 199.846   1
  -8   8  12 5273.63 195.032   2
  -8  -8  12 5835.89 249.846   4
  -8  -8  11 138.989 72.5792   4
   8   8 -11 177.635 56.9203   1
  -8   8  11 207.948 53.7471   2
  -8   8  10 57.1552 51.5042   2
   8   8 -10 195.567 62.2444   1
  -8   8   9 208.555 41.7586   4
  -8   8   9 280.337 60.0855   2
   8   8  -9 242.908 61.9909   1
   8   8  -8 5838.03 203.182   1
  -8   8   8 5525.40 160.181   4
  -8   8   8 5858.76 208.031   2
  -8   8   7 497.758 58.7604   4
  -8   8   7 489.593 76.5014   2
   8   8  -7 421.066 69.6185   1
   8   8  -6 2696.39 141.900   1
  -8   8   6 2555.73 121.035   4
  -8   8   6 2643.84 144.805   2
  -8   8   5 151.027 46.3421   4
   8   8  -5 107.116 54.2064   1
  -8   8   5 88.9334 47.8301   2
  -8   8   4 81.8058 19.2719   3
  -8   8   4 87.5439 44.5204   4
   8   8  -4 98.1408 48.6293   1
  -8   8   4 91.3235 47.3597   2
  -8   8   3 139.529 55.2488   4
   8   8  -3 122.378 57.0244   1
  -8   8   3 86.6237 49.3713   2
   8   8  -2 10481.8 267.437   1
  -8   8   2 10193.3 261.578   4
  -8   8   2 10672.7 279.253   2
  -8   8   1 853.056 88.3823   4
  -8   8   1 823.907 88.1629   2
   8   8  -1 813.864 84.7700   1
   8   8   0 9977.76 261.928   1
  -8   8   0 10107.9 274.488   4
  -8   8   0 10160.0 273.007   2
   8   8   1 571.666 76.6137   1
  -8   8  -1 605.910 83.3580   4
  -8   8  -1 587.164 81.9886   2
   8   8   2 5826.91 201.644   1
   8   8   2 5756.40 221.724   3
  -8   8  -2 5864.13 220.284   4
  -8   8  -2 6001.50 216.196   2
   8   8   3 340.382 71.1923   1
  -8   8  -3 295.593 68.1425   2
  -8   8  -4 3420.14 163.827   2
   8   8   4 3405.41 159.797   1
  -8   8  -5 2595.44 149.314   2
   8   8   5 2571.65 141.887   1
  -8   8  -6 484.606 75.4283   2
   8   8   6 537.660 74.7750   1
   8   8   7 316.053 64.1472   1
  -8  -8  -7 279.468 52.6222   4
  -8   8  -7 342.366 85.5876   2
  -8   8  -8 261.239 76.8154   3
   8   8   8 315.165 64.5167   1
  -8  -8  -8 236.685 52.2890   4
  -8   8  -8 207.268 57.4224   2
  -8   8  -9 1349.68 138.537   3
   8   8   9 1618.77 113.223   1
  -8   8 -10 1867.16 167.069   3
   8   8  10 2074.18 122.692   1
  -8   8 -11-8.93421 77.3780   3
  -8   8 -12 3465.94 243.971   3
  -8 -10  18 272.255 99.0377   4
   8  10 -17 1724.19 123.864   1
  -8 -10  17 1683.70 168.450   4
   8  10 -16 240.645 67.6940   1
  -8 -10  16 237.921 88.2605   4
   8  10 -15 640.293 87.9168   1
  -8 -10  15 415.231 100.766   4
   8  10 -14 100.093 56.8297   1
  -8  10  14 120.623 58.1479   2
  -8 -10  14 39.9737 71.4316   4
  -8  10  13 126.720 28.3012   4
  -8  10  13 97.9794 57.5798   2
  -8 -10  13 256.814 91.8099   4
   8  10 -13 133.261 65.4364   1
  -8  10  12 117.221 31.9875   4
  -8  10  12 98.5258 52.0625   2
   8  10 -12 242.647 68.1968   1
  -8 -10  12 168.446 79.8568   4
  -8 -10  11 1229.39 125.297   4
   8  10 -11 1425.63 119.584   1
  -8  10  11 1313.65 76.8947   4
  -8  10  11 1580.43 133.400   2
  -8 -10  10 89.3257 73.0558   4
  -8  10  10 51.3705 35.9101   4
   8  10 -10 34.5144 52.4036   1
  -8  10  10-41.0049 55.5471   2
  -8 -10   9 79.4614 67.9078   4
  -8  10   9 57.7760 38.8714   4
   8  10  -9 104.009 61.0157   1
  -8  10   9 52.1324 51.5460   2
  -8  10   8 119.896 43.0024   4
   8  10  -8 14.6556 55.3825   1
  -8  10   7 881.381 76.4057   4
   8  10  -7 966.355 100.427   1
  -8  10   7 1008.27 100.381   2
  -8  10   6 136.660 45.9412   4
   8  10  -6 70.9260 55.6098   1
  -8  10   6 85.4872 58.2922   2
   8  10  -5 8289.42 257.182   1
  -8  10   5 7770.11 219.021   4
  -8  10   5 8156.64 256.322   2
   8  10  -4 3596.31 172.813   1
  -8  10   4 3283.35 152.254   4
  -8  10   4 3522.47 172.626   2
   8  10  -3 13639.0 327.749   1
  -8  10   3 13898.6 311.528   4
  -8  10   3 14025.9 338.382   2
   8  10  -2 3320.19 164.923   1
  -8  10   2 3216.18 160.131   4
  -8  10   2 3231.62 165.665   2
  -8  10   1 361.820 70.6040   4
   8  10  -1 334.044 71.3519   1
  -8  10   1 408.723 75.2681   2
  -8  10   0 632.030 82.7500   4
   8  10   0 558.790 80.5550   1
  -8  10   0 489.632 81.4715   2
   8  10   1 2029.02 132.832   1
  -8  10  -1 2147.21 145.032   2
   8  10   2 279.763 68.2660   1
  -8  10  -2 269.771 67.6228   2
   8  10   3 3889.85 182.866   1
   8  10   4 487.021 78.5386   1
   8 -10   4 536.805 103.244   4
   8  10   5 477.797 75.7181   1
   8 -10   5 468.047 94.5024   4
   8 -10   6-89.6850 78.1202   4
   8  10   6 33.4310 49.6076   1
   8 -10   7 3472.86 210.813   4
   8  10   7 3582.49 174.591   1
   8 -10   8 749.280 112.368   4
   8  10   8 743.778 88.2463   1
   8  10   9 2028.78 135.464   1
   8  10  10 30.7373 46.7948   1
  -8  10 -11-34.0128 70.9650   3
  -8  10 -12 31.4279 84.5573   3
   8  12 -17 189.685 67.9539   1
  -8 -12  17 158.756 92.1545   4
   8  12 -16 1045.59 109.667   1
  -8 -12  16 1128.13 148.604   4
   8  12 -15 156.509 63.9219   1
  -8 -12  15 216.705 96.8304   4
   8  12 -14 1540.66 129.656   1
  -8 -12  14 1687.38 166.988   4
   8  12 -13 259.037 71.9948   1
  -8 -12  13 407.321 104.513   4
   8  12 -12 810.854 103.349   1
  -8 -12  12 943.658 130.422   4
   8  12 -11-0.97403 56.5831   1
  -8  12  11 8.83401 31.8174   4
  -8 -12  11 59.9858 74.8015   4
   8  12 -10 15.8699 58.2501   1
  -8  12  10-1.16128 34.4227   4
  -8 -12  10-3.23225 69.1288   4
  -8 -12   9 275.864 80.2436   4
   8  12  -9 157.849 68.5940   1
  -8  12   9 79.3858 38.6944   4
   8  12  -8 1633.66 130.465   1
  -8  12   8 1647.45 100.906   4
  -8 -12   8 1559.19 135.646   4
  -8 -12   7 100.392 66.1607   4
  -8  12   7 71.7488 18.5783   3
   8  12  -7 104.327 62.5134   1
  -8  12   7 126.023 47.8699   4
   8  12  -6 2979.11 170.470   1
  -8  12   6 2745.52 138.166   4
   8  12  -5 1102.45 113.403   1
  -8  12   5 1140.74 97.5235   4
   8  12  -4-32.2805 59.0494   1
  -8  12   4-24.4419 46.9901   4
   8  12  -3 859.532 102.773   1
  -8  12   3 945.880 100.196   4
   8  12  -2-13.1715 60.0735   1
  -8  12   2 17.7336 51.5336   4
   8  12  -1 12449.1 333.737   1
   8  12   0 3322.97 179.956   1
   8  12   1 1326.38 120.610   1
   8 -12   2 161.974 70.0203   4
   8  12   2 32.4181 56.7641   1
   8 -12   3 515.451 99.3677   4
   8  12   3 470.460 84.1605   1
   8 -12   4 2818.98 184.664   4
   8  12   4 2651.29 163.357   1
   8 -12   5 109.331 76.9911   4
   8  12   5 7.12823 53.4657   1
   8 -12   6 1887.16 166.954   4
   8  12   6 1733.21 134.463   1
   8  12   7 441.142 84.4535   1
   8 -12   7 382.395 99.8365   4
   8  12   8-19.8945 56.2569   1
   8 -12   8 126.040 93.0049   4
   8 -12   9 57.7455 86.4959   4
   8  12   9 69.3224 55.0638   1
   8 -12  10 937.438 143.535   4
  -8 -14  16 65.2159 87.8288   4
   8  14 -16 76.7825 66.4809   1
   8  14 -15 789.726 112.765   1
  -8 -14  15 792.272 129.351   4
   8  14 -14 171.088 72.2258   1
  -8 -14  14 200.854 95.0233   4
   8  14 -13 105.731 71.2303   1
  -8 -14  13-110.217 83.8920   4
   8  14 -12 530.112 101.017   1
  -8 -14  12 555.856 112.919   4
   8  14 -11 1773.97 146.529   1
  -8 -14  11 1785.70 166.120   4
   8  14 -10 24.1219 64.3215   1
  -8 -14  10 79.3776 71.2561   4
  -8  14   9 551.901 42.0617   3
   8  14  -9 1383.81 137.990   1
  -8  14   9 1008.53 84.2088   4
  -8 -14   9 1161.54 133.920   4
  -8  14   8 154.294 29.8890   3
   8  14  -8 230.756 74.0991   1
  -8  14   8 268.455 55.4719   4
  -8 -14   8 175.550 76.2260   4
  -8 -14   7 170.842 82.1078   4
   8  14  -7 330.814 86.0585   1
  -8  14   7 183.787 56.6357   4
  -8 -14   6 28.3620 65.2320   4
   8  14  -6 44.1836 67.5086   1
  -8  14   6 90.5588 53.8271   4
  -8 -14   5 1115.18 118.857   4
   8  14  -5 1196.11 126.106   1
  -8  14   5 1233.58 109.595   4
   8  14  -4 1165.25 125.320   1
  -8  14   4 1169.33 109.348   4
  -8 -14   4 1348.67 126.718   4
   8  14  -3 1125.11 122.651   1
   8  14  -2 708.423 103.838   1
   8  14  -1 51.4251 67.3583   1
   8  14   0-73.7649 66.4019   1
   8  14   1 4352.04 217.720   1
   8 -14   1 4399.61 219.049   4
   8  14   2 1240.41 125.386   1
   8 -14   2 1205.25 127.011   4
   8  14   3 6473.65 266.149   1
   8 -14   3 6772.71 280.024   4
   8 -14   4 38.2777 68.6029   4
   8  14   4 53.3000 60.7612   1
   8 -14   5 1495.38 150.188   4
   8  14   5 1401.41 135.475   1
   8 -14   6 234.615 93.8705   4
   8  14   6 234.418 74.4224   1
   8  14   7 404.222 91.8987   1
   8 -14   7 484.814 118.802   4
   8  14   8 132.707 75.7744   1
   8 -14   8 147.565 90.0545   4
   8 -14   9 2385.92 205.590   4
   8  14   9 2216.52 167.353   1
   8  16 -14 2100.61 173.216   1
  -8 -16  14 2185.87 205.747   4
   8  16 -13 372.627 94.2516   1
  -8 -16  13 556.622 126.459   4
   8  16 -12 931.098 122.529   1
  -8 -16  12 973.888 144.099   4
   8  16 -11 52.7796 74.7291   1
  -8 -16  11 106.318 87.2441   4
   8  16 -10 112.007 79.1237   1
  -8 -16  10 42.8533 84.7816   4
   8  16  -9 219.550 81.1762   1
  -8 -16   9 246.803 91.8339   4
   8  16  -8 5373.51 260.990   1
  -8 -16   8 5339.72 265.151   4
   8  16  -7 396.366 95.6581   1
  -8  16   7 144.115 54.5892   4
  -8 -16   7 307.112 88.6847   4
  -8  16   6 3757.59 178.986   4
  -8 -16   6 3880.42 222.355   4
  -8 -16   5 124.681 75.2745   4
  -8 -16   4 256.895 80.7879   4
  -8 -16   3 38.6016 61.7270   4
   8  16  -3 108.709 67.5174   1
  -8 -16   2 1145.62 119.057   4
   8  16  -2 1086.40 131.276   1
  -8 -16   1 31.8343 57.4987   4
   8  16  -1-15.6016 69.8022   1
  -8 -16   0 496.771 81.8077   4
   8  16   0 525.979 99.4692   1
  -8 -16  -1 962.013 102.908   4
   8 -16   1 1088.46 129.800   4
   8  16   1 968.774 122.112   1
  -8 -16  -2 178.360 58.1023   4
   8  16   2 276.249 85.0261   1
   8 -16   2 391.266 99.5712   4
  -8 -16  -3 276.575 68.3065   4
   8 -16   3 316.506 99.1403   4
   8  16   3 429.458 93.2425   1
   8 -16   4 1267.53 145.430   4
   8  16   4 1270.65 137.212   1
  -8 -16  -4 1421.25 110.164   4
   8 -16   5 557.419 114.842   4
   8  16   5 487.354 103.002   1
   8  16   6 5332.28 261.690   1
   8 -16   6 5562.40 293.450   4
   8 -16   7 143.438 90.6549   4
   8  16   7 64.8212 70.7938   1
   8  16   8 737.636 115.687   1
   8  18 -12 48.9865 78.2542   1
  -8 -18  12 211.443 101.498   4
   8  18 -11 591.804 113.107   1
  -8 -18  11 480.286 112.328   4
   8  18 -10 598.210 113.881   1
  -8 -18  10 446.896 109.563   4
   8  18  -9 255.588 94.3560   1
  -8 -18   9 220.621 106.032   4
   8  18  -8-53.7870 78.9072   1
  -8 -18   8-33.1036 84.5855   4
  -8 -18   7 478.136 105.122   4
  -8 -18   6 22.4859 74.1273   4
  -8 -18   5 398.124 104.871   4
  -8 -18   4 668.682 111.860   4
  -8 -18   3-32.1498 70.3078   4
   8  18  -2 223.379 93.2713   1
  -8 -18   2 5.16883 66.1618   4
   8  18  -1 1717.81 170.855   1
  -8 -18   1 1997.06 153.608   4
   8  18   0 318.641 102.887   1
  -8 -18   0 206.118 72.7609   4
   8  18   1 2777.85 205.216   1
   8 -18   1 2660.04 196.605   4
  -8 -18  -1 2737.23 164.954   4
   8 -18   2 112.383 85.2098   4
   8  18   2 33.9758 80.4186   1
  -8 -18  -2 7.65810 64.6380   4
   8  18   3 1836.29 174.805   1
   8 -18   3 1949.89 180.490   4
   8  18   4-25.0065 73.3981   1
   8 -18   4 126.426 88.6633   4
   8 -18   5 117.169 89.7730   4
   8  18   5 47.8686 81.1971   1
   8  20  -8 183.767 90.4411   1
  -8 -20   8 257.132 113.118   4
  -8 -20   7-20.4414 84.9011   4
  -8 -20   6 1153.30 156.811   4
  -8 -20   5-4.21871 78.0031   4
  -8 -20   4 239.729 96.8227   4
  -8 -20   3-20.0615 78.3846   4
   8  20  -2 458.761 125.791   1
  -8 -20   2 682.530 117.330   4
   8  20  -1 16.2647 75.9346   1
  -8 -20   1-8.56790 67.5361   4
   8  20   0 742.877 134.108   1
  -8 -20   0 702.503 111.356   4
   8  20   1 174.834 99.6420   1
  -8 -20  -1 33.2538 65.0346   4
   9  -1 -20 93.4804 66.2660   3
  -9  -1  20-0.79663 64.4241   4
   9  -1 -19 270.308 75.6595   3
  -9   1  19 178.062 70.1378   4
  -9  -1  19 214.270 73.6483   4
  -9   1  18 1201.80 113.035   4
  -9  -1  18 1118.97 118.610   4
   9   1 -17 921.656 70.0291   2
   9  -1 -17 985.791 69.4611   2
  -9  -1  17 681.552 96.5104   4
  -9   1  17 615.573 86.1669   4
  -9  -1  16 624.344 92.5411   4
  -9   1  16 610.952 84.2156   4
   9  -1 -16 247.308 38.8648   2
  -9   1  16 717.064 66.7259   1
   9   1 -16 308.840 35.9688   2
  -9   1  15 2283.52 112.386   1
   9  -1 -15 2405.01 115.168   2
   9   1 -15 2487.49 121.179   2
  -9  -1  15 1948.23 135.325   4
  -9   1  14 868.876 75.2824   1
   9   1 -14 880.732 80.9875   2
   9  -1 -14 917.161 80.5705   2
  -9  -1  13 1632.90 98.6998   1
   9   1 -13 1637.79 102.973   2
   9  -1 -13 1694.71 103.498   2
  -9   1  13 1702.21 99.4428   1
  -9   1  12 299.655 50.4329   1
  -9  -1  12 312.475 51.8265   1
   9  -1 -12 323.803 55.5210   2
   9   1 -11 761.488 71.1513   1
  -9   1  11 666.729 66.7068   1
   9  -1 -11 678.021 72.8160   2
  -9  -1  11 753.005 71.8814   1
   9   1 -10 410.797 60.1007   1
  -9  -1  10 450.830 62.9758   1
   9  -1 -10 506.863 68.3484   2
  -9   1  10 292.650 51.6697   1
   9   1  -9 7787.62 202.783   1
   9  -1  -9 7720.86 208.062   2
  -9  -1   9 7976.73 207.114   1
  -9   1   9 7924.15 205.812   1
   9  -1  -8 3931.26 151.277   2
  -9  -1   8 4114.82 152.686   1
  -9   1   8 4181.48 152.978   1
   9   1  -8 4077.89 150.780   1
  -9   1   7 8186.81 209.033   1
   9  -1  -7 8136.33 213.982   2
  -9  -1   7 8380.07 210.905   1
   9   1  -7 8410.71 211.797   1
  -9   1   6 5120.18 166.985   1
   9  -1  -6 4913.44 166.842   2
  -9  -1   6 5053.43 165.784   1
   9   1  -6 5080.28 168.123   1
  -9  -1   5 169.788 49.3997   1
   9  -1  -5 115.454 51.1967   2
  -9   1   5 86.4853 41.7080   1
   9   1  -5 111.134 48.4569   1
  -9   1   4 6879.04 194.589   1
   9  -1  -4 6583.73 141.720   3
   9  -1  -4 6520.44 194.964   2
  -9  -1   4 6537.95 186.275   1
   9   1  -4 6439.70 187.493   1
   9  -1  -3 1766.46 81.6572   3
  -9   1   3 1851.21 106.948   1
   9  -1  -3 1808.42 107.241   2
  -9  -1   3 1877.40 104.204   1
   9   1  -3 1948.23 105.376   1
   9  -1  -2 18423.1 265.137   3
  -9   1   2 18969.9 320.887   1
   9   1  -2 18559.8 288.457   3
   9  -1  -2 18633.3 324.399   2
  -9  -1   2 18791.7 314.407   1
   9   1  -2 18384.5 313.432   1
   9   1  -1 8863.86 216.801   1
   9  -1  -1 8598.75 193.603   3
   9   1  -1 8705.60 205.105   3
  -9   1   1 8623.99 217.939   1
  -9  -1   1 8532.99 215.246   1
   9  -1  -1 8534.18 222.346   2
   9  -1   0 2084.59 106.654   3
   9   1   0 2186.24 112.524   3
  -9   1   0 1969.11 113.439   1
   9   1   0 2025.95 113.573   1
   9  -1   0 2063.56 117.627   2
  -9  -1   0 1995.38 111.462   1
   9  -1   1 7720.21 206.807   3
   9   1   1 7540.77 213.654   3
  -9   1  -1 7865.66 211.719   1
  -9   1  -1 7526.06 206.050   3
   9   1   1 7481.97 206.821   1
   9  -1   1 7672.91 211.189   2
  -9  -1  -1 7694.88 209.378   1
   9   1   2 13.5294 43.1998   3
  -9  -1  -2 78.7766 44.0189   1
  -9   1  -2-29.0096 39.0575   1
  -9   1  -2-13.4273 46.3297   3
   9  -1   2 140.873 51.2067   2
  -9   1  -2 1.99156 36.1101   4
   9   1   3 2039.90 124.401   3
  -9   1  -3 1920.34 120.901   3
  -9   1  -3 1845.64 118.325   4
  -9  -1  -3 1962.04 108.840   1
   9  -1   3 1995.08 111.407   2
  -9   1  -3 1994.99 107.960   1
  -9   1  -4 254.701 54.6147   1
  -9  -1  -4 250.208 54.1761   1
  -9   1  -4 190.980 59.2336   4
  -9   1  -4 295.225 69.3691   3
  -9  -1  -4 187.145 58.8291   3
  -9  -1  -4 183.114 50.5075   4
   9   1   4 202.487 53.4669   2
   9  -1   4 265.855 57.4475   2
  -9   1  -5 8017.34 262.617   3
  -9  -1  -5 8415.28 271.801   3
  -9  -1  -5 8157.70 220.356   1
  -9   1  -5 8270.83 252.142   4
   9   1   5 8647.67 230.515   2
   9  -1   5 8603.26 227.544   2
  -9   1  -5 8694.46 224.836   1
  -9  -1  -5 7800.67 237.975   4
  -9   1  -6 174.808 67.6022   3
  -9  -1  -6 168.855 66.9667   3
  -9  -1  -6 230.776 64.2340   4
  -9   1  -6 107.539 52.6563   4
  -9   1  -6 207.061 52.7006   1
   9   1   6 208.556 56.3952   2
   9  -1   6 143.514 46.3934   2
  -9  -1  -6 185.767 51.1519   1
   9  -1   7 403.150 59.9203   2
  -9   1  -7 438.355 81.0201   3
  -9  -1  -7 427.319 89.8295   3
  -9   1  -7 511.243 66.8957   1
  -9  -1  -7 516.223 76.2578   4
   9   1   7 451.989 63.7904   2
  -9  -1  -7 423.446 60.4679   1
  -9   1  -8 1355.25 134.370   3
  -9  -1  -8 1302.83 91.9644   1
  -9  -1  -8 1255.10 130.296   3
  -9   1  -8 1318.22 93.7038   1
  -9  -1  -8 1305.43 117.140   4
   9   1   8 1350.19 95.1256   2
   9  -1   8 1318.12 93.0638   2
  -9   1  -9 208.693 45.3875   1
   9  -1   9 173.182 44.8819   2
  -9   1  -9 245.026 87.7596   3
  -9  -1  -9 263.888 86.8035   3
  -9  -1  -9 202.580 48.8304   1
   9   1   9 246.892 46.7140   2
   9   1  10 590.230 63.9377   2
  -9   1 -10 481.737 103.355   3
  -9  -1 -10 477.151 103.563   3
  -9   1 -11 1888.33 174.212   3
  -9  -1 -11 2282.74 191.660   3
  -9   1 -12 257.568 91.7744   3
  -9  -1 -12 319.278 102.228   3
  -9   1 -13 1373.02 168.686   3
  -9  -1 -13 1153.27 157.165   3
   9  -3 -20 12.0491 57.3297   3
  -9  -3  20-6.49565 67.9007   4
   9  -3 -19-20.2262 54.5717   3
  -9  -3  19 107.332 73.1139   4
   9  -3 -18 163.593 63.6547   3
  -9   3  18 367.488 75.7868   4
  -9  -3  18 195.732 80.8466   4
   9  -3 -17 128.397 50.5978   3
   9   3 -17 245.894 56.0470   2
  -9  -3  17 268.558 79.0033   4
  -9   3  17 96.8075 52.8495   4
  -9   3  16 275.942 63.4550   4
   9  -3 -16 548.111 69.6548   3
  -9   3  16 612.726 64.1469   1
  -9  -3  16 564.077 97.7819   4
  -9  -3  15 195.170 70.8825   4
   9  -3 -15 88.4247 45.1168   3
  -9   3  15 61.7688 37.7212   1
   9   3 -15-1.25924 40.5603   1
   9  -3 -14 75.4695 41.6891   2
   9   3 -14 44.0510 43.8059   1
  -9   3  14 65.2357 40.3304   1
   9   3 -13 2275.51 119.594   1
   9  -3 -13 2355.90 118.247   2
  -9   3  13 2169.89 114.100   1
   9  -3 -12 743.283 72.9949   2
  -9   3  12 756.149 71.0414   1
   9   3 -12 902.033 80.3700   1
   9   3 -11 452.883 64.9222   1
  -9  -3  11 470.323 66.9147   1
  -9   3  11 400.685 62.5913   1
   9  -3 -11 476.870 67.4696   2
  -9  -3  10 3667.56 150.262   1
   9   3 -10 3599.91 147.395   1
  -9   3  10 3417.68 142.649   1
   9  -3 -10 3475.60 145.397   2
   9   3  -9 1695.65 104.162   1
  -9  -3   9 1837.30 107.947   1
  -9   3   9 1615.36 99.6496   1
   9  -3  -9 1663.70 105.372   2
   9   3  -8 2062.36 117.819   1
  -9  -3   8 2146.38 118.580   1
   9  -3  -8 2047.92 114.843   2
  -9   3   8 2061.40 115.110   1
   9   3  -7 3679.87 149.250   1
  -9  -3   7 3855.48 152.217   1
   9  -3  -7 3805.14 151.749   2
  -9   3   7 3608.29 146.835   1
   9   3  -6 1879.04 109.596   1
   9  -3  -6 1484.75 47.3412   3
  -9  -3   6 2116.70 115.326   1
   9  -3  -6 1952.91 113.877   2
  -9   3   6 1940.54 112.287   1
  -9   3   5 3045.14 136.233   1
   9  -3  -5 2596.66 67.7456   3
   9   3  -5 2951.92 135.185   1
  -9  -3   5 3109.09 134.394   1
   9  -3  -5 2934.87 137.070   2
   9  -3  -4 6640.83 120.937   3
   9   3  -4 6927.87 199.709   1
  -9   3   4 6906.08 198.834   1
  -9  -3   4 7053.23 204.298   1
   9  -3  -4 6762.80 201.584   2
   9   3  -3 342.568 64.5144   1
  -9   3   3 207.200 52.8063   1
   9  -3  -3 247.590 58.1803   2
  -9  -3   3 290.410 59.1075   1
   9   3  -2 238.985 56.9590   1
  -9   3   2 242.622 54.4946   1
   9  -3  -2 298.930 65.0200   2
  -9  -3   2 287.612 56.5423   1
  -9   3   1 895.376 81.9033   1
   9   3  -1 921.893 86.0899   1
  -9   3   1 842.093 67.8658   3
   9   3  -1 1013.50 87.0128   3
  -9  -3   1 947.196 85.7159   1
   9  -3  -1 925.343 87.5551   2
  -9   3   0 5736.87 185.056   1
  -9   3   0 5605.83 164.883   3
   9   3   0 5703.77 186.444   3
   9   3   0 5901.96 187.592   1
  -9  -3   0 5842.97 184.636   1
  -9   3   0 5741.57 194.343   4
   9  -3   0 5640.64 184.736   2
   9   3   1 20676.7 361.601   3
  -9   3  -1 20026.5 328.122   3
  -9  -3  -1 20470.7 347.336   1
   9   3   1 20626.5 345.175   1
   9  -3   1 20517.0 350.065   2
  -9   3  -1 20487.9 368.665   4
  -9   3  -1 20540.9 347.997   1
   9   3   2 4259.78 172.214   3
  -9   3  -2 4076.71 158.915   3
  -9  -3  -2 4014.19 157.779   1
  -9   3  -2 4081.82 171.156   4
   9   3   2 4037.70 156.534   1
   9  -3   2 4074.06 158.730   2
  -9   3  -2 3933.14 159.127   1
   9  -3   3 829.174 81.9758   2
  -9   3  -3 857.311 86.7064   3
   9   3   3 865.174 90.7330   3
  -9  -3  -3 940.841 85.4165   1
  -9   3  -3 807.302 81.9925   4
  -9   3  -3 863.469 79.3180   1
   9   3   3 802.950 78.9936   1
   9   3   4 3862.76 179.669   3
  -9   3  -4 3430.25 164.093   3
  -9  -3  -4 3615.73 154.090   1
  -9   3  -4 3722.55 174.250   4
  -9   3  -4 5233.41 195.921   1
   9  -3   4 3619.96 155.394   2
   9   3   4 3671.18 149.465   1
  -9   3  -5 69.1803 43.9234   1
   9  -3   5 42.3326 45.2377   2
  -9   3  -5 75.9492 54.3103   3
  -9  -3  -5 56.0495 45.9059   4
   9   3   5 69.3391 48.3464   1
  -9  -3  -5 53.6158 47.5862   1
  -9   3  -5 76.5986 53.9475   4
   9  -3   6 160.299 55.3418   2
  -9   3  -6 96.5689 64.3934   3
  -9  -3  -6 124.268 50.0553   4
  -9  -3  -6 97.5848 46.8330   1
  -9   3  -6 78.1754 40.0230   1
  -9   3  -7 1104.40 89.7813   1
  -9   3  -7 1307.59 128.201   3
  -9  -3  -7 1206.96 104.514   4
   9   3   7 1405.93 103.660   2
   9  -3   7 1161.81 91.7424   2
  -9   3  -8 513.647 65.2050   1
  -9   3  -8 472.788 89.2679   3
  -9  -3  -8 519.028 77.4287   4
   9   3   8 596.734 71.7852   2
  -9   3  -9 58.3864 68.8178   3
  -9  -3  -9 146.095 58.1858   4
  -9   3  -9 21.3930 41.4536   1
   9   3   9 46.1689 42.9129   2
  -9   3 -10 1668.63 157.557   3
   9   3  10 1939.31 106.385   2
  -9   3 -11 751.074 122.127   3
  -9   3 -12 183.787 87.5680   3
  -9   3 -13 2176.30 197.851   3
  -9  -5  20 414.843 107.141   4
   9  -5 -19-156.080 60.0887   3
  -9  -5  19-28.8109 75.0471   4
   9  -5 -18 510.590 70.1940   3
  -9  -5  18 425.427 98.1474   4
   9   5 -17 456.675 64.2807   1
   9  -5 -17 467.256 66.1087   3
  -9  -5  17 418.446 100.299   4
  -9   5  17 391.081 58.6121   4
  -9   5  16 594.828 69.2297   4
   9  -5 -16 904.734 77.1118   3
   9   5 -16 908.077 83.2980   1
  -9   5  16 773.584 69.0995   1
  -9  -5  16 811.582 113.266   4
  -9  -5  15 405.093 94.1349   4
   9   5 -15 435.735 60.2412   1
  -9   5  15 584.826 66.4380   1
   9  -5 -15 542.089 59.1604   3
  -9  -5  14-123.901 76.4276   4
   9  -5 -14-0.98737 29.7137   3
  -9   5  14-6.24067 36.8826   1
   9   5 -14 6.77490 45.2699   1
  -9   5  13 522.386 64.6581   1
   9  -5 -13 560.489 48.8553   3
   9   5 -13 636.005 73.8007   1
   9  -5 -12 587.052 43.1041   3
   9  -5 -12 654.765 71.5250   2
   9   5 -12 660.710 74.4385   1
  -9   5  12 517.975 64.0387   1
   9  -5 -11 1191.51 49.9592   3
   9  -5 -11 1556.88 102.086   2
   9   5 -11 1543.19 105.681   1
  -9   5  11 1647.31 106.513   1
  -9   5  10 6103.97 194.885   1
   9  -5 -10 6564.28 201.973   2
   9   5 -10 6358.24 201.041   1
   9  -5  -9 439.354 67.6372   2
  -9   5   9 442.115 65.0091   1
   9   5  -9 401.383 64.0724   1
   9  -5  -8 549.139 69.7366   2
   9   5  -8 518.132 69.3994   1
   9   5  -7 12339.9 273.611   1
   9  -5  -7 12312.2 273.664   2
  -9  -5   6 17723.9 329.939   1
  -9   5   6 17209.4 335.213   2
   9   5  -6 17139.0 320.959   1
   9  -5  -6 16901.0 321.390   2
   9  -5  -5 240.300 58.5607   2
  -9  -5   5 270.613 58.3291   1
  -9   5   5 224.107 59.3461   2
   9   5  -5 200.962 56.7315   1
  -9  -5   4 1087.02 87.7343   1
  -9   5   4 945.742 91.2447   2
   9  -5  -4 997.911 91.9040   2
   9   5  -4 1085.23 94.1683   1
  -9  -5   3 2183.28 121.463   1
  -9   5   3 2251.74 132.057   2
   9  -5  -3 2245.40 127.956   2
   9   5  -3 2168.52 124.362   1
  -9   5   2 1698.84 79.4415   3
  -9  -5   2 1932.61 116.238   1
  -9   5   2 1646.15 110.908   4
  -9   5   2 1849.00 122.411   2
   9  -5  -2 1833.40 116.591   2
   9   5  -2 1890.74 115.272   1
   9  -5  -1 693.554 82.4061   2
  -9   5   1 627.542 58.5599   3
  -9   5   1 642.233 76.9902   4
  -9  -5   1 774.841 79.2648   1
  -9   5   1 664.677 78.9606   2
   9   5  -1 640.446 75.9109   1
   9  -5   0 29.3743 48.9497   2
  -9   5   0 19.2882 35.2030   3
  -9  -5   0-4.31008 40.8726   1
  -9   5   0-11.2133 44.8191   4
  -9   5   0-1.01218 44.5302   2
   9   5   0 74.4030 52.2070   1
   9  -5   1 247.205 61.0354   2
   9   5   1 271.717 62.2469   1
  -9   5  -1 265.380 52.5513   3
   9   5   1 306.261 60.9383   3
  -9  -5  -1 334.919 62.1875   1
  -9   5  -1 275.049 64.6039   4
  -9   5  -2 2314.38 123.356   3
   9   5   2 2505.99 137.518   3
  -9   5  -2 2563.86 148.046   4
   9  -5   2 2501.63 137.211   2
   9   5   2 2725.90 140.421   1
  -9   5  -3 2662.68 139.682   3
   9   5   3 2742.79 138.476   1
   9   5   3 2746.47 148.984   3
  -9   5  -3 2744.64 155.109   4
   9  -5   3 2658.16 140.448   2
   9  -5   4 365.976 66.7983   2
  -9   5  -4 388.693 63.7416   1
  -9   5  -4 362.525 71.3558   3
   9   5   4 484.667 72.2475   1
  -9   5  -5 1307.07 114.225   3
  -9   5  -5 1236.12 96.1359   1
   9   5   5 1376.20 101.431   1
  -9   5  -6 601.827 73.2755   1
  -9   5  -6 621.677 87.7424   3
  -9  -5  -6 623.011 75.0039   4
   9   5   6 677.792 74.4524   1
  -9   5  -7 1318.34 123.721   3
  -9  -5  -7 1316.64 104.672   4
  -9   5  -7 1312.54 100.298   1
   9   5   7 1598.96 108.074   1
  -9   5  -8 551.490 70.5206   1
  -9   5  -8 520.017 91.5206   3
  -9  -5  -8 551.939 78.7490   4
  -9   5  -9 688.992 112.718   3
   9   5   9 780.013 81.5153   2
  -9  -5  -9 700.615 86.9690   4
  -9   5  -9 614.433 72.2718   1
  -9   5 -10 292.735 91.0467   3
   9   5  10 483.141 65.0052   2
  -9   5 -11 383.336 106.661   3
  -9   5 -12 1.41994 78.2346   3
  -9  -7  19 83.9687 94.6141   4
  -9  -7  18 221.836 92.9176   4
   9   7 -17 80.4019 49.3589   1
  -9  -7  17 29.7812 75.2304   4
   9   7 -16 273.340 62.1119   1
  -9  -7  16 276.760 92.2190   4
  -9   7  16 266.811 48.0448   4
   9   7 -15 784.993 85.9902   1
  -9   7  15 492.377 64.8925   1
  -9  -7  15 614.369 106.605   4
  -9  -7  14 203.619 81.8358   4
  -9   7  14 186.126 52.5195   1
   9   7 -14 144.528 53.6885   1
  -9   7  13 1795.74 112.293   1
   9   7 -13 1988.00 124.976   1
  -9  -7  13 1937.89 150.657   4
   9   7 -12 3664.56 164.572   1
   9   7 -11 16.4437 48.8575   1
  -9   7  10 6829.78 223.119   2
   9   7 -10 6914.47 219.310   1
  -9   7   9 3407.88 161.100   2
   9   7  -9 3378.76 156.468   1
   9   7  -8 333.330 68.3574   1
  -9   7   8 346.852 68.4047   2
   9   7  -7 2553.83 137.978   1
  -9   7   7 2453.38 138.830   2
   9  -7  -7 2511.73 134.446   2
   9   7  -6 313.236 64.4146   1
   9  -7  -6 200.207 53.2152   2
  -9   7   6 272.168 62.2817   2
  -9   7   5 2583.26 130.421   4
   9   7  -5 2592.92 140.461   1
  -9   7   5 2410.40 140.021   2
   9  -7  -5 2584.67 137.102   2
  -9   7   4 2219.13 63.4226   3
  -9   7   4 3025.96 145.844   4
   9   7  -4 2917.54 147.200   1
  -9   7   4 2865.53 151.166   2
   9  -7  -4 2894.82 145.433   2
  -9   7   3 596.973 44.9810   3
   9  -7  -3 645.211 79.9558   2
   9   7  -3 624.758 77.6180   1
  -9   7   3 614.492 77.2797   4
  -9   7   3 720.106 86.1740   2
  -9   7   2 1398.19 72.4136   3
  -9   7   2 1455.95 106.282   4
   9   7  -2 1510.53 110.264   1
  -9   7   2 1509.94 113.487   2
   9  -7  -2 1423.30 109.296   2
  -9   7   1 1310.55 78.8649   3
  -9   7   1 1339.87 107.396   4
   9   7  -1 1495.34 110.292   1
  -9   7   1 1473.09 112.250   2
   9  -7  -1 1357.36 107.411   2
  -9   7   0 11338.4 234.089   3
   9  -7   0 11620.5 289.019   2
  -9   7   0 11942.3 302.141   4
  -9   7   0 12285.5 305.303   2
   9   7   0 11819.8 287.477   1
  -9   7  -1-12.8952 41.2479   3
   9   7   1 46.5733 45.0989   3
   9   7   1 74.9388 55.4503   1
  -9   7  -1 15.5064 48.2074   4
  -9   7  -1 145.283 61.4606   2
  -9   7  -2 10782.5 263.159   3
   9   7   2 10657.1 299.236   3
  -9   7  -2 11129.7 310.362   4
  -9   7  -2 11052.8 289.882   2
   9   7   2 10637.9 276.958   1
  -9   7  -3 4733.79 185.851   3
  -9   7  -3 4686.58 193.954   2
   9   7   3 4717.23 186.757   1
  -9   7  -4 9393.14 277.174   3
  -9   7  -4 10272.9 285.174   2
   9   7   4 9570.36 265.480   1
  -9   7  -5 2238.37 148.370   3
  -9   7  -5 2350.57 145.490   2
   9   7   5 2377.46 137.168   1
  -9   7  -6 205.414 66.2735   3
   9   7   6 272.521 61.4475   1
  -9   7  -7 281.838 70.7810   3
  -9  -7  -7 366.844 66.2474   4
  -9   7  -7 364.980 65.3153   1
   9   7   7 352.798 68.3755   1
  -9   7  -8 5679.13 255.219   3
  -9   7  -8 5496.70 209.298   1
  -9  -7  -8 5616.39 198.687   4
   9   7   8 6354.11 212.980   1
  -9   7  -9-21.2536 66.2243   3
  -9   7  -9-18.3054 44.8848   1
   9   7   9 28.0874 49.0758   1
  -9   7 -10 2786.83 201.174   3
  -9   7 -11 426.213 108.631   3
  -9   7 -12 137.917 92.0721   3
  -9  -9  19 798.375 141.763   4
  -9  -9  18 139.237 95.7469   4
   9   9 -17-117.932 61.8055   1
  -9  -9  17-109.043 90.2147   4
   9   9 -16-20.4037 51.6588   1
  -9  -9  16-69.1943 76.5221   4
  -9   9  15 940.944 93.4291   1
   9   9 -15 946.001 100.555   1
  -9  -9  15 934.278 123.215   4
   9   9 -14 5.70140 51.3350   1
  -9   9  14-47.1267 30.6910   4
  -9  -9  14-44.2385 72.8782   4
  -9  -9  13 1151.12 133.487   4
   9   9 -13 1064.40 102.213   1
  -9   9  13 980.916 101.100   2
  -9   9  13 928.814 66.9401   4
  -9  -9  12 345.554 92.1539   4
   9   9 -12 233.267 65.7757   1
  -9   9  12 363.096 50.2424   4
  -9   9  12 186.105 56.4569   2
   9   9 -11 24.9380 50.9278   1
  -9   9  11 56.6118 36.8018   4
  -9   9  11 15.6465 48.3763   2
   9   9 -10 3154.81 164.374   1
  -9   9  10 3044.10 164.072   2
  -9   9  10 2873.74 123.289   4
   9   9  -9 1570.39 118.877   1
  -9   9   9 1694.92 100.307   4
  -9   9   9 1593.63 123.749   2
   9   9  -8 1580.09 121.763   1
  -9   9   8 1513.38 97.5499   4
  -9   9   8 1488.83 121.399   2
   9   9  -7 3583.18 172.615   1
  -9   9   7 3129.94 139.227   4
  -9   9   7 3541.65 179.443   2
  -9   9   6 114.245 45.7788   4
  -9   9   6 165.346 62.3595   2
   9   9  -6 160.549 59.2488   1
  -9   9   5 132.534 14.8433   3
  -9   9   5 421.698 69.4248   4
  -9   9   5 371.071 75.3483   2
   9   9  -5 372.881 76.5116   1
  -9   9   4 1506.58 58.5277   3
   9   9  -4 2128.10 137.924   1
  -9   9   4 2067.57 125.263   4
  -9   9   4 2246.80 145.521   2
   9   9  -3 1407.52 114.037   1
  -9   9   3 1520.75 111.190   4
  -9   9   3 1586.32 121.935   2
  -9   9   2 408.253 71.8736   4
  -9   9   2 381.831 78.7170   2
   9   9  -2 355.867 71.6644   1
  -9   9   1 3308.57 170.321   4
   9   9  -1 3310.47 166.431   1
  -9   9   1 3483.69 175.921   2
   9   9   0 2113.05 134.629   1
  -9   9   0 2062.37 138.389   4
  -9   9   0 2090.42 142.740   2
   9   9   1 1987.41 130.428   1
  -9   9  -1 2266.13 146.302   2
   9   9   2 8201.52 255.010   1
   9   9   3 658.663 87.1680   1
   9   9   4 5896.53 221.919   1
   9   9   5 44.2779 56.6248   1
  -9   9  -6 63.0798 61.6691   3
   9   9   6 72.7698 55.7311   1
  -9   9  -7 1277.58 130.880   3
  -9  -9  -7 1116.51 87.7747   4
   9   9   7 1354.48 114.294   1
  -9   9  -8 8.00172 57.6222   3
   9   9   8 137.315 60.4126   1
  -9   9  -9 1114.39 132.923   3
   9   9   9 1168.47 104.133   1
  -9   9 -10 873.475 122.899   3
  -9   9 -11 370.194 98.9947   3
  -9 -11  18 262.726 109.432   4
   9  11 -17 110.642 63.6966   1
  -9 -11  17 138.468 95.1328   4
   9  11 -16 463.881 88.8525   1
  -9 -11  16 411.124 108.704   4
   9  11 -15 278.389 73.5228   1
  -9 -11  15 237.368 88.7533   4
   9  11 -14 787.583 100.788   1
  -9 -11  14 787.223 124.945   4
   9  11 -13 1334.10 122.066   1
  -9 -11  13 1408.68 147.032   4
  -9  11  12 75.3042 36.7596   4
   9  11 -12 63.8496 60.3069   1
  -9 -11  11 30.0445 67.6931   4
  -9  11  11 38.2984 37.1485   4
   9  11 -11-29.0471 60.6499   1
  -9 -11  10 151.393 74.0683   4
  -9  11  10 230.908 50.1798   4
   9  11 -10 122.384 67.7395   1
   9  11  -9 1488.28 126.466   1
  -9  11   9 1525.21 98.5835   4
  -9  11   8 190.000 51.3415   4
   9  11  -8 182.239 64.7476   1
   9  11  -7 2175.87 145.451   1
  -9  11   7 2162.73 122.703   4
  -9  11   6 119.925 51.9700   4
   9  11  -6 93.2899 61.3982   1
  -9  11   5 358.047 69.1712   4
   9  11  -5 320.060 74.7784   1
   9  11  -4 1287.42 119.918   1
  -9  11   4 1297.23 109.602   4
   9  11  -3 1738.92 135.710   1
  -9  11   3 1711.31 127.116   4
  -9  11   2 166.469 67.7996   4
   9  11  -2 152.538 62.7245   1
   9  11  -1 4322.15 201.450   1
   9  11   0 67.8822 62.8995   1
   9  11   1 1272.48 118.600   1
   9  11   2 2420.46 156.986   1
   9  11   3 1042.40 111.536   1
   9  11   4 1743.66 136.757   1
   9  11   5 911.565 106.839   1
   9  11   6 943.237 109.444   1
   9  11   7 925.825 104.557   1
   9  11   8 817.147 103.954   1
  -9  11  -9 10.5364 59.8741   3
   9  11   9 56.7766 58.1798   1
  -9  11 -10 754.126 120.635   3
   9  13 -17 285.714 79.4322   1
  -9 -13  17 354.232 117.136   4
   9  13 -16 673.727 104.663   1
  -9 -13  16 756.652 135.918   4
   9  13 -15 296.505 83.1407   1
  -9 -13  15 432.665 109.232   4
  -9 -13  14 0.24307 83.1779   4
   9  13 -14 240.362 83.7420   1
   9  13 -13 259.549 80.9532   1
  -9 -13  13 410.681 112.070   4
   9  13 -12 1637.00 140.141   1
  -9 -13  12 1744.61 166.969   4
   9  13 -11 51.7796 67.8032   1
  -9 -13  11 45.0809 70.5076   4
  -9 -13  10 1253.82 138.024   4
  -9  13  10 1282.49 93.3057   4
   9  13 -10 1271.44 127.012   1
  -9 -13   9-16.0361 76.8364   4
   9  13  -9 159.355 74.3797   1
  -9  13   9 133.892 50.0603   4
  -9 -13   8 362.098 88.9808   4
   9  13  -8 423.274 91.1358   1
  -9  13   8 407.372 66.2912   4
   9  13  -7 2417.05 166.247   1
  -9  13   7 2378.39 138.743   4
   9  13  -6 1558.59 133.952   1
  -9  13   6 1271.35 108.897   4
   9  13  -5 496.857 95.0998   1
  -9  13   5 361.191 73.0304   4
   9  13  -4 2225.07 161.106   1
  -9  13   4 2047.05 143.174   4
   9  13  -3 769.777 106.308   1
   9  13  -2 145.130 77.7313   1
   9  13  -1 5463.58 240.318   1
   9  13   0 436.140 84.5414   1
   9  13   1 1988.81 152.247   1
   9  13   2 8178.50 292.610   1
   9  13   3 270.456 77.8378   1
   9  13   4 1921.98 155.241   1
   9  13   5 735.015 96.4207   1
   9  13   6-25.8540 57.4212   1
   9  13   7 367.946 89.1335   1
   9  13   8 1407.90 135.855   1
   9  13   9 89.3698 59.6257   1
  -9 -15  15 149.394 85.7981   4
   9  15 -15 264.336 88.4965   1
   9  15 -14 244.721 88.0377   1
  -9 -15  14 195.389 106.941   4
   9  15 -13 397.746 94.7405   1
  -9 -15  13 633.429 129.281   4
   9  15 -12 44.1019 70.5303   1
  -9 -15  12 110.979 82.0438   4
   9  15 -11-63.4308 73.2441   1
  -9 -15  11 17.9936 78.1686   4
   9  15 -10 452.052 93.2167   1
  -9 -15  10 497.324 109.619   4
   9  15  -9 3741.37 215.253   1
  -9 -15   9 4055.68 232.090   4
   9  15  -8 110.355 78.5125   1
  -9  15   8-34.1723 48.0742   4
  -9 -15   8-41.9726 75.2885   4
   9  15  -7 2160.58 169.216   1
  -9  15   7 1979.49 132.369   4
  -9 -15   7 1989.91 160.903   4
  -9 -15   6 773.929 115.698   4
   9  15  -6 681.061 108.449   1
  -9  15   6 678.920 87.6667   4
  -9 -15   5 22.0537 65.0597   4
   9  15  -5-35.6218 72.9365   1
  -9 -15   4 1175.19 121.373   4
   9  15  -4 1135.26 132.239   1
   9  15  -3 366.975 91.5678   1
   9  15  -2 253.412 84.7419   1
   9  15  -1 2467.17 177.228   1
   9  15   0 917.129 116.932   1
   9  15   1 1056.41 127.844   1
   9  15   2 80.0315 78.0580   1
   9  15   3 31.5135 67.5863   1
   9  15   4 385.864 92.5538   1
   9  15   5 659.206 112.549   1
   9  15   6 1239.52 138.795   1
   9  15   7 102.232 77.8363   1
   9  15   8 1299.82 140.883   1
   9  17 -13 369.776 100.540   1
  -9 -17  13 357.253 116.002   4
   9  17 -12 184.689 84.0559   1
  -9 -17  12 139.672 95.6315   4
   9  17 -11-120.284 84.6256   1
  -9 -17  11 163.062 92.3392   4
   9  17 -10 643.471 112.762   1
  -9 -17  10 651.763 121.639   4
   9  17  -9 0.80877 77.6171   1
  -9 -17   9 60.5188 91.1357   4
   9  17  -8 197.511 87.7121   1
  -9 -17   8-0.02478 78.3928   4
   9  17  -7 384.984 95.7514   1
  -9 -17   7 251.699 98.8111   4
   9  17  -6-20.8854 71.2696   1
  -9 -17   6 56.0886 69.5949   4
   9  17  -5-42.3889 72.8240   1
  -9 -17   5 84.7460 72.9427   4
   9  17  -4 747.857 131.986   1
  -9 -17   4 832.031 121.699   4
  -9 -17   3 737.111 114.418   4
   9  17  -3 684.469 123.472   1
  -9 -17   2 538.076 100.416   4
   9  17  -2 315.639 102.587   1
  -9 -17   1 891.198 110.203   4
   9  17  -1 750.758 130.378   1
  -9 -17   0 57.8328 63.6588   4
   9  17   0-48.6877 76.5731   1
  -9 -17  -1 79.5466 64.6284   4
   9  17   1 96.5965 74.3333   1
  -9 -17  -2 86.6347 57.7817   4
   9  17   2 62.8312 76.3432   1
  -9 -17  -3 60.3129 58.0819   4
   9  17   3 53.7359 79.2979   1
   9  17   4 441.599 97.2830   1
   9  17   5 324.575 99.3034   1
   9  19 -10 399.823 105.800   1
  -9 -19  10 361.479 117.737   4
   9  19  -9 43.5010 78.0678   1
  -9 -19   9 2.65951 85.1754   4
   9  19  -8 429.325 113.446   1
  -9 -19   8 209.776 95.1654   4
   9  19  -7 383.248 106.162   1
  -9 -19   7 364.447 108.548   4
   9  19  -6 142.190 97.9465   1
  -9 -19   6-54.0245 80.4735   4
   9  19  -5 307.052 112.991   1
  -9 -19   5 481.753 111.447   4
   9  19  -4 393.309 114.225   1
  -9 -19   4 141.323 80.3412   4
   9  19  -3 928.474 152.921   1
  -9 -19   3 997.832 142.373   4
   9  19  -2 100.761 82.2501   1
  -9 -19   2-158.831 76.3510   4
   9  19  -1 3247.41 289.649   1
  -9 -19   1 2562.05 176.038   4
   9  19   0 30.8571 80.1386   1
  -9 -19   0-66.3008 69.8470   4
   9  19   1 773.484 126.211   1
  -9 -19  -1 735.961 100.588   4
   9  19   2-74.7413 93.6352   1
 -10   0  20 58.1497 63.1470   4
 -10   0  19-31.4479 61.6714   4
 -10   0  18 218.057 74.7523   4
 -10   0  17-92.2847 65.3850   4
  10   0 -17-19.1687 41.7143   2
  10   0 -16 309.917 59.8733   2
 -10   0  15-34.6255 42.5059   1
  10   0 -15 54.2220 47.7655   2
 -10   0  14 1251.28 90.8604   1
  10   0 -14 1230.42 94.2137   2
  10   0 -13 43.0142 46.6053   2
 -10   0  13-1.80112 40.7990   1
 -10   0  12 33.8226 41.3393   1
  10   0 -12 21.8949 44.8864   2
 -10   0  11 53.5246 42.5284   1
  10   0 -11-28.3808 45.1050   2
 -10   0  10 4952.11 174.651   1
 -10   0   9 35.5201 42.2369   1
 -10   0   8 894.211 82.8379   1
 -10   0   7-1.92453 41.6471   1
 -10   0   6 1030.32 90.4378   1
 -10   0   5 59.1744 44.6828   1
 -10   0   4 613.911 74.8655   1
 -10   0   3 7.15528 39.9689   1
  10   0  -3 11.0038 31.8955   3
  10   0  -2 5491.39 159.913   3
 -10   0   2 5842.88 188.578   1
 -10   0   1 31.7426 41.8844   1
  10   0  -1 42.7737 39.3261   3
  10   0   0 13299.4 294.218   2
  10   0   0 13547.8 279.820   3
 -10   0   0 13344.4 287.172   1
  10   0   1 16.3604 41.2316   3
  10   0   1 26.8485 49.6457   2
 -10   0  -1 15.1001 41.6480   1
  10   0   2 86.2642 48.2887   3
  10   0   2 150.549 59.3098   2
 -10   0  -2 128.991 49.8518   1
 -10   0  -3-27.4957 48.2266   3
 -10   0  -3 21.8454 48.6816   4
 -10   0  -3 33.7400 41.6970   1
  10   0   3 6.21465 48.0916   2
 -10   0  -4 297.548 71.3021   3
 -10   0  -4 221.591 57.7210   4
 -10   0  -4 259.137 54.9602   1
  10   0   4 317.577 66.2366   2
 -10   0  -5 43.2778 45.8784   1
 -10   0  -5 58.2508 63.1760   3
 -10   0  -5 33.8400 53.2440   4
  10   0   5-19.6461 44.5101   2
 -10   0  -6 2684.57 171.459   3
 -10   0  -6 2523.89 135.487   1
  10   0   6 2622.09 138.261   2
 -10   0  -7-2.68540 43.1005   1
 -10   0  -7 17.0012 60.0992   3
  10   0   7 7.82215 44.9362   2
  10   0   8 92.0162 51.8481   2
 -10   0  -8 197.727 82.8114   3
 -10   0  -8 102.609 48.3364   1
  10   0   9 35.2343 42.5090   2
 -10   0  -9 75.1593 74.0014   3
  10   0  10 38.7100 45.0980   2
 -10   0 -10 80.4610 74.3886   3
 -10   0 -11 164.050 95.2404   3
 -10   0 -12 569.396 124.595   3
  10  -2 -20 43.5561 55.6115   3
 -10  -2  20 20.1253 68.4435   4
  10  -2 -19 205.175 66.3354   3
 -10   2  19 135.287 65.5014   4
 -10  -2  19 285.830 88.1098   4
  10  -2 -18 36.8728 51.3283   3
  10   2 -18-48.9042 41.7212   2
 -10  -2  18 8.03636 64.0178   4
 -10   2  18-10.6413 51.1856   4
 -10  -2  17 727.594 106.449   4
 -10   2  17 565.189 85.2518   4
  10  -2 -17 777.942 72.7588   2
  10   2 -17 799.003 82.4654   2
 -10  -2  16-21.1105 62.2409   4
  10  -2 -16 76.6840 46.4779   2
  10   2 -16 20.4848 46.0233   2
 -10   2  16-22.2377 36.9774   1
  10  -2 -15 137.688 48.4673   2
 -10   2  15 361.375 59.3020   1
  10   2 -15 386.869 65.2195   2
 -10   2  14 880.305 80.3045   1
  10  -2 -14 928.800 83.3580   2
 -10  -2  13 966.528 86.3547   1
  10   2 -13 1139.64 91.5450   1
  10  -2 -13 1060.66 88.0764   2
 -10   2  13 1097.82 89.7733   1
  10   2 -12 559.355 72.5022   1
 -10  -2  12 431.674 63.4134   1
 -10   2  12 412.110 60.8380   1
  10  -2 -12 476.961 68.1696   2
 -10  -2  11 13534.4 294.115   1
  10  -2 -11 13539.2 292.031   2
 -10   2  11 12890.8 281.209   1
  10   2 -11 13360.2 284.007   1
 -10   2  10 103.149 50.3461   1
  10   2 -10 96.0974 47.2729   1
  10  -2 -10 58.1030 51.2964   2
 -10  -2  10 67.4503 47.6481   1
 -10   2   9 652.937 76.9855   1
  10  -2  -9 834.088 86.1009   2
 -10  -2   9 693.706 76.0873   1
  10   2  -9 773.338 81.8611   1
 -10  -2   8 776.266 79.9243   1
  10   2  -8 774.528 80.1398   1
 -10   2   8 714.282 76.6609   1
  10  -2  -8 754.493 79.2856   2
 -10   2   7 2202.64 122.747   1
 -10  -2   7 2252.99 125.013   1
  10  -2  -7 2268.27 127.150   2
  10   2  -7 2098.28 120.134   1
 -10   2   6 588.676 73.2407   1
 -10  -2   6 744.087 77.8689   1
  10   2  -6 730.257 80.0094   1
  10  -2  -6 641.630 76.8652   2
  10  -2  -5 1582.06 68.4004   3
 -10   2   5 1794.29 109.283   1
 -10  -2   5 1745.75 109.259   1
  10  -2  -5 1607.06 108.431   2
  10   2  -5 1560.44 103.876   1
  10  -2  -4 709.934 52.3591   3
 -10   2   4 765.284 79.4978   1
 -10  -2   4 752.966 78.6900   1
  10   2  -4 714.309 78.4273   1
  10  -2  -4 693.080 77.5115   2
  10  -2  -3 3144.86 108.557   3
 -10   2   3 3219.85 145.724   1
 -10  -2   3 3331.67 146.535   1
  10  -2  -3 3250.43 149.257   2
  10   2  -3 3169.54 143.580   1
 -10   2   2 51.7105 42.4960   1
  10  -2  -2 24.8249 30.6402   3
 -10  -2   2 65.4767 45.7693   1
  10   2  -2 72.5932 43.9991   3
  10   2  -2 102.883 54.4591   1
  10  -2  -2 67.9503 50.0948   2
 -10   2   1 188.776 53.5102   1
  10  -2  -1 137.999 39.0857   3
 -10  -2   1 160.828 49.3679   1
  10   2  -1 157.817 48.6345   3
  10   2  -1 137.773 50.6873   1
  10  -2  -1 119.436 54.6063   2
  10   2   0 1424.53 103.143   3
 -10   2   0 1572.45 107.930   1
 -10  -2   0 1572.98 103.400   1
  10  -2   0 1508.94 106.723   2
  10   2   0 1541.56 107.882   1
  10   2   1 18087.9 335.641   1
  10   2   1 17538.9 348.616   3
 -10   2  -1 17832.9 330.574   3
 -10   2  -1 18414.4 345.372   1
 -10   2  -1 17808.2 356.880   4
 -10  -2  -1 18104.4 334.671   1
  10  -2   1 17725.2 343.884   2
 -10  -2  -2 100.107 43.4154   1
  10   2   2 79.9424 48.2476   3
  10   2   2 68.8734 50.9260   1
 -10   2  -2 66.1576 44.9128   3
 -10   2  -2 53.2527 40.6598   4
 -10   2  -2 155.515 50.3943   1
  10  -2   2 200.906 62.6291   2
  10   2   3 13995.0 331.155   3
 -10   2  -3 13834.3 302.915   1
 -10   2  -3 13013.8 314.596   3
 -10  -2  -3 13519.6 300.967   1
 -10   2  -3 13112.4 319.526   4
  10  -2   3 13453.7 301.575   2
 -10   2  -4 150.219 59.5014   3
 -10  -2  -4 112.596 54.4882   4
 -10   2  -4 77.5444 50.6121   1
 -10   2  -4 70.6476 57.1393   4
 -10  -2  -4 91.9608 43.4941   1
  10  -2   4 72.8646 52.5562   2
 -10   2  -5 3413.09 182.868   3
 -10  -2  -5 3561.95 159.363   1
 -10  -2  -5 3164.75 162.140   4
  10   2   5 3505.64 160.985   2
  10  -2   5 3418.85 156.145   2
 -10   2  -5 3534.92 157.849   1
 -10   2  -6 2736.86 173.896   3
 -10  -2  -6 2824.08 141.798   1
 -10  -2  -6 2497.32 145.262   4
  10   2   6 2882.37 143.575   2
  10  -2   6 2696.25 141.487   2
 -10   2  -6 2973.82 149.047   1
  10  -2   7 75.9592 49.8471   2
 -10   2  -7 56.8118 66.3238   3
 -10  -2  -7 50.6890 48.9676   1
 -10   2  -7 13.0868 43.6113   1
  10   2   7 59.2253 51.2619   2
  10  -2   8 140.123 50.3844   2
 -10   2  -8-0.63293 71.5481   3
 -10   2  -8 110.456 49.7167   1
 -10  -2  -8 101.193 44.4958   1
  10   2   8 159.285 55.4245   2
 -10   2  -9 3010.01 203.920   3
  10   2   9 3121.06 144.512   2
 -10   2 -10 275.575 85.6520   3
 -10  -2 -10 176.234 83.3967   3
  10   2  10 315.392 59.5854   2
 -10   2 -11 1231.76 149.821   3
 -10  -2 -11 1294.43 160.240   3
 -10   2 -12-78.2716 89.5913   3
 -10  -4  20 89.0872 77.6587   4
  10  -4 -19 158.462 56.6841   3
 -10  -4  19-15.0735 76.6719   4
  10  -4 -18 793.569 83.6218   3
  10   4 -18 756.421 78.8592   2
 -10  -4  18 642.856 108.739   4
 -10   4  18 497.054 73.7968   4
 -10   4  17 768.489 87.6290   4
  10  -4 -17 1091.85 88.0822   3
 -10  -4  17 946.022 125.378   4
 -10  -4  16 498.443 94.5400   4
  10  -4 -16 563.598 63.5821   3
 -10   4  16 542.541 67.8747   1
  10   4 -16 553.795 71.9044   1
  10  -4 -15 8.43717 51.0516   2
  10  -4 -15 332.110 49.3563   3
 -10   4  15 360.256 57.5735   1
  10   4 -15 678.457 83.0108   1
  10  -4 -14 3192.56 113.618   3
  10   4 -14 3555.48 155.827   1
  10  -4 -14 3464.59 149.988   2
 -10   4  14 3214.49 147.151   1
  10  -4 -13 1641.97 76.3842   3
 -10   4  13 1667.27 110.120   1
  10   4 -13 1881.74 118.483   1
  10  -4 -13 1768.59 111.930   2
  10  -4 -12 492.543 41.0291   3
  10  -4 -12 610.484 76.5031   2
 -10   4  12 522.091 71.4723   1
  10   4 -12 562.628 77.3677   1
  10   4 -11 1269.74 99.9060   1
 -10   4  11 1148.89 93.7320   1
  10  -4 -11 1269.59 102.427   2
  10  -4 -10 825.095 86.5290   2
 -10   4  10 787.373 79.6088   1
 -10  -4  10 816.228 82.8351   1
  10   4 -10 871.565 87.8371   1
  10   4  -9 151.792 52.9456   1
 -10  -4   9 188.461 54.9379   1
 -10   4   9 100.517 47.6199   1
  10  -4  -9 236.055 56.9875   2
  10   4  -8 21448.8 369.602   1
 -10  -4   8 22616.5 386.970   1
  10  -4  -8 21539.0 370.108   2
 -10   4   8 22273.5 376.728   1
  10   4  -7 654.479 76.6974   1
 -10   4   7 617.872 74.2604   1
 -10  -4   7 649.841 76.4798   1
  10  -4  -7 748.371 80.6948   2
 -10   4   6 8008.56 228.726   1
 -10  -4   6 8168.39 233.842   1
  10  -4  -6 7664.04 224.636   2
  10   4  -6 7927.02 227.969   1
  10   4  -5 6791.09 209.752   1
 -10   4   5 6779.94 211.735   1
 -10  -4   5 7056.82 216.762   1
  10  -4  -5 6671.56 210.403   2
  10   4  -4 23.7488 47.4457   1
 -10   4   4 47.9025 40.9463   1
 -10  -4   4-52.1385 50.9943   1
  10  -4  -4-52.8892 50.4878   2
  10   4  -3 1952.40 118.266   1
 -10   4   3 1821.82 115.579   1
 -10  -4   3 2077.41 120.932   1
  10  -4  -3 1808.90 116.093   2
  10   4  -2 14219.7 305.588   1
 -10   4   2 14388.4 306.663   1
 -10  -4   2 14485.5 306.120   1
  10  -4  -2 14047.4 302.971   2
 -10   4   1 771.804 81.4149   1
 -10   4   1 718.912 66.7053   3
  10   4  -1 723.726 75.2231   3
 -10   4   1 858.362 89.1246   4
  10   4  -1 773.714 81.9729   1
 -10  -4   1 834.983 85.2004   1
  10  -4  -1 769.613 79.7061   2
 -10   4   0 12505.8 257.684   3
  10   4   0 13363.0 301.276   1
 -10   4   0 13066.3 296.803   1
  10   4   0 13434.2 303.178   3
 -10  -4   0 13221.0 298.718   1
  10  -4   0 12695.7 292.534   2
 -10   4   0 13148.9 311.818   4
 -10   4  -1 1206.83 98.0769   1
 -10   4  -1 1139.30 91.7437   3
  10   4   1 1052.20 98.5640   3
 -10  -4  -1 1154.69 97.0512   1
  10   4   1 1110.52 97.7588   1
 -10   4  -1 1057.99 100.150   4
  10  -4   1 1085.83 93.5415   2
  10   4   2 1128.28 103.468   3
 -10   4  -2 905.929 87.4260   3
  10   4   2 1017.04 95.7733   1
 -10  -4  -2 968.428 87.9410   1
  10  -4   2 992.326 96.8873   2
 -10   4  -2 944.736 96.2098   4
 -10   4  -2 946.206 90.3758   1
 -10   4  -3 1089.22 100.247   3
 -10  -4  -3 1138.23 98.1492   1
  10   4   3 1170.14 97.1390   1
  10  -4   3 1108.89 100.311   2
 -10   4  -3 1059.78 94.4515   1
 -10   4  -4 1273.05 110.861   3
 -10  -4  -4 1404.84 105.638   1
 -10   4  -4 1409.32 108.201   1
  10  -4   4 1464.97 111.397   2
  10   4   4 1529.33 109.902   1
 -10   4  -5 3763.16 167.447   1
  10   4   5 4099.42 176.148   1
 -10   4  -5 3701.47 183.117   3
 -10  -4  -5 3887.55 167.752   1
 -10  -4  -5 3456.57 160.710   4
  10  -4   5 4015.63 174.967   2
 -10   4  -6 1892.33 143.031   3
 -10   4  -6 2056.55 130.218   1
 -10  -4  -6 1849.26 121.756   4
  10   4   6 2214.57 130.235   1
  10  -4   6 1914.21 123.818   2
 -10   4  -7 3392.16 195.508   3
 -10   4  -7 3316.01 160.729   1
 -10  -4  -7 3227.19 165.577   4
 -10   4  -8 344.824 94.2419   3
 -10   4  -8 278.301 57.7799   1
 -10  -4  -8 219.301 63.6052   4
  10   4   8 243.857 58.8689   2
 -10   4  -9 344.080 91.4722   3
  10   4   9 425.451 69.2467   2
 -10   4 -10 2656.23 205.019   3
 -10   4 -11-95.6508 84.3063   3
 -10   4 -12 2895.22 220.894   3
 -10  -6  20 135.128 90.2836   4
 -10  -6  19 407.258 101.521   4
  10   6 -18 184.954 58.5197   1
 -10  -6  18 98.1038 83.2464   4
 -10   6  17 145.657 48.5355   4
  10   6 -17 244.555 59.9579   1
  10  -6 -17 318.371 52.4586   3
 -10  -6  17 371.735 93.3844   4
 -10   6  16 103.244 45.4200   1
  10  -6 -16 69.6394 34.5202   3
  10   6 -16 249.779 64.1617   1
 -10  -6  16 43.9922 72.7513   4
 -10   6  15 3467.97 159.929   1
  10   6 -15 4130.13 177.882   1
  10  -6 -15 3758.24 122.266   3
 -10  -6  15 3767.59 217.249   4
 -10   6  14 45.6214 44.8007   1
  10  -6 -14-50.5564 26.6740   3
  10   6 -14-14.9122 48.7122   1
  10   6 -13 276.534 64.0210   1
 -10   6  13 988.335 93.2447   1
  10   6 -12 60.3827 53.0180   1
 -10   6  12 27.9773 46.3383   1
  10  -6 -12 97.5642 52.1571   2
  10  -6 -11 687.172 79.0453   2
  10   6 -11 704.708 85.2526   1
 -10   6  11 748.904 82.4133   1
  10  -6 -10 105.432 54.1903   2
 -10   6  10 142.297 53.4183   1
  10   6 -10 102.097 54.6803   1
  10  -6  -9 422.403 74.8558   2
  10   6  -9 359.925 69.5827   1
  10  -6  -8 718.516 86.3935   2
  10   6  -8 691.547 86.6494   1
  10   6  -7 3943.08 169.783   1
  10  -6  -7 3732.04 161.357   2
  10  -6  -6 599.192 81.4141   2
 -10   6   6 659.926 82.9576   2
  10   6  -6 623.803 82.3692   1
 -10   6   5 2757.86 151.005   2
  10   6  -5 2840.98 146.439   1
  10  -6  -5 2634.36 142.934   2
  10  -6  -4 675.983 82.6936   2
  10   6  -4 730.618 87.8870   1
 -10   6   4 691.122 86.0938   2
 -10   6   3 5145.56 126.919   3
 -10   6   3 5322.89 199.566   4
 -10   6   3 5525.83 210.620   2
  10   6  -3 5528.13 200.834   1
  10  -6  -3 5406.66 197.097   2
  10  -6  -2 149.818 55.5670   2
 -10   6   2 83.2059 35.9460   3
 -10   6   2 118.292 54.1856   4
 -10   6   2 150.084 59.2607   2
  10   6  -2 149.592 62.9597   1
  10  -6  -1 760.491 88.8884   2
 -10   6   1 716.436 64.2159   3
 -10   6   1 674.922 86.4861   4
 -10   6   1 637.360 80.0253   2
  10   6  -1 772.593 85.8262   1
  10  -6   0 221.646 64.8340   2
 -10   6   0 179.345 48.4645   3
  10   6   0 188.867 60.3215   3
 -10   6   0 284.088 71.4830   4
 -10   6   0 253.517 65.0029   2
  10   6   0 242.084 61.4795   1
  10   6   1 1000.28 93.9734   1
 -10   6  -1 908.959 81.7835   3
  10  -6   1 945.661 95.8652   2
  10   6   1 953.607 100.296   3
 -10   6  -1 998.018 102.311   4
 -10   6  -2 1832.98 119.839   3
  10  -6   2 1684.26 119.284   2
  10   6   2 1809.38 123.516   1
  10  -6   3 340.956 68.6874   2
 -10   6  -3 400.924 71.8331   3
  10   6   3 508.086 81.2338   1
 -10   6  -4 161.355 66.0667   3
 -10   6  -4 173.725 57.7346   1
  10   6   4 169.642 60.4217   1
 -10   6  -5 3355.71 178.905   3
 -10   6  -5 3298.62 164.390   1
  10   6   5 3530.66 170.072   1
 -10   6  -6 762.596 100.143   3
  10   6   6 846.309 89.6916   1
 -10  -6  -6 749.831 83.4234   4
 -10   6  -6 952.427 97.4472   1
 -10   6  -7 1846.85 151.935   3
 -10  -6  -7 1736.68 118.728   4
 -10   6  -7 1862.93 127.756   1
  10   6   7 2149.33 133.164   1
  10   6   8 26.2296 51.3197   1
 -10   6  -8-23.8061 45.3794   1
 -10   6  -8-30.8613 59.6213   3
 -10  -6  -8 0.92905 50.6944   4
 -10   6  -9 4116.19 234.567   3
 -10   6 -10 63.6896 78.1612   3
 -10   6 -11 666.728 124.180   3
 -10  -8  19 81.2514 90.8855   4
  10   8 -18 395.280 72.8995   1
 -10  -8  18 478.503 119.590   4
  10   8 -17 177.981 64.1575   1
 -10  -8  17 73.6760 84.6966   4
  10   8 -16 41.1199 51.8837   1
 -10  -8  16 246.211 86.9717   4
 -10  -8  15 11.2287 72.2280   4
 -10   8  15 111.473 53.0693   1
  10   8 -15 57.5518 54.0921   1
 -10  -8  14 381.645 96.6752   4
 -10   8  14 349.603 68.6883   1
  10   8 -14 386.159 75.0404   1
 -10  -8  13-105.974 77.8581   4
 -10   8  13 19.2225 46.5096   1
  10   8 -13-30.0601 54.8506   1
  10   8 -12 680.771 90.6728   1
  10   8 -11 130.607 62.0197   1
 -10   8  11 66.5420 54.4394   2
  10   8 -10 578.908 81.8208   1
 -10   8  10 540.973 80.3473   2
  10   8  -9 120.963 61.8649   1
 -10   8   9 147.617 59.9167   2
 -10   8   8 3742.09 155.925   4
  10   8  -8 3913.89 178.939   1
 -10   8   8 3932.17 184.105   2
  10   8  -7 26.6121 54.1250   1
 -10   8   7 52.2624 43.7342   4
 -10   8   7 3.08605 49.1457   2
 -10   8   6 3389.91 154.990   4
  10   8  -6 3634.00 174.124   1
 -10   8   6 3752.32 182.069   2
  10   8  -5 90.7116 51.0276   1
 -10   8   5 175.831 57.3606   4
 -10   8   5 171.749 63.0604   2
 -10   8   4 540.081 40.4356   3
  10   8  -4 758.309 95.3853   1
 -10   8   4 742.240 86.0098   4
 -10   8   4 707.235 95.0091   2
 -10   8   3 2651.70 93.1403   3
 -10   8   3 2897.71 154.150   4
  10   8  -3 2950.81 158.328   1
 -10   8   3 3020.33 166.098   2
 -10   8   2 6348.96 158.257   3
 -10   8   2 7176.66 242.567   4
 -10   8   2 7144.64 249.998   2
  10   8  -2 7087.38 237.896   1
 -10   8   1 327.456 52.3894   3
  10   8  -1 321.429 68.3431   1
 -10   8   1 369.964 73.7943   4
 -10   8   1 267.874 70.4932   2
 -10   8   0 4586.08 162.487   3
 -10   8   0 4865.92 210.069   2
  10   8   0 4579.47 195.763   1
 -10   8  -1 766.999 79.0735   3
  10   8   1 845.036 95.5577   1
 -10   8  -2 1108.78 99.4510   3
  10   8   2 1047.99 101.951   1
 -10   8  -3 255.913 66.2587   3
  10   8   3 223.828 62.8097   1
  10   8   4 130.957 56.8511   1
 -10   8  -4 163.306 64.2658   3
 -10   8  -5 142.243 68.9461   3
  10   8   5-17.1182 52.3795   1
 -10   8  -6 1433.81 135.395   3
  10   8   6 1354.60 117.814   1
 -10   8  -7 64.3625 60.5332   3
 -10  -8  -7 130.199 55.9761   4
  10   8   7 158.683 61.5144   1
 -10   8  -8 683.547 109.489   3
  10   8   8 738.999 92.7365   1
 -10   8  -9-17.3353 67.4629   3
  10   8   9 116.687 54.4346   1
 -10   8 -10 341.686 97.0882   3
 -10   8 -11 81.4277 80.0383   3
 -10 -10  18 75.7838 97.1792   4
 -10 -10  17 1910.82 182.869   4
  10  10 -17 1782.57 137.142   1
  10  10 -16 66.7453 60.3625   1
 -10 -10  16 199.353 98.2440   4
  10  10 -15 2781.46 165.319   1
 -10 -10  15 2902.83 208.642   4
  10  10 -14 25.3583 54.9298   1
 -10 -10  14 59.4661 78.9795   4
 -10 -10  13 217.281 90.1041   4
  10  10 -13 160.608 64.2775   1
 -10  10  13 143.339 41.7092   4
 -10 -10  12 1.11712 72.2091   4
  10  10 -12 207.229 70.9042   1
 -10  10  12 135.543 45.3860   4
  10  10 -11 2850.76 166.039   1
 -10  10  11 2715.06 127.906   4
  10  10 -10 1761.94 133.253   1
 -10  10  10 1517.29 100.231   4
  10  10  -9 306.107 71.5928   1
 -10  10   9 393.308 62.6734   4
  10  10  -8 134.535 67.7905   1
 -10  10   8 91.9038 45.7026   4
 -10  10   7-17.4197 43.1843   4
  10  10  -7 97.3873 68.0401   1
 -10  10   6 142.323 57.3244   4
  10  10  -6 62.8778 58.7010   1
  10  10  -5 5744.68 229.750   1
 -10  10   5 5384.71 206.563   4
 -10  10   4 737.827 48.0717   3
 -10  10   4 944.549 97.7341   4
  10  10  -4 912.496 105.417   1
 -10  10   3 6352.16 148.329   3
  10  10  -3 7627.70 261.749   1
 -10  10   3 7764.40 257.927   4
 -10  10   2 2578.26 107.768   3
  10  10  -2 2833.74 162.750   1
  10  10  -1 79.6307 55.4696   1
  10  10   0 456.239 82.1238   1
  10  10   1 5357.33 224.130   1
  10  10   2 24.4773 55.9862   1
  10  10   3 4062.25 198.632   1
 -10  10  -4 75.4584 60.9750   3
  10  10   4 10.2059 58.9117   1
 -10  10  -5 392.012 84.0791   3
  10  10   5 539.781 89.2945   1
 -10  10  -6 466.659 93.4430   3
  10  10   6 469.852 84.1941   1
 -10  10  -7 6765.78 282.842   3
  10  10   7 7196.58 260.746   1
 -10  10  -8 19.7779 62.7285   3
  10  10   8 208.283 70.2425   1
 -10  10  -9 3745.87 234.848   3
  10  10   9 4130.27 197.905   1
 -10  10 -10 84.8271 72.0248   3
  10  12 -17-116.369 71.4996   1
 -10 -12  17 155.807 98.8455   4
  10  12 -16 763.316 103.338   1
 -10 -12  16 867.701 138.705   4
  10  12 -15-39.4079 64.5176   1
 -10 -12  15 38.3232 84.8715   4
  10  12 -14 2467.45 167.128   1
 -10 -12  14 2484.36 194.426   4
  10  12 -13 172.135 76.9500   1
 -10 -12  13 193.942 81.5688   4
  10  12 -12 222.711 76.9016   1
 -10 -12  12 142.468 82.7420   4
 -10 -12  11 579.301 105.875   4
 -10  12  11 569.435 69.1514   4
  10  12 -11 477.734 90.5414   1
 -10 -12  10 674.255 116.310   4
 -10  12  10 697.050 77.5888   4
  10  12 -10 762.179 104.291   1
 -10  12   9 283.779 61.1264   4
  10  12  -9 371.796 81.2835   1
  10  12  -8 3415.18 192.165   1
 -10  12   8 3039.45 152.625   4
 -10  12   7 249.258 62.3719   4
  10  12  -7 273.528 79.0602   1
 -10  12   6 617.679 85.1488   4
  10  12  -6 495.669 92.9960   1
 -10  12   5 441.634 77.8724   4
  10  12  -5 298.724 83.6969   1
  10  12  -4 843.495 110.124   1
  10  12  -3 141.786 73.6290   1
  10  12  -2 2755.16 175.185   1
  10  12  -1 1982.79 151.026   1
  10  12   0 5877.88 245.512   1
  10  12   1 40.4126 60.3165   1
  10  12   2 541.990 88.6096   1
  10  12   3 1479.26 130.827   1
  10  12   4 2908.23 177.382   1
  10  12   5 107.136 68.0553   1
  10  12   6 2528.92 170.391   1
 -10  12  -7 18.1244 66.4212   3
  10  12   7 76.9891 61.9191   1
  10  12   8 134.381 69.8783   1
 -10  12  -8 155.276 83.0148   3
 -10  12  -9 76.0552 70.3716   3
  10  14 -16 432.071 98.5586   1
 -10 -14  16 474.805 121.384   4
  10  14 -15 292.291 83.5772   1
 -10 -14  15 347.287 120.736   4
  10  14 -14-105.647 71.3498   1
 -10 -14  14 196.458 101.897   4
  10  14 -13-33.2340 70.3730   1
 -10 -14  13 141.348 92.0873   4
  10  14 -12 122.220 75.8427   1
 -10 -14  12-82.2891 88.2186   4
  10  14 -11 2486.27 180.847   1
 -10 -14  11 2251.20 188.249   4
 -10 -14  10 899.259 131.793   4
  10  14 -10 692.625 108.676   1
 -10 -14   9 1226.21 140.430   4
 -10  14   9 966.396 97.1235   4
  10  14  -9 1084.62 127.641   1
 -10 -14   8 73.9158 75.8669   4
 -10  14   8 74.3721 53.1498   4
  10  14  -8 113.604 69.6656   1
 -10  14   7 306.341 71.6652   4
  10  14  -7 621.473 107.783   1
  10  14  -6 114.056 79.8649   1
  10  14  -5 1467.33 141.370   1
  10  14  -4-107.497 75.6792   1
  10  14  -3 257.338 87.6325   1
  10  14  -2 268.059 80.2418   1
  10  14  -1 79.8846 67.2582   1
  10  14   0 396.868 95.7874   1
  10  14   1 848.606 111.451   1
  10  14   2 67.5122 65.2771   1
  10  14   3 1836.98 155.779   1
  10  14   4 302.211 89.7626   1
  10  14   5 272.460 86.6185   1
  10  14   6 143.729 79.6522   1
  10  14   7 99.8203 69.7968   1
  10  16 -14 1947.40 173.931   1
  10  16 -13 55.5926 79.1863   1
 -10 -16  13-34.6791 97.3507   4
  10  16 -12 1582.99 157.288   1
 -10 -16  12 1625.18 176.571   4
  10  16 -11 285.205 93.1744   1
 -10 -16  11 319.780 99.1860   4
  10  16 -10 98.6475 80.5326   1
 -10 -16  10 216.704 101.321   4
  10  16  -9 124.590 81.6328   1
 -10 -16   9 188.583 87.6585   4
  10  16  -8 2064.42 173.346   1
 -10 -16   8 2139.41 187.952   4
 -10 -16   7 375.419 99.7637   4
  10  16  -7 310.827 92.7075   1
 -10 -16   6 552.488 111.750   4
  10  16  -6 652.230 109.210   1
 -10 -16   5 281.509 83.3568   4
  10  16  -5 437.898 101.289   1
 -10 -16   4 25.3798 71.5402   4
  10  16  -4 135.638 87.8907   1
  10  16  -3 571.453 110.642   1
  10  16  -2 1203.83 148.801   1
  10  16  -1 101.411 79.9425   1
  10  16   0 1109.55 137.066   1
  10  16   1 102.220 77.8899   1
  10  16   2 148.414 77.4653   1
  10  16   3 723.443 118.660   1
  10  16   4 1323.65 147.816   1
  10  16   5 197.094 72.2907   1
  10  18 -11 2868.56 215.681   1
 -10 -18  11 2325.44 226.824   4
  10  18 -10 25.4159 80.9616   1
 -10 -18  10-170.468 107.969   4
  10  18  -9 1394.72 157.005   1
 -10 -18   9 1312.84 166.330   4
  10  18  -8 63.6829 78.6698   1
 -10 -18   8 30.9211 83.1198   4
  10  18  -7 10.9177 79.4475   1
 -10 -18   7 74.9952 89.5962   4
  10  18  -6 26.9072 83.8421   1
 -10 -18   6 4490.68 265.806   4
  10  18  -5 958.566 155.386   1
 -10 -18   5 980.594 134.209   4
  10  18  -4 45.0174 80.3010   1
 -10 -18   4 55.4925 77.1169   4
  10  18  -3 5501.87 297.098   1
 -10 -18   3 597.138 117.078   4
 -10 -18   2 312.638 89.4389   4
  10  18  -2 362.061 112.334   1
 -10 -18   1 516.789 97.3993   4
  10  18  -1 716.842 127.212   1
 -10 -18   0 45.3909 67.0572   4
  10  18   0-102.230 83.9522   1
 -10 -18  -1 1099.95 118.774   4
  10  18   1 1308.66 157.932   1
 -10 -18  -2 446.515 86.7988   4
  10  18   2 499.322 113.780   1
  10  18   3 2349.42 198.273   1
 -11   1  20 49.1370 68.5417   4
 -11  -1  20-92.7643 75.6464   4
 -11  -1  19 1549.59 145.686   4
 -11   1  19 1474.05 131.217   4
 -11  -1  18 226.589 76.4090   4
 -11   1  18 122.830 65.4169   4
  11  -1 -18 224.396 57.4040   2
  11   1 -18 97.8854 53.7019   2
  11  -1 -17 359.700 64.3457   2
 -11  -1  17 387.682 88.9771   4
  11   1 -17 340.846 64.9496   2
 -11   1  16 991.411 89.4482   1
  11   1 -16 1144.28 103.464   2
  11  -1 -16 1023.95 89.9063   2
 -11  -1  15 188.100 55.6322   1
  11   1 -15 239.513 63.4296   2
  11  -1 -15 448.519 73.6063   2
 -11   1  15 293.116 61.2867   1
 -11   1  14 282.662 61.4566   1
  11   1 -14 185.856 60.7568   2
 -11  -1  14 116.020 48.7127   1
  11  -1 -14 198.273 58.3855   2
 -11  -1  13 1116.33 97.7435   1
  11   1 -13 1086.66 98.2057   2
 -11   1  13 1105.18 95.2008   1
  11  -1 -13 1178.70 102.101   2
 -11  -1  12 1024.82 92.0711   1
 -11   1  12 998.544 90.0440   1
  11  -1 -12 914.357 91.0094   2
 -11  -1  11 143.715 56.4677   1
 -11   1  11 100.017 47.9971   1
  11  -1 -11 102.575 51.9781   2
 -11  -1  10 620.528 76.9233   1
  11   1 -10 566.617 74.4478   1
  11  -1 -10 546.500 73.1417   2
 -11   1  10 589.890 74.8406   1
 -11  -1   9 460.153 68.4330   1
  11   1  -9 402.375 64.4188   1
  11  -1  -9 450.131 71.8039   2
 -11   1   9 418.220 66.6883   1
  11   1  -8 280.413 61.3515   1
 -11   1   8 249.620 57.6943   1
 -11  -1   8 271.743 59.6718   1
  11  -1  -8 260.499 63.4415   2
  11   1  -7 4030.88 164.904   1
  11  -1  -7 3967.72 171.286   2
 -11  -1   7 4117.58 169.253   1
 -11   1   7 3996.65 170.289   1
 -11   1   6 5065.89 186.513   1
  11   1  -6 5194.29 185.962   1
  11  -1  -6 5062.66 191.307   2
 -11  -1   6 5301.43 191.219   1
 -11   1   5 3608.22 159.657   1
  11   1  -5 3384.16 152.879   1
  11  -1  -5 3297.83 113.929   3
  11  -1  -5 3444.80 160.141   2
 -11  -1   5 3545.82 155.931   1
 -11   1   4 5055.31 188.268   1
  11  -1  -4 4922.14 143.991   3
  11   1  -4 5115.28 186.235   1
  11  -1  -4 5161.83 194.127   2
 -11  -1   4 5096.28 188.314   1
 -11   1   3 1427.35 104.119   1
  11  -1  -3 1466.23 85.2613   3
  11   1  -3 1425.74 90.7235   3
  11   1  -3 1382.73 107.056   1
  11  -1  -3 1430.11 109.699   2
 -11  -1   3 1448.22 104.824   1
 -11   1   2 6603.86 214.294   1
  11  -1  -2 6569.13 183.841   3
  11   1  -2 6619.93 195.642   3
  11   1  -2 6532.78 211.412   1
  11  -1  -2 6414.23 216.652   2
 -11  -1   2 6651.09 213.796   1
 -11   1   1 12028.9 291.753   1
  11  -1  -1 12103.6 261.191   3
  11   1  -1 11858.6 271.659   3
  11  -1  -1 11958.6 293.128   2
 -11  -1   1 11977.8 288.028   1
  11   1  -1 11825.6 288.293   1
  11  -1   0 777.422 75.5390   3
  11   1   0 833.564 79.0531   3
 -11   1   0 830.922 82.9860   1
 -11  -1   0 814.742 80.5287   1
  11  -1   0 809.446 88.1538   2
  11   1   1 1762.37 116.219   3
  11  -1   1 1735.88 122.570   2
 -11  -1  -1 1708.31 116.414   1
 -11   1  -1 1654.68 115.411   1
 -11   1  -2 82.5694 54.1524   1
  11   1   2 74.1996 52.0559   3
 -11  -1  -2 72.9785 46.6894   1
 -11   1  -2 139.719 52.5760   4
  11   1   2 111.018 58.4218   2
  11  -1   2 95.2160 53.5132   2
 -11  -1  -3-18.2959 45.7729   1
 -11   1  -3 68.0244 49.5790   3
 -11  -1  -3-2.16833 45.9920   4
  11   1   3 9.25594 53.4641   2
  11  -1   3 47.8632 53.3043   2
 -11   1  -3-8.99430 44.6784   1
 -11  -1  -4 120.532 53.8688   1
 -11   1  -4 117.151 58.6146   3
  11   1   4 135.105 52.6527   2
 -11   1  -4 55.5477 45.2147   1
  11  -1   4 136.164 56.4405   2
 -11   1  -5 7252.87 270.208   3
 -11  -1  -5 7084.00 231.789   1
  11   1   5 7297.62 238.454   2
  11  -1   5 7005.11 232.265   2
 -11   1  -5 6927.13 229.896   1
 -11   1  -6 372.705 90.7456   3
 -11   1  -6 272.107 64.6915   1
  11   1   6 327.983 69.6266   2
 -11  -1  -6 292.571 65.7429   1
  11  -1   6 324.601 69.3383   2
  11  -1   7 326.388 66.6811   2
 -11   1  -7 278.193 65.3284   1
 -11   1  -7 257.381 86.0690   3
 -11  -1  -7 183.752 54.2073   1
  11   1   7 367.727 70.1619   2
 -11   1  -8 11566.5 381.234   3
 -11  -1  -8 11281.7 291.361   1
 -11   1  -8 10797.4 288.179   1
 -11  -1  -8 11948.4 388.848   3
  11   1   8 11708.9 290.989   2
  11  -1   8 11140.9 283.717   2
  11   1   9 734.092 80.5118   2
  11  -1   9 709.091 84.8773   2
 -11   1  -9 800.604 121.978   3
 -11  -1  -9 945.289 133.646   3
 -11   1 -10 2450.45 198.846   3
 -11  -1 -10 2410.40 202.300   3
 -11   1 -11 796.523 136.335   3
 -11  -1 -11 759.497 136.678   3
 -11  -3  20 134.179 81.5120   4
  11  -3 -19 788.045 90.0819   3
 -11  -3  19 646.493 111.319   4
 -11   3  19 638.515 89.2917   4
 -11   3  18 806.844 94.7229   4
  11  -3 -18 944.835 91.2446   3
  11   3 -18 1023.25 93.0863   2
 -11  -3  18 973.560 125.377   4
 -11  -3  17 357.421 92.6778   4
  11  -3 -17 363.824 61.3206   3
  11  -3 -17 258.008 59.7941   2
  11   3 -17 347.017 67.5227   2
  11  -3 -16 291.956 60.6181   2
 -11   3  16 292.361 60.4878   1
  11   3 -15-78.2143 51.9871   1
 -11   3  15 1.84201 42.2727   1
  11  -3 -14 33.3458 49.6585   2
  11   3 -14 30.8505 49.0818   1
 -11   3  14 49.9214 43.8066   1
  11   3 -13 82.3247 54.4418   1
 -11  -3  13 124.784 54.7533   1
 -11   3  13-24.2848 46.7186   1
  11  -3 -13 83.3210 50.8110   2
 -11  -3  12 1851.30 122.803   1
  11  -3 -12 1909.32 124.592   2
  11   3 -12 1910.18 121.921   1
 -11   3  12 1691.18 116.455   1
  11   3 -11 500.887 71.0466   1
 -11   3  11 404.351 67.0820   1
 -11  -3  11 447.531 69.0917   1
  11  -3 -11 360.230 69.5812   2
 -11   3  10 2107.28 129.833   1
 -11  -3  10 2401.93 137.715   1
  11   3 -10 2339.30 133.373   1
  11  -3 -10 2251.74 134.577   2
 -11   3   9 8192.62 239.053   1
 -11  -3   9 8137.59 240.893   1
  11   3  -9 8063.14 234.785   1
  11  -3  -9 7804.38 235.597   2
  11  -3  -8 2037.76 61.9231   3
 -11  -3   8 2738.53 143.115   1
 -11   3   8 2594.27 138.198   1
  11   3  -8 2723.08 143.500   1
  11  -3  -8 2681.19 143.573   2
  11  -3  -7 1784.32 60.2578   3
 -11  -3   7 2222.30 129.402   1
  11   3  -7 2243.04 131.613   1
 -11   3   7 2158.62 129.086   1
  11  -3  -7 2145.69 131.482   2
  11   3  -6 285.228 66.3640   1
  11  -3  -6 207.740 28.7258   3
 -11   3   6 191.789 51.4623   1
  11  -3  -6 262.095 62.6126   2
 -11  -3   6 274.479 62.4860   1
  11   3  -5 250.638 61.0960   1
  11  -3  -5 271.418 34.5063   3
 -11   3   5 259.260 60.3912   1
  11  -3  -5 283.017 63.3165   2
 -11  -3   5 201.088 54.7585   1
  11  -3  -4 3212.13 104.433   3
 -11  -3   4 3649.08 163.479   1
  11   3  -4 3298.44 155.898   1
  11  -3  -4 3485.19 163.095   2
 -11   3   4 3355.81 156.701   1
 -11  -3   3 2259.79 131.398   1
  11   3  -3 2227.12 129.910   1
  11  -3  -3 2285.05 136.618   2
 -11   3   3 2308.71 132.667   1
 -11  -3   2 428.646 67.6209   1
  11   3  -2 442.907 72.7778   1
  11   3  -2 385.487 63.5335   3
 -11   3   2 465.007 72.3897   1
  11  -3  -2 513.917 80.7882   2
  11   3  -1 2145.22 125.132   3
 -11  -3   1 2232.42 132.327   1
  11  -3  -1 2103.84 127.976   2
 -11   3   1 2063.01 127.310   1
  11   3  -1 1986.57 126.149   1
  11   3   0 1059.68 92.9286   3
 -11   3   0 1030.17 87.1380   3
 -11  -3   0 1121.48 96.0258   1
 -11   3   0 1020.00 99.5933   4
 -11   3   0 1042.26 94.1307   1
  11  -3   0 1050.20 99.8453   2
  11   3   0 1098.24 99.0397   1
  11   3   1 2430.91 144.285   3
 -11   3  -1 2105.52 125.195   3
 -11  -3  -1 2152.98 129.162   1
 -11   3  -1 2148.95 141.483   4
 -11   3  -1 2129.18 131.321   1
  11  -3   1 2199.59 135.069   2
  11   3   1 2094.94 130.593   1
  11   3   2 4521.24 188.880   1
  11   3   2 4459.43 193.104   3
 -11   3  -2 4399.58 183.800   3
 -11  -3  -2 4389.55 184.454   1
 -11   3  -2 4561.07 186.599   1
  11  -3   2 4396.46 185.147   2
  11   3   3 136.201 58.6989   1
 -11   3  -3 98.8147 53.4648   3
 -11  -3  -3-3.18022 47.6162   1
 -11   3  -3 183.159 63.1937   1
  11  -3   3 115.614 57.9932   2
  11  -3   4 371.626 72.3928   2
 -11   3  -4 269.910 64.9460   3
 -11   3  -4 407.714 71.2559   1
 -11  -3  -4 296.884 71.7360   1
 -11   3  -5 2706.41 149.366   1
 -11   3  -5 2588.21 166.540   3
 -11  -3  -5 2627.90 147.491   1
  11  -3   5 2570.07 147.936   2
  11  -3   6 10.8724 48.2271   2
 -11   3  -6-14.9802 50.0978   1
 -11   3  -6 101.962 65.1691   3
 -11  -3  -6 9.84568 49.1807   1
  11   3   6 30.9370 49.5830   2
 -11   3  -7 2611.29 186.155   3
 -11  -3  -7 2462.15 142.216   1
  11   3   7 2591.50 148.279   2
 -11   3  -7 2533.44 149.255   1
  11  -3   7 2332.10 142.626   2
  11  -3   8 444.361 75.2803   2
 -11   3  -8 385.241 102.164   3
 -11   3  -8 323.963 65.8980   1
  11   3   8 456.920 75.9118   2
 -11   3  -9 73.9757 70.9809   3
  11   3   9 24.2287 46.8681   2
 -11   3 -10 256.018 102.798   3
 -11   3 -11 70.1375 88.8202   3
 -11  -5  20-1.58148 79.9279   4
 -11  -5  19-94.4261 88.8058   4
 -11   5  18 49.5729 49.8056   4
 -11  -5  18 155.664 87.4714   4
 -11  -5  17 325.084 99.0468   4
  11  -5 -17 343.022 52.3818   3
  11   5 -17 361.688 67.0938   1
  11  -5 -16 2874.25 113.165   3
  11   5 -16 3373.31 163.138   1
 -11   5  16 2874.26 147.214   1
 -11  -5  16 3255.01 206.018   4
  11  -5 -15 3002.98 102.855   3
  11   5 -15 3672.83 169.371   1
 -11   5  15 3217.09 157.455   1
  11   5 -14 180.061 57.5719   1
  11  -5 -14 181.220 57.6394   2
  11  -5 -14 161.800 28.0129   3
 -11   5  14 147.036 50.0557   1
  11  -5 -13 191.177 57.3891   2
  11  -5 -13 100.924 20.9123   3
  11   5 -13 183.833 60.4639   1
 -11   5  13 178.137 57.4387   1
  11  -5 -12 15.5587 50.6004   2
 -11   5  12 44.8146 45.9497   1
  11  -5 -12 34.0832 11.3105   3
  11   5 -12 68.9873 58.2491   1
  11  -5 -11 426.419 71.2501   2
 -11   5  11 391.114 72.9730   1
  11   5 -11 371.517 72.5453   1
  11   5 -10 1410.85 111.790   1
  11  -5 -10 1558.15 114.713   2
 -11   5  10 1411.22 112.882   1
  11  -5  -9 244.385 62.6471   2
 -11   5   9 268.376 62.2540   1
  11   5  -9 160.025 56.2029   1
 -11  -5   9 214.052 58.8934   1
  11  -5  -8 134.169 57.7716   2
  11   5  -8 87.5044 56.1076   1
 -11  -5   8 59.9597 48.9822   1
 -11   5   8 64.7306 50.1378   1
  11  -5  -7 68.2398 49.4849   2
 -11   5   7 119.378 55.1976   1
  11   5  -7 149.797 56.9894   1
 -11  -5   7 93.0655 50.4415   1
 -11  -5   6 1572.65 113.442   1
 -11   5   6 1483.61 111.882   1
  11  -5  -6 1401.99 109.682   2
  11   5  -6 1427.56 110.996   1
  11  -5  -5 259.389 62.7831   2
 -11   5   5 315.167 63.1189   1
  11   5  -5 347.422 68.1915   1
 -11  -5   5 334.080 62.4409   1
 -11  -5   4 9870.74 274.688   1
 -11   5   4 9856.48 274.172   1
  11  -5  -4 9419.46 264.917   2
  11   5  -4 9600.11 268.878   1
  11   5  -3 3374.67 162.368   1
 -11  -5   3 3670.40 168.699   1
 -11   5   3 3677.95 170.469   1
  11  -5  -3 3360.41 161.338   2
  11  -5  -2 667.149 86.0347   2
 -11   5   2 685.646 85.2423   1
 -11   5   2 600.609 62.9543   3
 -11   5   2 713.043 87.6217   4
  11   5  -2 676.281 87.8434   1
 -11  -5   2 631.985 82.3141   1
  11   5  -1 2362.71 142.004   1
 -11   5   1 2311.85 114.523   3
 -11  -5   1 2422.70 140.695   1
  11   5  -1 2323.08 139.026   3
 -11   5   1 2396.35 141.019   1
 -11   5   1 2342.36 144.951   4
  11  -5  -1 2353.54 140.656   2
  11  -5   0 173.213 64.1377   2
 -11   5   0 139.679 58.3506   1
 -11   5   0 45.0087 45.4397   3
  11   5   0 97.2149 54.6669   3
 -11   5   0 70.6983 55.0795   4
 -11  -5   0-40.8821 51.4378   1
  11   5   0 40.3339 52.8552   1
  11  -5   1 8.42824 51.2520   2
 -11   5  -1 79.6046 49.3972   3
 -11  -5  -1-17.5755 44.7485   1
 -11   5  -1 142.625 61.4866   1
  11   5   1 54.6937 59.6861   1
 -11   5  -2 1173.09 105.207   1
 -11   5  -2 1217.02 105.175   3
 -11  -5  -2 1246.70 107.857   1
  11   5   2 1177.74 106.082   1
  11  -5   2 1233.89 111.745   2
 -11   5  -3 283.734 66.1860   1
  11  -5   3 279.967 72.0736   2
  11   5   3 303.606 68.5681   1
 -11   5  -3 286.470 64.5717   3
 -11  -5  -3 235.800 65.0843   1
  11  -5   4 52.5724 61.2633   2
 -11   5  -4 87.8845 60.0534   3
  11   5   4-16.3177 49.3142   1
 -11   5  -4 10.8133 48.4287   1
  11   5   5 288.883 71.1144   1
  11  -5   5 354.426 73.8012   2
 -11   5  -5 291.892 69.4949   3
 -11   5  -5 260.572 63.6633   1
 -11   5  -6 350.726 74.1801   1
  11   5   6 414.175 72.6854   1
 -11   5  -6 369.621 82.6045   3
 -11   5  -7 108.239 67.3938   3
 -11   5  -8 2986.55 198.239   3
  11   5   8 3043.91 163.962   2
 -11   5  -9 385.145 103.707   3
  11   5   9 403.027 69.4713   2
 -11   5 -10 1779.80 175.892   3
 -11   5 -11 320.839 111.919   3
 -11  -7  19-12.2281 96.2728   4
  11   7 -18 356.837 73.5826   1
 -11  -7  18 233.086 97.6562   4
  11   7 -17 127.904 61.1031   1
 -11  -7  17 125.940 90.8694   4
 -11  -7  16 1454.90 155.970   4
  11   7 -16 1473.82 120.943   1
 -11  -7  15 1336.20 145.535   4
  11   7 -15 1516.45 121.986   1
 -11   7  15 1229.90 106.261   1
  11   7 -14 15.9857 54.4748   1
 -11   7  14 129.385 57.7008   1
 -11   7  13 1955.39 133.534   1
  11   7 -13 2149.58 142.304   1
 -11   7  12 1762.23 128.115   1
  11   7 -12 1761.17 130.296   1
  11   7 -11 1021.94 104.436   1
  11  -7 -11 1171.63 105.274   2
 -11   7  11 991.969 101.716   1
  11   7 -10 8389.32 262.992   1
  11  -7 -10 8492.58 255.572   2
  11   7  -9 1788.99 129.905   1
  11  -7  -9 1752.78 125.261   2
  11   7  -8 1663.85 127.273   1
  11  -7  -8 1778.18 127.899   2
 -11   7   7 2038.33 141.284   2
  11   7  -7 2138.33 140.656   1
  11  -7  -7 2147.11 136.584   2
  11  -7  -6 71.4123 54.2507   2
  11   7  -6 89.9009 57.6007   1
 -11   7   6 137.788 61.3394   2
 -11   7   5 3395.64 165.316   4
 -11   7   5 3393.28 179.978   2
  11   7  -5 3351.19 169.540   1
  11  -7  -5 3403.26 171.234   2
  11  -7  -4 785.507 94.0183   2
 -11   7   4 870.472 96.6775   4
 -11   7   4 708.853 92.4440   2
  11   7  -4 726.658 88.7160   1
 -11   7   3 8386.93 173.625   3
 -11   7   3 9066.80 274.526   4
 -11   7   3 9076.80 283.941   2
  11   7  -3 8648.96 263.041   1
  11  -7  -3 8669.38 267.388   2
  11  -7  -2 60.1503 62.0820   2
 -11   7   2 38.2141 35.8419   3
 -11   7   2 89.8893 56.4580   4
  11   7  -2 55.8017 57.1368   1
 -11   7   1 6981.82 187.656   3
  11   7  -1 7595.12 252.395   1
  11  -7  -1 7427.79 249.263   2
 -11   7   0 1939.25 111.388   3
  11   7   0 1996.38 135.479   1
  11  -7   0 1924.23 134.609   2
 -11   7  -1 4540.02 177.406   3
  11   7   1 4898.30 206.088   1
  11  -7   1 4673.56 202.653   2
 -11   7  -2 3028.00 155.324   3
  11  -7   2 3145.33 169.346   2
  11   7   2 3295.60 173.932   1
 -11   7  -3 395.184 73.9986   3
  11   7   3 362.351 75.5334   1
 -11   7  -4 819.410 101.069   3
  11   7   4 1034.46 107.844   1
 -11   7  -5 2358.60 164.851   3
  11   7   5 2459.19 152.663   1
 -11   7  -6 53.5676 62.7618   3
  11   7   6 52.1362 55.0289   1
 -11  -7  -6-32.1408 50.0346   4
 -11   7  -7 3211.88 196.942   3
  11   7   7 3415.68 175.487   1
 -11   7  -8 332.945 82.4209   3
  11   7   8 335.446 70.3972   1
 -11   7  -9-28.2223 69.2131   3
 -11   7 -10 289.466 98.1596   3
  11   9 -18 683.343 96.1063   1
 -11  -9  18 731.932 134.934   4
  11   9 -17-16.6113 56.0093   1
 -11  -9  17 58.0499 87.3059   4
  11   9 -16 141.484 63.9097   1
 -11  -9  16-14.0383 81.9047   4
 -11  -9  15 879.502 129.435   4
  11   9 -15 882.579 103.508   1
 -11  -9  14 609.965 113.305   4
  11   9 -14 682.418 94.3787   1
  11   9 -13 1352.31 122.434   1
  11   9 -12 1908.08 143.969   1
  11   9 -11 248.308 69.1132   1
 -11   9  11 263.957 57.1923   4
  11   9 -10 1106.98 112.594   1
 -11   9  10 1087.82 93.0709   4
 -11   9   9 1423.15 105.968   4
  11   9  -9 1591.11 129.703   1
  11   9  -8 802.059 99.5092   1
 -11   9   8 769.380 88.7606   4
 -11   9   7 1682.51 119.998   4
  11   9  -7 1438.27 125.025   1
  11   9  -6 177.583 70.2838   1
 -11   9   6 243.460 64.0581   4
  11   9  -5 134.057 64.1046   1
 -11   9   5 191.912 64.2685   4
 -11   9   4 3024.76 90.8651   3
 -11   9   4 3644.50 181.084   4
  11   9  -4 3619.99 185.106   1
 -11   9   3 622.447 53.8448   3
  11   9  -3 765.780 94.6851   1
 -11   9   2 112.733 39.7657   3
  11   9  -2 154.966 69.7887   1
 -11   9   1 706.017 72.4734   3
  11   9  -1 896.414 104.368   1
 -11   9   0 1398.30 99.3179   3
  11   9   0 1431.33 123.028   1
 -11   9  -1 665.273 80.9641   3
  11   9   1 809.981 98.2271   1
 -11   9  -2 1875.58 128.561   3
  11   9   2 1950.92 141.716   1
 -11   9  -3 164.923 60.9241   3
  11   9   3 102.371 59.2048   1
  11   9   4 425.670 82.3741   1
 -11   9  -4 471.262 82.7349   3
  11   9   5 1717.83 139.583   1
 -11   9  -5 1619.60 139.161   3
 -11   9  -6 61.7941 69.3441   3
  11   9   6 46.9620 58.5606   1
 -11   9  -7 1613.62 156.021   3
  11   9   7 1900.46 143.596   1
 -11   9  -8 12.1924 68.0093   3
  11   9   8 34.4481 57.6874   1
 -11   9  -9 784.063 119.818   3
  11  11 -17-9.87409 61.3868   1
 -11 -11  17 110.570 99.6890   4
  11  11 -16 197.572 77.9372   1
 -11 -11  16 299.460 103.052   4
  11  11 -15 1348.52 129.362   1
 -11 -11  15 1432.50 167.011   4
 -11 -11  14 86.2860 83.1072   4
  11  11 -14-57.7705 63.5274   1
 -11 -11  13 974.114 136.811   4
  11  11 -13 808.403 104.241   1
 -11 -11  12 727.621 119.104   4
  11  11 -12 724.951 105.000   1
 -11  11  12 662.370 74.5206   4
  11  11 -11 203.063 73.9316   1
 -11  11  11 87.0993 49.7575   4
  11  11 -10-15.9199 59.2829   1
 -11  11  10 54.7881 49.5355   4
  11  11  -9 107.887 69.0261   1
 -11  11   9 28.9746 48.2572   4
  11  11  -8 152.213 66.8501   1
 -11  11   8 220.832 62.7213   4
  11  11  -7-0.97848 60.8560   1
 -11  11   7 123.070 54.7004   4
  11  11  -6 926.815 109.028   1
 -11  11   6 748.889 88.6863   4
  11  11  -5 237.898 76.6085   1
 -11  11   5 144.753 22.1144   3
  11  11  -4 111.801 66.0531   1
 -11  11   4 109.813 29.8586   3
  11  11  -3 14.5156 60.6644   1
 -11  11   3-42.8218 34.0167   3
  11  11  -2 391.985 79.5414   1
 -11  11   2 533.987 61.6095   3
 -11  11   1 5222.80 176.080   3
  11  11  -1 5470.75 236.037   1
 -11  11   0 412.054 66.1764   3
  11  11   0 380.062 81.2375   1
 -11  11  -1 559.420 80.3050   3
  11  11   1 541.976 88.0400   1
 -11  11  -2 1651.64 126.296   3
  11  11   2 1729.88 143.945   1
 -11  11  -3 305.294 74.9805   3
  11  11   3 264.623 73.3428   1
 -11  11  -4 62.9067 59.7029   3
  11  11   4 281.587 81.9402   1
 -11  11  -5 702.311 101.304   3
  11  11   5 831.415 107.734   1
 -11  11  -6 1777.17 155.334   3
  11  11   6 1927.86 148.205   1
 -11  11  -7 922.863 123.176   3
  11  11   7 919.387 113.670   1
 -11  11  -8 776.094 119.957   3
  11  11   8 881.750 114.062   1
  11  13 -16 886.878 119.166   1
 -11 -13  16 1047.29 150.934   4
  11  13 -15-77.0844 66.5793   1
 -11 -13  15-63.3788 82.8610   4
  11  13 -14 28.3516 67.1515   1
 -11 -13  14 10.1736 86.8396   4
  11  13 -13 90.1959 72.7136   1
 -11 -13  13-53.0330 83.8322   4
 -11 -13  12 1502.24 163.222   4
  11  13 -12 1407.10 136.082   1
  11  13 -11 132.313 76.1687   1
 -11 -13  11 46.1027 76.4612   4
 -11 -13  10 1945.94 173.480   4
  11  13 -10 2304.28 169.294   1
 -11  13  10 1933.24 126.230   4
  11  13  -9 1708.68 150.053   1
 -11  13   9 1621.24 120.007   4
  11  13  -8 1673.56 149.486   1
 -11  13   8 1354.82 113.490   4
  11  13  -7 1279.45 131.336   1
  11  13  -6 2251.54 171.650   1
 -11  13   5 229.576 31.9019   3
  11  13  -5 442.405 94.8675   1
 -11  13   4 1130.09 68.1193   3
  11  13  -4 1720.33 147.156   1
  11  13  -3-20.3667 66.3637   1
  11  13  -2 105.672 70.6714   1
  11  13  -1 919.227 116.616   1
  11  13   0 522.710 99.8509   1
  11  13   1 378.804 87.9164   1
  11  13   2 3577.05 207.477   1
  11  13   3 15.8272 66.6893   1
  11  13   4 2273.72 175.159   1
 -11  13  -5 188.812 74.9818   3
  11  13   5 116.841 76.1764   1
 -11  13  -6 212.000 92.2398   3
  11  13   6-44.7560 71.1211   1
  11  13   7 174.853 71.2158   1
 -11  13  -7 167.118 79.1892   3
  11  15 -14 209.987 84.0303   1
 -11 -15  14 208.429 100.885   4
  11  15 -13 551.818 112.602   1
 -11 -15  13 653.055 131.169   4
  11  15 -12 47.4360 71.6238   1
 -11 -15  12 81.2529 85.4741   4
  11  15 -11 92.3848 86.2224   1
 -11 -15  11 136.176 93.1576   4
 -11 -15  10 413.984 112.500   4
  11  15 -10 444.369 104.473   1
 -11 -15   9 881.997 131.972   4
  11  15  -9 960.697 129.029   1
 -11 -15   8 415.016 99.4319   4
  11  15  -8 368.811 97.0749   1
  11  15  -7 448.054 102.877   1
  11  15  -6 1089.54 133.173   1
  11  15  -5 158.997 81.6261   1
  11  15  -4 974.329 136.043   1
  11  15  -3 1139.52 138.812   1
  11  15  -2 837.917 131.019   1
  11  15  -1 475.173 106.009   1
  11  15   0 156.717 82.7296   1
  11  15   1 70.6542 74.8430   1
  11  15   2 360.338 95.3576   1
  11  15   3 165.630 81.5883   1
  11  15   4 258.138 87.6024   1
  11  15   5 246.072 87.5760   1
  11  17 -12 333.201 108.882   1
 -11 -17  12 296.155 115.467   4
  11  17 -11-37.0635 86.3340   1
 -11 -17  11 195.422 97.4819   4
  11  17 -10 78.9218 83.6414   1
 -11 -17  10 319.416 99.8143   4
  11  17  -9 1666.12 170.259   1
 -11 -17   9 1334.26 167.643   4
  11  17  -8 529.390 111.292   1
 -11 -17   8 468.033 117.987   4
 -11 -17   7 1208.62 160.976   4
  11  17  -7 1289.44 157.662   1
 -11 -17   6 552.107 110.864   4
  11  17  -6 840.677 129.992   1
 -11 -17   5 19.5400 71.8279   4
  11  17  -5 159.410 95.4319   1
  11  17  -4 1988.93 193.263   1
 -11 -17   4 1749.84 176.738   4
 -11 -17   3 61.6887 75.2699   4
  11  17  -3 119.237 80.2258   1
  11  17  -2 213.556 99.1930   1
  11  17  -1 1169.92 162.385   1
  11  17   0 43.8396 80.2031   1
  11  17   1-37.2482 76.3806   1
  11  17   2 113.776 84.6254   1
  11  17   3 39.2418 75.9384   1
  11  19  -7 882.431 158.757   1
 -11 -19   7 747.052 133.804   4
  11  19  -6 23.0775 81.3894   1
 -11 -19   6 0.18376 78.0167   4
  11  19  -5 1426.33 184.125   1
 -11 -19   5 1380.57 158.950   4
  11  19  -4 69.7223 84.9628   1
 -11 -19   4 171.202 90.2192   4
  11  19  -3 130.674 98.4700   1
 -11 -19   3 141.245 87.3906   4
  11  19  -2-4.67905 84.6808   1
 -11 -19   2 108.470 83.2780   4
 -12   0  20 1535.57 145.537   4
 -12   0  19-20.2096 67.3627   4
  12   0 -18 32.8991 52.0103   2
  12   0 -17 28.8338 50.1946   2
 -12   0  16 1994.28 127.631   1
  12   0 -16 2272.64 141.218   2
  12   0 -15-48.1323 55.9641   2
 -12   0  15 32.3661 48.6685   1
 -12   0  14 6935.12 232.211   1
  12   0 -14 7129.30 236.304   2
 -12   0  13-36.8408 47.6180   1
  12   0 -13 22.4756 54.8595   2
 -12   0  12 1223.96 104.448   1
  12   0 -12 1378.27 115.874   2
 -12   0  11 56.8895 52.7764   1
  12   0 -11-43.1282 54.4608   2
 -12   0  10 137.476 57.2581   1
  12   0 -10 110.121 55.6458   2
 -12   0   9-0.71450 45.1685   1
 -12   0   8 962.014 91.7983   1
 -12   0   7 81.2715 47.1581   1
 -12   0   6 178.226 59.7632   1
  12   0  -5-13.2597 31.9679   3
 -12   0   5-41.7336 48.5956   1
  12   0  -4 5677.18 170.101   3
 -12   0   4 6192.51 215.023   1
  12   0  -3 2.64498 33.2325   3
 -12   0   3-92.2681 51.8088   1
  12   0  -2 24764.3 383.728   3
  12   0  -2 25651.7 446.488   2
 -12   0   2 25885.4 440.205   1
  12   0  -1 9.17480 39.2087   3
  12   0  -1-8.43360 58.0320   2
 -12   0   1-12.2074 45.3230   1
  12   0   0 4523.55 183.314   3
  12   0   0 4401.91 191.486   2
 -12   0   0 4371.70 183.614   1
  12   0   1 3.24603 47.7821   3
  12   0   1 2.67214 54.0327   2
 -12   0  -1 125.315 56.2504   1
 -12   0  -2 123.850 60.5566   1
  12   0   2 128.177 65.1850   2
 -12   0  -3-11.1796 48.0466   1
  12   0   3-11.1625 52.8443   2
 -12   0  -4 6336.23 229.919   1
  12   0   4 6409.11 235.719   2
 -12   0  -5 10.9489 49.8692   1
  12   0   5 32.2456 53.1529   2
 -12   0  -6 3844.86 181.428   1
  12   0   6 4097.25 189.403   2
 -12   0  -7 45.2032 76.3547   3
 -12   0  -7 73.9009 61.4618   1
  12   0   7-26.4852 54.0088   2
  12   0   8 204.297 64.9214   2
 -12   0  -8 198.150 86.6674   3
  12   0   9-0.97141 47.4511   2
 -12   0  -9 137.988 94.1600   3
 -12   0 -10 3336.09 234.857   3
 -12  -2  20 33.5640 74.6294   4
 -12  -2  19 314.123 89.7257   4
 -12   2  19 365.809 88.8034   4
 -12  -2  18-27.1986 69.0714   4
  12  -2 -18 48.0992 47.7349   2
  12   2 -18-53.4775 56.1334   2
  12   2 -17 2998.13 157.025   2
  12  -2 -17 2737.41 147.546   2
  12  -2 -16 16.2704 50.1477   2
 -12   2  16 25.0207 45.3224   1
  12   2 -16 70.0475 60.0244   2
 -12  -2  15 1083.46 101.329   1
  12   2 -15 1173.47 108.903   2
 -12   2  15 1034.08 98.0214   1
  12  -2 -15 1096.18 103.046   2
 -12   2  14 586.030 81.0559   1
 -12  -2  14 556.328 79.1455   1
  12  -2 -14 634.544 86.6172   2
  12   2 -13 201.108 62.2897   1
 -12   2  13 260.020 62.9884   1
 -12  -2  13 259.795 62.8113   1
  12  -2 -13 158.496 59.8115   2
  12   2 -12 3495.42 168.175   1
 -12  -2  12 3564.25 170.373   1
  12  -2 -12 3355.18 169.173   2
 -12   2  12 3294.75 163.594   1
  12   2 -11 2711.16 148.872   1
 -12  -2  11 2580.77 149.054   1
  12  -2 -11 2649.68 151.398   2
 -12   2  11 2477.89 143.739   1
 -12   2  10 650.689 86.0135   1
 -12  -2  10 1354.20 121.050   1
  12   2 -10 676.790 84.2514   1
  12  -2 -10 626.517 83.7307   2
 -12   2   9 2696.40 151.000   1
 -12  -2   9 2923.73 155.690   1
  12  -2  -9 2920.99 157.386   2
  12   2  -9 2842.96 149.951   1
 -12  -2   8 365.408 65.3511   1
  12   2  -8 437.059 74.0086   1
 -12   2   8 427.757 71.0735   1
  12  -2  -8 396.088 73.4210   2
  12   2  -7 129.858 58.6140   1
 -12  -2   7 43.7129 50.3719   1
  12  -2  -7 94.4195 30.0434   3
 -12   2   7 30.0119 44.0634   1
  12  -2  -7 104.079 54.7810   2
  12  -2  -6 1001.21 61.1035   3
 -12   2   6 1239.73 105.545   1
 -12  -2   6 1053.32 94.7110   1
  12  -2  -6 1132.79 104.973   2
  12   2  -6 1121.86 100.752   1
  12  -2  -5 2778.72 104.976   3
 -12   2   5 2976.42 154.983   1
 -12  -2   5 2946.26 151.808   1
  12  -2  -5 2843.22 155.368   2
  12   2  -5 2904.60 151.706   1
  12  -2  -4 639.050 59.0413   3
  12   2  -4 694.786 85.0030   1
 -12  -2   4 699.980 82.6458   1
  12  -2  -4 649.119 85.2831   2
 -12   2   4 590.138 79.8668   1
  12  -2  -3 553.726 60.3382   3
 -12  -2   3 491.311 73.6999   1
  12   2  -3 553.971 70.2792   3
  12   2  -3 518.335 81.4014   1
 -12   2   3 500.083 76.8419   1
  12  -2  -3 478.066 79.4902   2
  12  -2  -2 22.3234 35.7729   3
 -12  -2   2 41.8701 44.1234   1
  12   2  -2 42.0658 46.2480   3
  12   2  -2-25.5418 51.2707   1
 -12   2   2 45.0344 46.5100   1
  12  -2  -2 3.41730 51.7354   2
  12   2  -1 288.472 69.7828   1
 -12  -2   1 333.119 65.0725   1
  12   2  -1 224.399 55.1611   3
 -12   2   1 291.004 61.1971   1
  12  -2  -1 213.620 65.5579   2
  12   2   0 1925.58 139.884   3
 -12   2   0 1891.50 127.839   1
  12   2   0 1855.91 128.151   1
 -12  -2   0 1922.68 128.564   1
  12  -2   0 1877.67 131.635   2
  12   2   1 5634.12 218.180   3
 -12   2  -1 5782.11 216.557   1
 -12  -2  -1 5953.18 219.331   1
  12  -2   1 5898.42 225.112   2
 -12  -2  -2 106.348 55.5411   1
 -12   2  -2 98.8433 51.7122   1
  12  -2   2 180.764 61.8173   2
 -12   2  -3 7201.79 257.903   3
 -12  -2  -3 7322.54 245.497   1
  12   2   3 7541.62 255.398   2
  12  -2   3 7430.22 251.684   2
 -12   2  -3 7394.59 248.192   1
 -12   2  -4 1042.34 113.776   3
  12   2   4 1129.31 109.487   2
 -12   2  -4 1100.23 108.171   1
 -12  -2  -4 1016.23 101.567   1
  12  -2   4 1054.19 104.246   2
 -12   2  -5 1647.70 146.915   3
 -12  -2  -5 1515.57 123.431   1
  12   2   5 1656.70 125.986   2
  12  -2   5 1582.17 124.352   2
 -12   2  -5 1385.97 116.778   1
 -12   2  -6 2042.25 162.897   3
 -12  -2  -6 1962.52 134.891   1
  12   2   6 2183.63 142.701   2
  12  -2   6 2070.40 139.022   2
 -12   2  -7 2264.84 178.565   3
 -12  -2  -7 2108.31 137.639   1
  12   2   7 2401.87 148.764   2
  12  -2   7 2145.01 142.149   2
  12  -2   8 38.8357 50.5388   2
 -12   2  -8 148.302 82.2744   3
  12   2   8-34.7238 53.9594   2
 -12   2  -9 1234.43 146.433   3
  12   2   9 1270.71 105.321   2
  12  -2   9 1065.82 101.590   2
 -12   2 -10-23.4349 86.2311   3
 -12  -4  20 394.658 105.480   4
 -12  -4  19 200.080 92.7091   4
 -12  -4  18 1526.26 155.051   4
  12   4 -18 1633.17 122.722   2
 -12  -4  17 312.217 89.8725   4
  12  -4 -17 312.613 69.5260   2
  12  -4 -17 291.322 49.9105   3
  12  -4 -16 422.397 76.0535   2
  12  -4 -16 355.539 48.3534   3
  12   4 -16 274.371 62.3306   1
 -12   4  16 293.421 64.2169   1
  12  -4 -15 292.245 69.0439   2
  12  -4 -15 192.085 36.4071   3
  12   4 -15 281.846 70.7297   1
 -12   4  15 236.563 61.4276   1
  12  -4 -14 160.773 60.3048   2
 -12   4  14 199.357 62.3629   1
  12  -4 -14 132.522 28.0040   3
  12   4 -14 359.482 75.8181   1
  12  -4 -13 218.995 66.8922   2
  12   4 -13 298.339 71.8149   1
 -12   4  12 1045.09 102.881   1
 -12  -4  12 1162.63 108.768   1
  12   4 -12 1111.63 102.828   1
  12  -4 -12 1216.72 108.399   2
  12   4 -11 271.727 64.9310   1
 -12  -4  11 160.742 57.9334   1
 -12   4  11 278.417 66.1662   1
  12  -4 -11 167.867 60.9559   2
  12   4 -10 279.580 67.2408   1
 -12   4  10 368.781 68.8638   1
 -12  -4  10 397.504 71.6996   1
  12  -4 -10 416.948 78.1559   2
 -12   4   9 204.510 63.1761   1
 -12  -4   9 154.211 57.4064   1
  12  -4  -9 219.259 66.3300   2
  12   4  -9 208.398 65.5509   1
 -12  -4   8 5505.68 213.264   1
  12   4  -8 5187.42 204.592   1
  12  -4  -8 5224.99 206.953   2
 -12   4   8 5196.01 205.461   1
 -12   4   7 284.188 64.9435   1
 -12  -4   7 340.312 69.0703   1
  12   4  -7 259.217 66.3083   1
  12  -4  -7 322.676 72.3020   2
  12   4  -6 7488.21 243.985   1
 -12  -4   6 7389.96 246.035   1
  12  -4  -6 7285.14 242.456   2
 -12   4   6 7286.85 243.131   1
 -12   4   5 100.369 53.5757   1
 -12  -4   5 68.9184 50.0300   1
  12   4  -5 120.063 56.5262   1
  12  -4  -5 55.5561 54.4743   2
 -12  -4   4 1777.91 122.508   1
  12   4  -4 1673.25 126.361   1
  12  -4  -4 1803.04 127.763   2
 -12   4   4 1701.88 123.117   1
 -12  -4   3 2114.53 133.041   1
  12   4  -3 2086.47 134.090   1
  12  -4  -3 1901.73 133.574   2
 -12   4   3 1986.55 132.870   1
  12   4  -2 4133.37 178.022   3
 -12  -4   2 4054.46 183.645   1
  12   4  -2 3956.08 180.543   1
  12  -4  -2 3962.40 183.528   2
 -12   4   2 3951.75 181.816   1
  12   4  -1 1381.20 114.017   3
 -12  -4   1 1264.70 107.064   1
  12   4  -1 1281.89 110.239   1
  12  -4  -1 1371.36 116.246   2
 -12   4   1 1237.12 108.876   1
  12   4   0 4961.67 210.706   3
 -12   4   0 5088.29 188.651   3
 -12  -4   0 5229.39 210.618   1
  12   4   0 5272.40 208.907   1
  12  -4   0 5342.32 212.884   2
 -12   4   0 5226.42 211.898   1
  12  -4   1 92.8194 60.9375   2
 -12   4  -1-17.0588 50.7288   3
  12   4   1 72.3450 53.9805   1
 -12  -4  -1 4.42735 48.8204   1
  12  -4   2 505.837 83.9329   2
  12   4   2 509.510 80.4915   1
 -12   4  -2 477.646 76.6056   3
 -12  -4  -2 548.828 80.1587   1
  12  -4   3 163.299 67.1910   2
 -12   4  -3 187.494 63.4765   3
 -12  -4  -3 139.000 60.7952   1
  12   4   3 157.522 57.5073   1
 -12   4  -4 1832.65 141.229   3
  12   4   4 1973.55 134.688   1
  12  -4   4 1949.15 139.477   2
 -12   4  -5 1200.37 119.111   3
  12  -4   5 1350.01 121.408   2
 -12   4  -6 4594.26 233.438   3
  12   4   6 5098.19 215.644   2
  12  -4   6 4532.18 204.358   2
  12  -4   7-5.71692 51.9419   2
 -12   4  -7-68.4865 69.1012   3
  12   4   7-20.7263 57.3039   2
 -12   4  -8 875.772 129.385   3
  12   4   8 887.101 102.422   2
 -12   4  -9 142.321 87.6939   3
 -12   4 -10 117.570 82.8668   3
 -12  -6  19 75.9109 89.8734   4
 -12  -6  18 111.733 93.1870   4
  12   6 -18 106.434 57.0554   1
 -12  -6  17 1382.69 150.370   4
  12   6 -17 1634.10 127.882   1
  12   6 -16 318.502 72.0881   1
  12   6 -15 32.7620 55.6820   1
 -12   6  15 89.9097 55.2365   1
  12  -6 -14 70.4772 52.9638   2
  12   6 -14 124.418 61.8206   1
 -12   6  14 103.045 56.5970   1
 -12   6  13 513.678 77.1180   1
  12  -6 -13 544.740 82.4384   2
  12   6 -13 563.523 85.8456   1
  12  -6 -12 430.763 75.9469   2
  12   6 -12 311.112 73.2021   1
  12   6 -11 2894.84 160.909   1
  12  -6 -11 3100.81 165.305   2
  12  -6 -10 75.0275 60.1951   2
  12   6 -10 42.6574 53.4298   1
  12  -6  -9 1971.49 134.013   2
  12   6  -9 1872.29 136.536   1
  12  -6  -8 197.304 65.0046   2
  12   6  -8 273.389 71.0152   1
  12  -6  -7 1608.74 124.721   2
  12   6  -7 1754.33 130.166   1
  12  -6  -6 13.5066 56.1646   2
  12   6  -6-81.4812 63.1652   1
  12  -6  -5 12708.3 324.924   2
  12   6  -5 13110.3 332.658   1
  12  -6  -4 4136.96 191.647   2
  12   6  -4 4145.91 191.045   1
  12  -6  -3 3139.41 169.046   2
  12   6  -3 3309.04 174.396   1
  12  -6  -2 922.555 100.351   2
 -12   6   2 942.323 76.5233   3
  12   6  -2 921.353 100.734   1
  12  -6  -1 481.600 84.1217   2
 -12   6   1 387.894 63.2741   3
  12   6  -1 224.115 65.4143   1
  12  -6   0 499.213 84.0151   2
 -12   6   0 480.704 68.3705   3
  12   6   0 444.208 79.8096   1
 -12   6  -1 6113.39 211.816   3
  12   6   1 6940.11 247.716   1
  12  -6   1 6550.59 247.124   2
  12  -6   2 777.680 98.6481   2
 -12   6  -2 759.441 91.4874   3
  12   6   2 934.385 107.193   1
  12   6   3 1011.84 106.709   1
  12  -6   3 932.425 105.374   2
 -12   6  -3 792.111 95.3621   3
  12  -6   4 977.635 106.616   2
 -12   6  -4 864.555 104.761   3
  12   6   4 998.684 105.030   1
 -12   6  -5 94.1987 58.0120   3
  12   6   5 161.411 66.7098   1
 -12   6  -6 200.484 69.9750   3
  12   6   6 188.680 66.9317   1
 -12   6  -7 2697.10 185.123   3
 -12   6  -8 200.336 78.2182   3
 -12   6  -9 2727.66 208.741   3
 -12  -8  19 394.511 119.622   4
  12   8 -18 61.7290 57.6067   1
 -12  -8  18 147.830 106.865   4
 -12  -8  17-9.13898 82.5069   4
  12   8 -17 0.03493 60.6870   1
 -12  -8  16 343.585 104.039   4
  12   8 -16 454.530 85.7401   1
  12   8 -15 32.2990 57.2545   1
  12   8 -14-40.6788 59.7766   1
  12   8 -13 97.2212 62.0063   1
  12   8 -12 39.8195 57.0788   1
  12   8 -11 531.384 85.2110   1
  12  -8 -10 6374.31 238.563   2
  12   8 -10 6059.89 237.583   1
  12  -8  -9 47.0297 56.7206   2
  12   8  -9-28.4684 56.1451   1
  12   8  -8 3992.12 193.318   1
  12  -8  -8 4113.54 194.246   2
  12  -8  -7 485.547 86.0175   2
 -12   8   7 424.934 75.1791   4
  12   8  -7 435.675 82.1228   1
 -12   8   6 8617.07 270.327   4
  12   8  -6 8475.81 276.751   1
  12  -8  -6 8365.64 273.238   2
  12  -8  -5 1005.00 105.955   2
  12   8  -5 1050.94 111.750   1
  12  -8  -4 1011.87 108.497   2
  12   8  -4 975.189 106.254   1
  12  -8  -3 156.493 69.5433   2
 -12   8   3 157.924 41.9390   3
  12   8  -3 156.016 68.3634   1
 -12   8   2 1775.95 97.9537   3
  12   8  -2 1940.72 143.185   1
  12  -8  -2 2011.94 144.581   2
  12  -8  -1 194.256 68.6519   2
 -12   8   1 120.578 42.8400   3
  12   8  -1 170.784 68.2713   1
  12   8   0 863.382 110.502   1
 -12   8   0 734.185 79.7269   3
  12   8   1 196.822 71.5079   1
 -12   8  -1 123.927 56.0454   3
 -12   8  -2 174.795 70.3598   3
  12   8   2 101.729 67.1169   1
  12   8   3 2520.48 165.094   1
 -12   8  -3 2358.97 154.315   3
 -12   8  -4 1482.64 133.673   3
  12   8   4 1624.04 133.700   1
  12   8   5 404.940 82.5696   1
 -12   8  -5 430.663 89.1006   3
 -12   8  -6 2181.62 170.102   3
  12   8   6 2288.43 159.458   1
 -12   8  -7 611.992 106.385   3
  12   8   7 793.717 103.604   1
 -12   8  -8 74.0280 69.0717   3
  12   8   8 302.750 81.6335   1
 -12   8  -9-9.76134 66.6834   3
  12  10 -18 245.516 76.1644   1
 -12 -10  18 317.882 115.458   4
  12  10 -17 1143.06 121.707   1
 -12 -10  17 948.755 147.083   4
 -12 -10  16 30.1449 79.8656   4
  12  10 -16 79.9008 67.9873   1
 -12 -10  15 456.926 115.331   4
  12  10 -15 490.545 92.9892   1
 -12 -10  14 369.675 101.748   4
  12  10 -14 394.250 81.3156   1
 -12  10  13 169.499 54.8406   4
  12  10 -13 191.292 74.8116   1
 -12  10  12 249.043 60.1170   4
  12  10 -12 264.564 76.3012   1
  12  10 -11 778.691 104.312   1
 -12  10  11 630.294 80.3948   4
  12  10 -10 12.3291 64.7682   1
 -12  10  10-50.4860 53.9575   4
  12  10  -9 779.116 108.702   1
 -12  10   9 604.939 85.6453   4
  12  10  -8 277.976 73.8672   1
 -12  10   8 227.543 68.0718   4
  12  10  -7 255.170 77.7639   1
 -12  10   7 249.407 68.8291   4
  12  10  -6 1084.24 118.252   1
  12  10  -5 1108.80 118.788   1
 -12  10   4 1877.04 80.0222   3
  12  10  -4 2336.15 160.317   1
 -12  10   3 2053.20 95.5436   3
  12  10  -3 2504.82 167.921   1
 -12  10   2 895.073 73.3516   3
  12  10  -2 990.436 112.799   1
 -12  10   1 148.016 45.0236   3
  12  10  -1 282.861 78.0961   1
 -12  10   0 353.782 65.2509   3
  12  10   0 392.276 87.5105   1
 -12  10  -1 871.932 92.4251   3
  12  10   1 1002.65 118.570   1
 -12  10  -2-41.9106 55.9428   3
  12  10   2 104.774 70.0366   1
  12  10   3 123.241 63.4599   1
 -12  10  -3 218.722 70.6392   3
 -12  10  -4 126.964 68.0557   3
  12  10   4 6.21031 61.1033   1
 -12  10  -5 5.63482 64.1710   3
  12  10   5 217.157 81.6546   1
 -12  10  -6 22.7681 63.9033   3
  12  10   6 107.243 68.3741   1
 -12  10  -7 2040.71 173.152   3
  12  10   7 2092.14 157.005   1
 -12  10  -8 79.8962 77.9140   3
  12  10   8 2.86945 62.4534   1
  12  12 -17 71.7142 69.2767   1
 -12 -12  17 162.319 108.620   4
  12  12 -16 227.456 83.3845   1
 -12 -12  16 137.426 85.4915   4
  12  12 -15 113.946 75.1693   1
 -12 -12  15-9.25841 86.2475   4
  12  12 -14 1620.26 150.266   1
 -12 -12  14 1870.33 184.222   4
 -12 -12  13 89.3171 83.9873   4
  12  12 -13 183.536 77.2746   1
  12  12 -12 103.655 77.5009   1
  12  12 -11 23.6170 64.2145   1
 -12  12  11-45.5042 49.4737   4
  12  12 -10 39.3251 73.9853   1
 -12  12  10-19.0788 50.8876   4
  12  12  -9 256.491 82.8007   1
 -12  12   9 162.428 60.7606   4
  12  12  -8 2203.57 165.720   1
  12  12  -7 3509.66 207.683   1
  12  12  -6 1618.70 146.697   1
 -12  12   5 1527.66 58.7076   3
  12  12  -5 2609.03 179.238   1
  12  12  -4 5.21278 65.7706   1
 -12  12   4-17.6716 31.4901   3
  12  12  -3-16.9456 66.5210   1
 -12  12   3 372.264 58.6224   3
 -12  12   2 2062.52 115.163   3
  12  12  -2 2020.04 160.236   1
 -12  12   1-142.189 53.2372   3
  12  12  -1 8.51901 67.2372   1
 -12  12   0 1168.22 100.855   3
  12  12   0 1516.19 139.543   1
 -12  12  -1 362.726 76.1046   3
  12  12   1 405.750 91.0112   1
 -12  12  -2 140.021 64.5732   3
  12  12   2 119.867 64.1905   1
 -12  12  -3 176.738 63.3065   3
  12  12   3 103.366 77.3731   1
 -12  12  -4 1141.82 123.685   3
  12  12   4 1163.18 130.898   1
  12  12   5 40.6580 67.8509   1
 -12  12  -5 159.979 71.5457   3
 -12  12  -6 1422.10 149.675   3
  12  12   6 1480.72 145.350   1
 -12  12  -7 681.105 117.663   3
  12  12   7 567.688 92.7421   1
  12  14 -15-25.9441 71.9192   1
 -12 -14  15 57.4327 92.4219   4
  12  14 -14-42.5881 76.6778   1
 -12 -14  14 6.27648 88.5327   4
 -12 -14  13 558.207 123.026   4
  12  14 -13 452.703 105.084   1
 -12 -14  12 168.768 96.5738   4
  12  14 -12 256.441 88.4662   1
  12  14 -11 2804.76 196.687   1
 -12 -14  11 2741.39 208.770   4
 -12 -14  10 230.614 95.3215   4
  12  14 -10 4.05125 72.7311   1
  12  14  -9 1606.31 157.737   1
  12  14  -8 169.234 85.0740   1
  12  14  -7 225.332 88.5412   1
  12  14  -6 305.225 86.6521   1
  12  14  -5 228.827 84.3884   1
  12  14  -4 248.011 84.9483   1
 -12  14   4 121.465 37.8676   3
  12  14  -3-73.1670 69.6418   1
 -12  14   3 62.7290 41.1203   3
  12  14  -2 1144.11 137.938   1
 -12  14   2 817.422 77.5885   3
  12  14  -1 711.813 115.705   1
 -12  14   1 526.293 71.7964   3
 -12  14   0 509.884 77.2414   3
  12  14   0 610.310 111.651   1
 -12  14  -1 1862.29 132.537   3
  12  14   1 2361.23 182.732   1
 -12  14  -2 107.393 66.8752   3
  12  14   2 66.2160 71.8185   1
 -12  14  -3 522.411 94.4322   3
  12  14   3 574.974 105.864   1
 -12  14  -4 357.837 84.8429   3
  12  14   4 519.799 103.800   1
 -12  14  -5 335.705 94.7420   3
  12  14   5 171.115 77.2583   1
  12  16 -13 246.173 96.7221   1
  12  16 -12 490.771 112.645   1
 -12 -16  12 844.306 141.607   4
 -12 -16  11 1.07748 87.5517   4
  12  16 -11 558.971 123.417   1
 -12 -16  10 80.1128 88.5129   4
  12  16 -10 3.01526 73.9857   1
 -12 -16   9 46.7638 84.5701   4
  12  16  -9-17.2196 74.2122   1
 -12 -16   8 97.8716 87.1382   4
  12  16  -8 85.7741 75.9937   1
 -12 -16   7 359.257 105.650   4
  12  16  -7 352.979 100.808   1
  12  16  -6 7.37133 74.6652   1
  12  16  -5 115.427 86.8071   1
  12  16  -4 770.334 130.804   1
  12  16  -3 435.592 110.396   1
  12  16  -2 2341.49 198.673   1
  12  16  -1 76.0251 75.9649   1
  12  16   0 536.497 111.315   1
  12  16   1 92.7236 84.9645   1
  12  16   2 171.313 91.9336   1
  12  16   3 76.1922 82.9508   1
  12  18  -9 1124.53 155.732   1
 -12 -18   9 1028.64 154.852   4
  12  18  -8 100.294 97.3129   1
 -12 -18   8 74.6204 97.0976   4
 -12 -18   7 228.825 109.824   4
  12  18  -7 245.800 115.459   1
 -12 -18   6 156.557 98.1128   4
  12  18  -6 55.4690 95.1278   1
 -12 -18   5 441.720 115.257   4
  12  18  -5 410.212 135.747   1
 -12 -18   4 395.539 117.088   4
  12  18  -4 251.866 113.028   1
 -12 -18   3 524.936 115.220   4
  12  18  -3 411.463 122.684   1
 -12 -18   2 78.3052 85.3551   4
  12  18  -2 92.7529 95.9249   1
 -12 -18   1 65.3484 70.6683   4
  12  18  -1 8.67019 87.2281   1
 -13  -1  20 55.9727 74.8674   4
 -13   1  20-36.5314 70.6536   4
 -13  -1  19 319.098 93.2076   4
  13   1 -18 417.576 82.0732   2
  13  -1 -18 730.818 96.8238   2
  13   1 -17 42.4334 60.8588   2
  13  -1 -17-4.03975 52.6779   2
 -13  -1  16 32.0489 49.1391   1
  13   1 -16 102.015 60.2291   2
 -13   1  16 213.486 66.5499   1
  13  -1 -16 77.3707 56.6853   2
 -13   1  15-6.38480 49.3678   1
  13   1 -15-53.3015 59.4837   2
 -13  -1  15 89.7056 59.9174   1
  13  -1 -15-7.82482 55.1918   2
 -13   1  14 553.193 82.0641   1
  13   1 -14 619.454 86.4183   2
 -13  -1  14 700.165 89.9181   1
  13  -1 -14 634.149 89.7142   2
 -13   1  13 34.6136 54.0792   1
  13   1 -13-146.675 66.8070   2
  13  -1 -13 157.445 66.8078   2
 -13  -1  13 56.2782 51.7294   1
 -13  -1  12 4611.00 200.806   1
  13  -1 -12 4629.95 203.038   2
 -13   1  12 4557.18 199.493   1
 -13  -1  11 46.1066 51.6187   1
 -13   1  11 3.93891 50.2052   1
  13  -1 -11 108.281 63.6874   2
 -13  -1  10 5342.13 212.568   1
  13  -1 -10 5216.99 211.859   2
 -13   1  10 5129.59 209.636   1
 -13  -1   9 213.592 63.7512   1
  13  -1  -9 131.015 62.6412   2
 -13   1   9 225.143 61.4561   1
  13   1  -8 957.489 99.0408   1
 -13  -1   8 879.236 95.8334   1
  13  -1  -8 940.830 104.526   2
 -13   1   8 987.150 101.335   1
  13   1  -7 2501.05 145.047   1
  13  -1  -7 2336.29 102.414   3
  13  -1  -7 2368.87 151.191   2
 -13  -1   7 2425.06 146.968   1
 -13   1   7 2382.85 145.808   1
  13   1  -6 2971.41 159.646   1
  13  -1  -6 2614.52 111.480   3
  13  -1  -6 2741.89 158.841   2
 -13  -1   6 2896.59 159.833   1
 -13   1   6 2901.07 160.182   1
 -13   1   5 466.064 80.6963   1
  13  -1  -5 462.049 56.6170   3
  13   1  -5 500.406 65.8351   3
 -13  -1   5 497.200 78.0863   1
  13   1  -5 581.462 87.7336   1
  13  -1  -5 530.692 88.6823   2
  13  -1  -4 892.813 75.7970   3
  13   1  -4 889.170 81.7923   3
  13  -1  -4 855.020 101.849   2
  13  -1  -3 573.174 65.5249   3
  13   1  -3 635.546 72.7855   3
  13  -1  -3 601.193 83.2798   2
  13  -1  -2 2525.85 132.410   3
  13   1  -2 2781.33 145.274   3
  13  -1  -2 2484.14 152.487   2
  13  -1  -1 127.348 55.5312   3
  13   1  -1 147.278 53.1090   3
  13  -1  -1 180.441 70.4232   2
  13   1   0 454.227 74.2187   3
  13   1   0 561.148 90.8399   2
  13  -1   0 520.909 84.1627   2
  13   1   1 1129.32 115.747   2
  13  -1   1 1138.93 114.944   2
  13   1   2 1105.59 111.902   2
  13  -1   2 1063.22 113.581   2
  13   1   3 175.419 69.4338   2
  13  -1   3 128.578 72.2568   2
  13   1   4 1063.01 107.541   2
  13  -1   4 1087.11 109.658   2
  13   1   5 2933.62 172.424   2
  13  -1   5 2647.38 164.416   2
  13   1   6 864.774 100.660   2
  13  -1   6 1024.10 112.537   2
  13  -1   7-28.8722 62.3373   2
 -13   1  -7-8.39013 72.8270   3
  13   1   7 29.0564 59.9692   2
 -13   1  -8 2307.94 195.663   3
  13   1   8 2231.04 145.718   2
  13  -1   8 2071.73 144.937   2
 -13   1  -9 57.5654 89.5305   3
 -13  -3  20-40.5560 79.1199   4
 -13  -3  19 1057.42 136.705   4
  13   3 -18 1463.05 126.049   2
  13  -3 -18 1493.10 117.349   2
  13  -3 -17-129.394 58.9503   2
  13   3 -17 84.0473 68.1514   2
  13  -3 -16 315.558 76.5240   2
 -13   3  16 255.458 66.8862   1
  13  -3 -15 329.906 74.1948   2
  13   3 -14-122.358 65.7263   1
  13  -3 -14 52.6299 55.5205   2
  13   3 -13 915.184 100.775   1
  13  -3 -13 872.728 100.608   2
  13   3 -12 922.190 98.4781   1
  13  -3 -12 827.699 95.2408   2
  13   3 -11 1069.11 104.377   1
  13  -3 -11 1132.79 110.105   2
  13   3 -10 614.550 87.5915   1
  13  -3 -10 646.797 89.3351   2
  13  -3  -9 13642.8 339.967   2
  13   3  -9 13594.8 332.937   1
  13  -3  -8 156.674 26.8200   3
  13   3  -8 176.510 64.1472   1
  13  -3  -8 188.395 66.7947   2
  13  -3  -7 5908.40 130.796   3
  13  -3  -7 6878.99 247.829   2
  13   3  -7 6690.01 238.225   1
  13  -3  -6 1600.16 76.0084   3
  13  -3  -6 1629.22 126.586   2
  13   3  -6 1760.87 128.229   1
  13  -3  -5 47.7211 27.0780   3
  13   3  -5 102.142 62.5178   1
  13  -3  -5 25.8559 55.1225   2
  13  -3  -4 2114.07 142.858   2
  13   3  -4 2245.44 142.543   1
  13   3  -3 959.213 95.4635   3
  13  -3  -3 1108.34 109.452   2
  13   3  -3 1032.01 105.153   1
  13   3  -2 275.336 74.0845   1
  13   3  -2 247.743 61.4827   3
  13  -3  -2 113.092 58.4157   2
  13   3  -1 1325.03 117.429   1
  13   3  -1 1252.32 109.619   3
  13  -3  -1 1350.35 118.645   2
  13   3   0 2447.04 149.910   1
  13  -3   0 2338.63 150.400   2
  13   3   1 206.924 68.6895   1
  13  -3   1 95.9359 57.2525   2
 -13   3  -2 4451.32 202.607   3
  13  -3   2 4583.87 205.998   2
 -13   3  -3 1386.79 124.027   3
  13  -3   3 1484.54 127.427   2
  13  -3   4 207.154 74.1573   2
 -13   3  -4 214.323 71.9071   3
  13   3   4 196.946 65.2482   2
 -13   3  -5 5013.48 244.189   3
  13   3   5 5277.80 229.139   2
  13  -3   5 5019.69 217.589   2
  13  -3   6 653.902 98.5144   2
 -13   3  -6 729.314 112.814   3
  13   3   6 849.524 102.440   2
  13  -3   7 94.7931 59.4004   2
 -13   3  -7-16.3497 69.1555   3
  13   3   7 115.160 69.9913   2
 -13   3  -8 1593.39 169.830   3
  13   3   8 1443.95 125.483   2
  13  -3   8 1313.83 118.990   2
 -13   3  -9 498.549 118.047   3
 -13  -5  19 366.406 111.077   4
 -13  -5  18 209.160 87.8544   4
  13   5 -17 62.6599 63.6607   1
  13  -5 -16 536.126 85.3952   2
  13   5 -16 462.831 80.9414   1
  13   5 -15 1495.75 124.115   1
  13  -5 -15 1422.28 121.124   2
  13  -5 -14 40.0035 59.1011   2
  13   5 -14 48.5280 55.8041   1
  13  -5 -13 1051.13 107.231   2
  13   5 -13 1016.90 108.401   1
  13  -5 -12 35.2093 54.9606   2
  13   5 -12 105.302 59.4099   1
  13  -5 -11 718.789 95.5441   2
  13   5 -11 718.643 99.0322   1
  13   5 -10 2893.57 167.360   1
  13  -5 -10 2701.22 159.446   2
  13  -5  -9-4.77960 58.2756   2
  13   5  -9 73.1390 55.9422   1
  13   5  -8 851.269 100.829   1
  13  -5  -8 757.403 93.0313   2
  13   5  -7 608.285 87.4188   1
  13  -5  -7 678.804 95.3376   2
  13   5  -6 3351.84 176.778   1
  13  -5  -6 3197.84 173.859   2
  13   5  -5 2788.40 162.656   1
  13  -5  -5 2726.18 161.053   2
  13   5  -4 776.494 98.6313   1
  13  -5  -4 870.133 101.835   2
  13   5  -3 7920.10 270.630   1
  13  -5  -3 7788.71 263.315   2
  13  -5  -2 260.972 76.0227   2
  13   5  -2 207.578 71.2978   1
  13   5  -1 5928.37 232.529   1
  13  -5  -1 5824.64 234.648   2
  13  -5   0 44.5611 57.1049   2
  13   5   0 17.2042 55.4957   1
 -13   5   0-11.3941 48.6961   3
 -13   5  -1 3045.49 162.612   3
  13   5   1 3353.41 177.131   1
  13  -5   1 3169.22 176.624   2
  13  -5   2 852.298 104.539   2
 -13   5  -2 761.771 97.8404   3
  13   5   2 835.956 99.1966   1
  13  -5   3 390.591 83.2845   2
 -13   5  -3 497.345 87.9442   3
  13   5   3 605.983 92.8055   1
  13  -5   4 707.846 103.550   2
  13   5   4 852.730 104.491   1
 -13   5  -4 789.963 108.202   3
 -13   5  -5 2226.88 168.519   3
  13  -5   5 2159.60 151.213   2
 -13   5  -6 828.380 110.662   3
 -13   5  -7 1178.28 135.411   3
  13   5   7 1282.25 121.618   2
 -13   5  -8 1735.76 165.934   3
  13   5   8 1658.79 137.513   2
 -13   5  -9-5.87413 71.8091   3
 -13  -7  19 325.131 104.696   4
 -13  -7  18-11.7916 83.5343   4
  13   7 -18 171.335 67.9822   1
 -13  -7  17 54.5354 83.0952   4
  13   7 -17 16.7586 61.3206   1
  13   7 -16 126.469 65.5488   1
  13   7 -15 143.749 68.8129   1
  13   7 -14-18.8171 60.3903   1
  13  -7 -13 949.304 101.687   2
  13   7 -13 909.320 104.832   1
  13  -7 -12 38.7810 56.6940   2
  13   7 -12 138.646 67.7843   1
  13  -7 -11 204.050 69.8030   2
  13   7 -11 169.571 65.4573   1
  13  -7 -10 1645.37 135.168   2
  13   7 -10 1460.65 129.756   1
  13  -7  -9 36.2831 59.1751   2
  13   7  -9-4.97604 56.3839   1
  13  -7  -8 378.223 84.6672   2
  13   7  -8 389.192 83.2414   1
  13  -7  -7 517.202 89.9535   2
  13   7  -7 782.279 106.097   1
  13  -7  -6 344.174 98.6300   2
  13   7  -6 231.738 76.5027   1
  13  -7  -5 725.710 96.5750   2
  13   7  -5 686.869 95.1768   1
  13  -7  -4 305.152 77.0494   2
  13   7  -4 260.420 78.7922   1
  13  -7  -3 2952.40 172.476   2
  13   7  -3 3078.38 179.391   1
  13  -7  -2-22.9139 64.5045   2
 -13   7   2 76.6903 45.5340   3
  13   7  -2 45.6357 61.3864   1
  13   7  -1 3713.18 196.508   1
 -13   7   1 3476.43 153.117   3
  13  -7  -1 3624.77 192.265   2
  13  -7   0 986.005 112.862   2
 -13   7   0 1058.89 95.8433   3
  13   7   0 1199.81 120.383   1
 -13   7  -1 2876.51 157.328   3
  13   7   1 3102.04 183.292   1
  13  -7   1 2871.84 174.435   2
  13  -7   2 145.241 68.5066   2
 -13   7  -2 143.808 65.4717   3
  13   7   2 132.789 67.9457   1
 -13   7  -3 1248.46 118.494   3
  13   7   3 1453.21 131.572   1
 -13   7  -4 669.218 103.891   3
  13   7   4 787.336 102.928   1
 -13   7  -5 1674.37 149.021   3
  13   7   5 1715.21 140.937   1
 -13   7  -6 120.963 75.5713   3
  13   7   6 78.8718 63.9432   1
 -13   7  -7 482.417 98.8496   3
  13   7   7 650.644 97.2239   1
 -13   7  -8 304.121 97.0780   3
  13   9 -18 1567.81 135.679   1
 -13  -9  18 1634.62 178.491   4
 -13  -9  17-34.9814 82.2779   4
  13   9 -17-48.5793 66.7887   1
 -13  -9  16 743.394 132.078   4
  13   9 -16 691.964 104.478   1
  13   9 -15 606.034 100.193   1
  13   9 -14 163.396 72.9054   1
  13   9 -13 1114.22 122.712   1
  13   9 -12 759.279 109.700   1
  13   9 -11 11.4368 67.5364   1
 -13   9  10 792.853 96.9661   4
  13   9 -10 757.401 104.598   1
  13   9  -9 26.8968 59.0055   1
  13   9  -8-58.8194 66.5368   1
  13   9  -7 252.716 76.2738   1
  13  -9  -6 406.517 85.7987   2
  13   9  -6 450.107 90.0432   1
  13  -9  -5 440.381 88.3274   2
  13   9  -5 432.791 89.8826   1
  13  -9  -4 2145.20 158.983   2
  13   9  -4 2098.40 157.616   1
 -13   9   3 193.223 46.1438   3
  13   9  -3 148.502 68.6392   1
 -13   9   2 372.940 59.2487   3
  13   9  -2 286.067 82.6841   1
 -13   9   1 674.121 68.1978   3
  13   9  -1 1399.40 131.076   1
 -13   9   0 3055.61 151.030   3
  13   9   0 3322.11 197.090   1
  13   9   1 1187.52 128.433   1
 -13   9  -1 936.846 98.3098   3
  13   9   2 3701.16 202.877   1
 -13   9  -2 3366.50 180.261   3
 -13   9  -3-12.9152 58.6683   3
  13   9   3-21.4348 69.4728   1
 -13   9  -4 623.397 99.2216   3
  13   9   4 688.037 104.934   1
  13   9   5 627.661 103.462   1
 -13   9  -5 644.599 109.044   3
 -13   9  -6 1265.03 142.187   3
  13   9   6 1266.59 128.449   1
 -13   9  -7 449.203 107.479   3
  13   9   7 560.280 98.7272   1
  13  11 -17 171.971 79.4348   1
 -13 -11  17 335.006 117.104   4
 -13 -11  16 180.689 100.945   4
  13  11 -16 188.752 78.6932   1
 -13 -11  15 1237.06 158.784   4
  13  11 -15 971.695 122.428   1
 -13 -11  14 269.681 93.8649   4
  13  11 -14 324.184 86.3823   1
  13  11 -13 810.741 114.439   1
  13  11 -12 1655.12 149.825   1
  13  11 -11 969.818 119.224   1
 -13  11  11 652.598 88.6610   4
  13  11 -10 2471.84 178.175   1
  13  11  -9-6.35055 68.2003   1
  13  11  -8 253.222 85.2031   1
  13  11  -7 224.228 80.7867   1
  13  11  -6 715.198 108.077   1
  13  11  -5 1759.51 151.164   1
 -13  11   4 2342.91 94.4463   3
  13  11  -4 2855.12 189.330   1
 -13  11   3 1192.92 81.6476   3
  13  11  -3 1721.08 151.650   1
 -13  11   2 1091.02 83.6956   3
  13  11  -2 1486.63 143.287   1
 -13  11   1 4824.92 181.363   3
  13  11  -1 5700.59 257.341   1
 -13  11   0 122.974 57.2254   3
  13  11   0 72.1232 68.6181   1
 -13  11  -1 1673.67 125.598   3
  13  11   1 1870.10 155.651   1
 -13  11  -2 56.8015 58.7454   3
  13  11   2 107.012 73.6859   1
  13  11   3 41.0004 69.6961   1
 -13  11  -3 87.8203 66.0756   3
 -13  11  -4 98.4639 68.3558   3
  13  11   4 243.683 87.1620   1
 -13  11  -5 1820.13 158.451   3
  13  11   5 1953.61 163.345   1
 -13  11  -6 206.595 84.2668   3
  13  11   6 361.800 94.2060   1
 -13 -13  15-14.1769 90.2809   4
  13  13 -15 92.8502 73.6450   1
 -13 -13  14 47.1296 94.2199   4
  13  13 -14-54.9206 80.3742   1
 -13 -13  13 215.649 94.3347   4
  13  13 -13-34.7753 71.1032   1
  13  13 -12 661.842 116.209   1
  13  13 -11 618.997 116.183   1
  13  13 -10 762.188 118.570   1
  13  13  -9 1128.88 134.937   1
  13  13  -8-115.504 81.5232   1
  13  13  -7 1620.53 155.448   1
  13  13  -6 250.317 89.5667   1
  13  13  -5 801.466 123.347   1
  13  13  -4 251.751 80.1571   1
 -13  13   4 17.5686 32.0167   3
 -13  13   3-4.79851 36.9767   3
  13  13  -3 88.1901 73.0855   1
 -13  13   2 556.848 66.1350   3
  13  13  -2 721.825 118.026   1
 -13  13   1-15.4216 46.1689   3
  13  13  -1 38.3669 69.8218   1
 -13  13   0 38.1290 50.6784   3
  13  13   0 129.969 75.0851   1
 -13  13  -1 142.597 66.5147   3
  13  13   1 97.8055 74.9169   1
 -13  13  -2 65.1469 65.2194   3
  13  13   2 107.145 76.5777   1
 -13  13  -3 1511.26 135.281   3
  13  13   3 2002.12 178.108   1
  13  13   4 187.961 83.4507   1
 -13  13  -4 163.557 77.1090   3
  13  13   5 176.654 78.1303   1
 -13  13  -5 102.042 71.6909   3
 -13 -15  13 505.812 122.248   4
  13  15 -13 442.542 107.639   1
 -13 -15  12 334.889 119.378   4
  13  15 -12 289.960 94.6720   1
 -13 -15  11 20.3510 85.4563   4
  13  15 -11 77.0971 84.7264   1
 -13 -15  10 412.280 115.922   4
  13  15 -10 339.684 100.315   1
  13  15  -9 555.144 114.174   1
  13  15  -8 156.733 83.1758   1
  13  15  -7 1656.23 174.796   1
  13  15  -6-70.2328 74.5872   1
  13  15  -5 99.1661 84.0365   1
  13  15  -4 1128.99 144.494   1
  13  15  -3 42.0499 78.6124   1
  13  15  -2 617.324 124.412   1
  13  15  -1 279.342 95.0109   1
 -13  15   0-63.2325 59.1601   3
  13  15   0 363.568 105.189   1
 -13  15  -1 312.607 76.3979   3
  13  15   1 478.034 106.231   1
 -13  15  -2-71.6983 65.0837   3
  13  15   2 64.2799 78.1131   1
 -13  15  -3 21.8442 63.9320   3
  13  15   3-121.591 89.2245   1
 -13 -17  10 897.378 144.434   4
  13  17 -10 770.061 133.756   1
 -13 -17   9 529.237 137.918   4
  13  17  -9 507.228 119.354   1
  13  17  -8 201.733 96.4361   1
 -13 -17   8 102.209 95.8778   4
  13  17  -7 262.981 115.596   1
 -13 -17   7 609.384 128.789   4
  13  17  -6 883.895 167.614   1
  13  17  -5 162.469 103.447   1
  13  17  -4 1172.92 183.509   1
  13  17  -3 102.941 96.5768   1
  13  17  -2 242.141 105.000   1
  13  17  -1 58.6186 82.0255   1
 -14   0  20 1570.46 154.414   4
  14   0 -19-116.610 67.4840   2
  14   0 -18 217.956 73.8164   2
  14   0 -17 61.4744 62.1789   2
  14   0 -16 21.2172 61.0017   2
  14   0 -15-12.2629 61.8031   2
  14   0 -14 6586.15 251.273   2
  14   0 -13-62.6333 62.4804   2
  14   0 -12 736.075 101.207   2
  14   0 -11 5.75387 63.2076   2
  14   0 -10 52.0867 60.8560   2
  14   0  -9 102.694 65.5962   2
  14   0  -8 3536.46 187.151   2
  14   0  -7 16.0473 36.2236   3
  14   0  -7 16.3630 58.6228   2
  14   0  -6 405.238 57.8342   3
  14   0  -6 447.631 86.7824   2
  14   0  -5 29.0455 40.3297   3
  14   0  -5-84.1740 66.2027   2
  14   0  -4 548.720 67.0947   3
  14   0  -4 651.217 92.3916   2
  14   0  -3 29.4299 40.4519   3
  14   0  -3-35.9010 67.9312   2
  14   0  -2 11488.2 290.117   3
  14   0  -2 11787.5 336.408   2
  14   0  -1-41.8106 49.8750   3
  14   0  -1 1.35982 59.7351   2
  14   0   0 5826.76 239.896   2
  14   0   1-0.32934 63.8288   2
  14   0   2 1098.49 116.619   2
  14   0   3-7.66483 63.6239   2
  14   0   4 3596.20 197.503   2
  14   0   5 116.882 64.0961   2
  14   0   6 1676.11 140.216   2
  14   0   7-4.03864 65.4364   2
  14   0   8 818.754 105.424   2
 -14  -2  20 260.711 103.022   4
  14   2 -19 973.223 108.930   2
  14  -2 -18 62.4112 62.0129   2
  14   2 -18-127.589 70.0568   2
  14   2 -17 581.736 90.3918   2
  14  -2 -17 584.986 93.5190   2
  14   2 -16-22.0212 62.5276   2
  14  -2 -16-17.7383 62.2998   2
  14   2 -15 970.694 110.207   2
  14  -2 -15 849.551 105.296   2
  14  -2 -14 33.3153 58.9755   2
  14  -2 -13 344.582 76.7576   2
  14  -2 -12 13.4724 56.8847   2
  14   2 -11 1722.73 132.910   1
  14  -2 -11 1700.88 137.853   2
  14   2 -10 533.959 87.6668   1
  14  -2 -10 482.675 85.8330   2
  14  -2  -9 58.5807 27.2500   3
  14   2  -9 175.372 66.5746   1
  14  -2  -9 61.4222 58.8553   2
  14   2  -8 440.792 79.0782   1
  14  -2  -8 329.251 43.9091   3
  14  -2  -8 445.236 82.1224   2
  14  -2  -7 3111.58 111.840   3
  14   2  -7 3716.49 185.250   1
  14  -2  -7 3614.94 186.926   2
  14  -2  -6 2279.18 103.816   3
  14   2  -6 2811.19 162.271   1
  14  -2  -6 2427.22 155.784   2
  14  -2  -5 3259.50 128.176   3
  14   2  -5 3109.79 150.800   3
  14   2  -5 3552.41 180.323   1
  14  -2  -5 3626.45 189.906   2
  14  -2  -4 738.844 69.7941   3
  14   2  -4 674.792 83.1037   3
  14  -2  -4 748.875 99.5471   2
  14   2  -4 726.760 90.5620   1
  14  -2  -3 2627.59 132.076   3
  14   2  -3 2707.81 148.440   3
  14   2  -3 2812.02 167.489   1
  14  -2  -3 2690.59 167.790   2
  14   2  -2 376.558 65.3349   3
  14  -2  -2 486.411 88.6015   2
  14   2  -2 395.040 82.4264   1
  14  -2  -1 680.542 99.9546   2
  14  -2   0 337.077 78.2867   2
  14   2   1 2634.63 172.127   2
  14  -2   1 2620.89 167.818   2
  14   2   2 66.8646 66.8798   2
  14  -2   2-66.5141 63.8614   2
  14   2   3 2738.99 177.557   2
  14  -2   3 2842.52 174.146   2
  14   2   4 1802.58 145.124   2
  14  -2   4 1755.02 148.738   2
  14  -2   5 554.249 90.4164   2
  14   2   5 662.713 99.9708   2
  14  -2   6 120.841 68.5106   2
  14   2   6 66.7859 67.4465   2
  14  -2   7 943.587 110.094   2
  14   2   7 890.357 106.131   2
  14  -2   8 167.869 74.8740   2
 -14   2  -8 166.442 96.9636   3
 -14  -4  19-157.402 93.6267   4
  14   4 -19-14.4503 62.4839   2
  14  -4 -18 26.2994 60.2528   2
  14   4 -18-89.2300 72.8527   2
  14  -4 -17 215.821 74.9098   2
  14  -4 -16 720.880 94.5854   2
  14   4 -16 790.888 101.925   1
  14   4 -15 219.651 72.3416   1
  14  -4 -15 150.652 69.5608   2
  14   4 -14 1596.57 132.583   1
  14  -4 -14 1595.40 131.628   2
  14   4 -13 685.264 93.7288   1
  14  -4 -13 866.437 105.228   2
  14   4 -12 709.003 94.9538   1
  14  -4 -12 886.580 107.151   2
  14   4 -11 24.2751 57.2850   1
  14  -4 -11 66.4233 60.0447   2
  14   4 -10 115.198 63.9573   1
  14  -4 -10 71.1579 57.4425   2
  14   4  -9 97.0875 61.0993   1
  14  -4  -9 19.5223 57.1531   2
  14  -4  -8 1500.33 131.075   2
  14   4  -8 1431.20 123.703   1
  14  -4  -7 3049.18 175.452   2
  14   4  -7 3099.39 180.232   1
  14   4  -6 147.506 65.5636   1
  14  -4  -6 291.514 78.9006   2
  14   4  -5 413.993 83.0963   1
  14  -4  -5 487.199 89.4954   2
  14  -4  -4 2037.12 144.704   2
  14   4  -4 2172.81 147.780   1
  14   4  -3 127.022 62.7593   3
  14   4  -3 39.6269 61.6034   1
  14  -4  -3 59.9560 62.0707   2
  14  -4  -2 1661.37 136.416   2
  14   4  -2 1643.57 133.860   1
  14   4  -1 227.507 67.8968   1
  14  -4  -1 192.188 74.8708   2
  14   4   0 1348.04 124.976   1
  14  -4   0 1379.06 129.364   2
  14  -4   1 29.0877 60.3891   2
  14   4   1 1.78897 57.9071   1
  14   4   2 1839.39 143.273   1
  14  -4   2 1616.10 140.273   2
 -14   4  -3 1555.72 135.483   3
  14  -4   3 1633.27 136.122   2
 -14   4  -4 2128.21 160.866   3
  14  -4   4 1947.97 148.489   2
  14  -4   5 114.998 71.4696   2
 -14   4  -5-68.1011 67.8839   3
  14   4   5 52.5292 75.8007   2
  14  -4   6 848.046 112.568   2
 -14   4  -6 840.080 119.046   3
  14   4   6 886.845 111.515   2
  14  -4   7 44.6555 62.9182   2
 -14   4  -7 67.1576 77.6704   3
  14   4   7-111.077 74.6872   2
 -14   4  -8 81.9399 84.3594   3
 -14  -6  19 248.203 103.705   4
 -14  -6  18-57.5291 93.5187   4
  14   6 -18 211.441 74.0796   1
  14   6 -17 750.651 102.267   1
  14  -6 -16 160.161 72.1760   2
  14   6 -16 180.939 74.9277   1
  14  -6 -15 508.586 92.5621   2
  14   6 -15 439.760 84.6362   1
  14  -6 -14 650.976 100.696   2
  14   6 -14 410.947 85.5675   1
  14   6 -13 189.091 69.8947   1
  14  -6 -13 217.310 73.8491   2
  14  -6 -12 350.343 82.2735   2
  14   6 -12 314.995 82.0383   1
  14   6 -11 7403.64 274.370   1
  14  -6 -11 7227.24 267.643   2
  14  -6 -10-52.2273 61.7366   2
  14   6 -10-48.4481 64.7645   1
  14   6  -9 2958.14 177.860   1
  14  -6  -9 2783.80 171.147   2
  14  -6  -8 509.378 87.4810   2
  14   6  -8 623.092 100.948   1
  14  -6  -7 108.472 68.1385   2
  14   6  -7-49.1093 63.9903   1
  14  -6  -6 723.282 106.929   2
  14   6  -6 589.952 94.6576   1
  14   6  -5 1255.43 125.144   1
  14  -6  -5 1334.15 127.802   2
  14   6  -4 1322.90 125.628   1
  14  -6  -4 1493.55 135.920   2
  14   6  -3 1721.35 143.155   1
  14  -6  -3 1787.50 145.458   2
  14   6  -2 1757.79 140.822   1
  14  -6  -2 1707.13 141.107   2
  14  -6  -1 253.777 78.1429   2
  14   6  -1 126.639 71.7604   1
  14  -6   0 1000.87 112.784   2
  14   6   0 1234.72 125.258   1
 -14   6   0 1103.79 104.525   3
  14  -6   1 1246.31 128.397   2
 -14   6  -1 1248.61 114.657   3
  14   6   1 1287.67 128.079   1
  14  -6   2 106.465 70.8450   2
 -14   6  -2 111.039 61.7844   3
  14   6   2 33.3289 65.2578   1
 -14   6  -3 1499.41 139.249   3
  14  -6   3 1633.57 148.959   2
  14   6   3 1519.75 139.482   1
  14  -6   4-71.0880 66.5279   2
 -14   6  -4 82.9366 74.6487   3
  14   6   4 35.7849 61.2089   1
  14   6   5 6.88325 61.0264   1
 -14   6  -5 39.7192 62.5623   3
 -14   6  -6-60.2261 65.2749   3
 -14   6  -7 1008.44 127.130   3
  14   6   7 1342.48 140.941   2
 -14  -8  18 138.001 92.4136   4
  14   8 -18 233.241 76.4374   1
 -14  -8  17 58.9839 89.8892   4
  14   8 -17-117.602 75.9567   1
  14   8 -16 41.1031 63.5754   1
  14   8 -15 56.5004 68.6562   1
  14   8 -14 1179.76 128.445   1
  14   8 -13-57.5585 72.5118   1
  14  -8 -12 198.273 72.2727   2
  14   8 -12 178.664 77.7146   1
  14  -8 -11 384.719 80.6992   2
  14   8 -11 400.340 88.3684   1
  14  -8 -10 2070.52 152.214   2
  14   8 -10 1689.97 143.069   1
  14  -8  -9 29.4986 62.4052   2
  14   8  -9 111.535 68.6182   1
  14  -8  -8 3273.50 192.681   2
  14   8  -8 3358.34 197.182   1
  14  -8  -7 33.3709 63.3652   2
  14   8  -7 52.5624 68.3905   1
  14  -8  -6 5813.77 248.480   2
  14   8  -6 5592.95 250.477   1
  14  -8  -5 195.082 73.6587   2
  14   8  -5 165.000 75.8015   1
  14  -8  -4 59.8117 66.4181   2
  14   8  -4-60.8226 65.4646   1
  14  -8  -3 905.074 113.242   2
  14   8  -3 742.842 102.606   1
  14  -8  -2 443.129 86.4645   2
  14   8  -2 484.405 95.7962   1
  14  -8  -1 5.12713 65.2084   2
  14   8  -1 38.7376 63.6197   1
  14  -8   0 252.478 82.4016   2
 -14   8   0 426.080 72.9821   3
  14   8   0 391.085 87.4643   1
 -14   8  -1 471.863 82.9103   3
  14   8   1 473.256 95.0530   1
 -14   8  -2 2660.09 164.821   3
  14   8   2 2982.30 191.109   1
  14   8   3 72.4615 65.6418   1
 -14   8  -3 111.599 66.0323   3
 -14   8  -4 6502.39 275.331   3
  14   8   4 7059.42 282.630   1
 -14   8  -5 1034.26 128.597   3
  14   8   5 1411.73 140.327   1
  14   8   6 3014.35 188.575   1
 -14   8  -6 2831.33 202.890   3
 -14   8  -7 36.9543 70.5259   3
  14   8   7 37.2622 70.0704   1
 -14 -10  17 135.761 96.8730   4
  14  10 -17 170.995 81.7879   1
 -14 -10  16 90.3723 88.2029   4
  14  10 -16 25.5288 68.3346   1
  14  10 -15 119.243 75.3466   1
  14  10 -14 87.5403 71.7085   1
  14  10 -13 1209.28 135.418   1
  14  10 -12-0.12762 66.2895   1
  14  10 -11 3103.19 197.402   1
  14  10 -10 26.9984 65.7194   1
  14  10  -9 508.193 96.3336   1
  14  10  -8-70.1932 69.8750   1
  14  10  -7 327.248 90.8296   1
  14  10  -6 323.607 91.8287   1
  14  10  -5 690.454 109.867   1
  14  10  -4 2414.57 174.826   1
 -14  10   3 1349.00 91.3811   3
  14  10  -3 1648.40 151.187   1
 -14  10   2 87.2095 47.8021   3
  14  10  -2-143.535 77.6597   1
  14  10  -1 106.188 65.7997   1
 -14  10   1 139.186 53.3524   3
  14  10   0 1098.96 131.743   1
 -14  10   0 962.773 98.6845   3
 -14  10  -1 521.931 84.1452   3
  14  10   1 521.368 97.0318   1
 -14  10  -2 425.445 82.8927   3
  14  10   2 403.101 90.9889   1
 -14  10  -3 936.738 115.394   3
  14  10   3 1111.75 132.519   1
 -14  10  -4 1074.95 123.609   3
  14  10   4 1336.63 138.489   1
  14  10   5 104.734 78.4307   1
 -14  10  -5 1.61200 67.2613   3
 -14 -12  16 31.8217 90.9419   4
  14  12 -16 69.6665 85.5413   1
 -14 -12  15-23.8976 86.5786   4
  14  12 -15 139.382 80.6521   1
  14  12 -14 733.030 116.593   1
  14  12 -13 263.433 87.3379   1
  14  12 -12-55.3871 71.6459   1
  14  12 -11 94.4722 79.1956   1
  14  12 -10 70.7304 75.8219   1
  14  12  -9 239.228 81.5204   1
  14  12  -8 2719.46 196.726   1
  14  12  -7-10.1561 70.6022   1
  14  12  -6 513.232 107.462   1
  14  12  -5 199.776 84.5640   1
 -14  12   4 39.5482 34.7842   3
  14  12  -4 226.904 92.0628   1
 -14  12   3 127.955 46.2542   3
  14  12  -3 17.3093 73.2195   1
 -14  12   2 655.804 73.7483   3
  14  12  -2 732.202 123.933   1
 -14  12   1-60.0285 53.6284   3
  14  12  -1-68.0719 70.7018   1
 -14  12   0 1426.66 116.600   3
  14  12   0 1819.22 167.434   1
 -14  12  -1-9.65140 56.7587   3
  14  12   1-45.7461 73.4855   1
  14  12   2 216.422 87.5114   1
 -14  12  -2 97.6129 65.8121   3
 -14  12  -3-149.753 74.8091   3
  14  12   3-48.1446 72.2299   1
 -14  12  -4 717.235 113.202   3
  14  12   4 665.373 113.740   1
  14  14 -14-72.0488 75.0124   1
 -14 -14  13 216.296 102.485   4
  14  14 -13 195.368 95.1460   1
  14  14 -12 92.0603 89.1945   1
  14  14 -11 1188.49 144.378   1
  14  14 -10 353.800 99.8637   1
  14  14  -9 287.629 94.8937   1
  14  14  -8 930.125 131.814   1
  14  14  -7 482.633 116.283   1
  14  14  -6 47.3577 79.7442   1
  14  14  -5 2056.29 187.711   1
  14  14  -4 250.380 98.3109   1
  14  14  -3 1399.94 167.504   1
  14  14  -2 179.607 86.2107   1
  14  14  -1 295.500 96.3939   1
 -14  14   0 157.567 62.2075   3
  14  14   0 213.949 95.1504   1
 -14  14  -1 1741.60 135.466   3
  14  14   1 2051.97 175.852   1
 -14  14  -2 67.4229 62.2064   3
  14  14   2 116.058 78.4895   1
 -14 -16  11-86.6265 106.311   4
  14  16 -11 2.45977 76.7034   1
 -14 -16  10 34.9468 97.0276   4
  14  16 -10 180.001 94.4850   1
  14  16  -9 159.604 92.3788   1
  14  16  -8 591.988 127.161   1
  14  16  -7 258.206 103.280   1
  14  16  -6 72.5927 83.8667   1
  14  16  -5 71.6953 85.3581   1
  14  16  -4 616.927 135.494   1
  14  16  -3 39.2089 91.0185   1
  14  16  -2 2063.00 209.135   1
  14  16  -1-115.351 91.6938   1
  15  -1 -19-91.0782 69.9019   2
  15   1 -19 107.714 68.5732   2
  15   1 -18 107.798 73.3307   2
  15  -1 -18-7.02307 62.1843   2
  15   1 -17-84.8573 69.1355   2
  15  -1 -17 58.4288 70.4335   2
  15   1 -16 184.346 72.6770   2
  15  -1 -16 231.523 74.9007   2
  15   1 -15 1840.86 146.109   2
  15  -1 -15 1784.41 145.699   2
  15   1 -14 190.838 77.6315   2
  15  -1 -14-69.3665 68.7886   2
  15   1 -13 101.731 70.8887   2
  15  -1 -13 29.4585 61.8993   2
  15   1 -12 1816.95 147.423   2
  15  -1 -12 1948.57 152.116   2
  15   1 -11 160.995 73.4147   2
  15  -1 -11 45.3714 61.6882   2
  15  -1 -10 1454.91 131.186   2
  15  -1  -9 1625.35 89.9928   3
  15  -1  -9 2025.25 150.087   2
  15  -1  -8 93.0247 36.4880   3
  15  -1  -8 25.9568 60.8113   2
  15  -1  -7 64.6328 39.6282   3
  15   1  -7 117.753 49.9848   3
  15  -1  -7 15.3304 62.2336   2
  15  -1  -6 34.5942 33.8200   3
  15   1  -6-13.1889 39.2938   3
  15  -1  -6 29.8979 66.5540   2
  15  -1  -5 165.826 50.0006   3
  15   1  -5 169.023 62.1613   3
  15  -1  -5 242.473 80.9203   2
  15  -1  -4 171.247 50.9965   3
  15   1  -4 182.482 55.2068   3
  15  -1  -4 249.690 74.9827   2
  15  -1  -3 1594.31 110.262   3
  15   1  -3 1627.27 119.470   3
  15   1  -3 1855.60 145.870   2
  15  -1  -3 1795.21 141.133   2
  15  -1  -2 209.082 56.1635   3
  15   1  -2 211.867 60.8662   3
  15   1  -2 275.210 75.2828   2
  15  -1  -2 210.144 68.6496   2
  15   1  -1 398.586 92.8996   2
  15  -1  -1 387.574 82.2759   2
  15   1   0 1456.58 137.135   2
  15  -1   0 1719.23 149.157   2
  15   1   1-36.7935 68.3411   2
  15  -1   1 34.2038 65.1303   2
  15   1   2 2032.63 160.810   2
  15  -1   2 2046.97 157.802   2
  15   1   3 2580.60 175.183   2
  15  -1   3 2467.91 172.947   2
  15   1   4 17.8525 68.5795   2
  15  -1   4 78.5528 66.6671   2
  15   1   5 1330.28 133.067   2
  15  -1   5 1309.26 132.122   2
  15  -1   6 155.817 77.4900   2
  15   1   6 46.9248 72.4579   2
  15  -1   7 364.082 93.2267   2
  15   1   7 244.659 79.2762   2
  15  -3 -19 635.458 98.2732   2
  15   3 -19 715.456 103.502   2
  15  -3 -18 619.468 97.1804   2
  15   3 -18 367.235 89.2020   2
  15  -3 -17 80.5441 74.2067   2
  15   3 -17 42.8541 63.7814   2
  15  -3 -16 133.124 74.0991   2
  15  -3 -15 96.4061 68.4895   2
  15  -3 -14-21.1916 66.0010   2
  15   3 -13 662.407 99.3211   1
  15  -3 -13 733.259 103.843   2
  15  -3 -12 442.710 35.6184   3
  15   3 -12 883.113 108.333   1
  15  -3 -12 805.167 104.837   2
  15  -3 -11 65.4039 22.4790   3
  15  -3 -11 20.8242 62.7065   2
  15   3 -11 21.6143 62.9763   1
  15  -3 -10 321.119 33.2856   3
  15   3 -10 468.424 87.9001   1
  15  -3 -10 493.926 95.3331   2
  15  -3  -9 1216.53 62.9214   3
  15   3  -9 1715.91 138.432   1
  15  -3  -9 1688.77 142.438   2
  15  -3  -8 323.193 42.0567   3
  15   3  -8 373.504 83.2546   1
  15  -3  -8 296.357 80.6433   2
  15  -3  -7 475.122 51.7879   3
  15   3  -7 451.861 84.7946   1
  15  -3  -7 426.088 88.8679   2
  15  -3  -6 407.435 50.6996   3
  15   3  -6 636.974 94.2051   1
  15  -3  -6 489.227 91.8594   2
  15   3  -5 196.035 62.3856   3
  15   3  -5 284.082 79.0065   1
  15  -3  -5 397.102 85.2236   2
  15   3  -4 2551.19 153.246   3
  15   3  -4 2918.33 175.197   1
  15  -3  -4 2824.25 178.636   2
  15   3  -3 216.697 64.3844   1
  15  -3  -3 281.324 73.8230   2
  15   3  -2 310.452 85.4829   1
  15  -3  -2 449.495 95.8336   2
  15   3  -1 120.439 69.9561   1
  15  -3  -1 214.255 75.8026   2
  15  -3   0 267.952 80.5639   2
  15  -3   1 1098.90 126.738   2
  15   3   2 2076.30 164.961   2
  15  -3   2 1997.08 161.040   2
  15  -3   3 279.296 87.1554   2
  15   3   3 400.124 91.4862   2
  15  -3   4 84.2378 69.2559   2
  15   3   4 125.546 77.8727   2
  15   3   5 4090.45 222.140   2
  15  -3   5 3651.89 210.381   2
  15  -3   6-5.21104 64.5650   2
  15   3   6-16.9207 74.1205   2
  15   3   7 1505.68 141.403   2
  15  -3   7 1452.64 140.297   2
  15  -5 -18 88.3352 68.1824   2
  15   5 -17 0.99313 62.0950   1
  15  -5 -17 15.3985 63.2359   2
  15  -5 -16 87.2136 66.3152   2
  15   5 -16 227.112 75.8061   1
  15  -5 -15 852.392 108.975   2
  15   5 -15 859.319 110.321   1
  15  -5 -14 155.124 68.6492   2
  15   5 -14 170.754 76.8516   1
  15  -5 -13 1325.58 133.330   2
  15   5 -13 1363.92 131.208   1
  15   5 -12 3270.15 185.947   1
  15  -5 -12 3409.17 194.490   2
  15  -5 -11 748.982 102.370   2
  15   5 -11 917.115 116.201   1
  15   5 -10 1918.83 150.379   1
  15  -5 -10 1624.50 138.802   2
  15   5  -9 453.419 84.7119   1
  15  -5  -9 332.313 80.4837   2
  15   5  -8 67.0656 61.4716   1
  15  -5  -8-25.9200 62.7877   2
  15   5  -7 1541.76 136.047   1
  15  -5  -7 1608.81 138.217   2
  15   5  -6 377.226 84.0461   1
  15  -5  -6 468.631 90.0604   2
  15   5  -5 60.0197 61.4740   1
  15  -5  -5 52.6290 64.5763   2
  15  -5  -4-1.93691 63.0719   2
  15   5  -4 30.7634 70.0934   1
  15  -5  -3 701.457 102.115   2
  15   5  -3 815.778 107.813   1
  15  -5  -2-119.881 79.6787   2
  15   5  -2-66.1465 69.1795   1
  15  -5  -1 5192.43 242.093   2
  15   5  -1 5281.52 241.814   1
  15   5   0 2437.24 170.822   1
  15  -5   0 2384.53 171.127   2
  15  -5   1 989.161 118.321   2
  15   5   1 1176.43 129.972   1
  15   5   2 2391.35 170.365   1
  15  -5   2 2155.53 164.934   2
  15  -5   3 34.2306 68.9998   2
 -15   5  -3 44.7958 68.8909   3
  15  -5   4 37.7386 73.4136   2
 -15   5  -4-5.64116 62.2373   3
  15  -5   5 252.130 81.7690   2
 -15   5  -5 133.749 78.0801   3
  15   5   5 125.136 79.1774   2
 -15   5  -6 69.1743 76.1750   3
  15   5   6 136.650 80.8992   2
  15   7 -18 858.317 114.090   1
  15   7 -17 124.637 72.7745   1
  15   7 -16 318.981 87.8671   1
  15  -7 -15 411.950 97.0312   2
  15   7 -15 219.773 80.1439   1
  15   7 -14 59.6541 70.6769   1
  15  -7 -14 14.9528 62.6926   2
  15  -7 -13 378.402 87.0313   2
  15   7 -13 361.686 88.2766   1
  15  -7 -12 1543.92 142.168   2
  15   7 -12 1233.99 130.008   1
  15  -7 -11 375.874 88.7919   2
  15   7 -11 417.608 84.0733   1
  15  -7 -10 247.936 81.9856   2
  15   7 -10 401.299 87.9378   1
  15  -7  -9 49.2174 66.0812   2
  15   7  -9 175.413 79.5636   1
  15   7  -8 1601.07 141.672   1
  15  -7  -8 1831.21 151.577   2
  15  -7  -7 545.256 96.6935   2
  15   7  -7 406.977 87.1138   1
  15   7  -6 2983.30 188.121   1
  15  -7  -6 2967.25 185.585   2
  15  -7  -5 404.616 92.3039   2
  15   7  -5 161.660 70.5084   1
  15   7  -4 5599.69 256.305   1
  15  -7  -4 5599.41 249.813   2
  15  -7  -3 310.397 84.2791   2
  15   7  -3 526.758 96.9720   1
  15   7  -2 503.349 96.0397   1
  15  -7  -2 527.875 103.286   2
  15   7  -1 956.284 119.104   1
  15  -7  -1 881.795 120.307   2
  15  -7   0 49.7519 70.8447   2
  15   7   0 76.5208 71.6183   1
 -15   7   0 102.254 57.1609   3
  15  -7   1 182.534 85.4326   2
 -15   7  -1 205.684 69.5666   3
  15   7   1 129.070 67.9530   1
  15  -7   2 27.9182 67.6919   2
 -15   7  -2 62.6854 63.6244   3
  15   7   2 128.617 73.3331   1
  15   7   3 657.732 101.697   1
 -15   7  -3 626.609 102.636   3
 -15   7  -4 281.140 84.2771   3
  15   7   4 417.529 94.8256   1
 -15   7  -5 43.5668 78.3805   3
  15   7   5 115.895 83.8898   1
 -15   7  -6 615.477 111.325   3
  15   9 -17-2.11613 67.7983   1
  15   9 -16 1030.57 128.895   1
  15   9 -15 358.613 92.0894   1
  15   9 -14 216.928 83.8168   1
  15   9 -13 266.208 84.4210   1
  15   9 -12 320.133 85.3119   1
  15   9 -11 28.0305 68.3477   1
  15  -9 -10 114.111 78.9938   2
  15   9 -10 266.298 90.9979   1
  15  -9  -9 101.966 80.3475   2
  15   9  -9 97.8689 70.2492   1
  15  -9  -8 32.1147 66.5720   2
  15   9  -8-54.6661 68.1388   1
  15  -9  -7 500.170 90.3266   2
  15   9  -7 737.480 114.966   1
  15  -9  -6 113.930 68.9775   2
  15   9  -6 59.7240 69.0852   1
  15  -9  -5 911.219 114.978   2
  15   9  -5 1012.08 125.811   1
  15   9  -4 5690.97 264.660   1
  15  -9  -4 5832.73 262.978   2
  15  -9  -3 1292.13 133.920   2
  15   9  -3 1191.13 134.359   1
  15  -9  -2 696.996 111.087   2
  15   9  -2 730.744 120.004   1
  15   9  -1 2087.11 172.850   1
 -15   9   1 1895.14 127.507   3
 -15   9   0 200.277 67.0549   3
  15   9   0 120.777 74.7637   1
 -15   9  -1 195.346 70.6302   3
  15   9   1 189.062 83.7179   1
  15   9   2 1265.44 138.371   1
 -15   9  -2 1171.42 126.886   3
  15   9   3 23.3826 67.9419   1
 -15   9  -3 42.2716 73.7064   3
 -15   9  -4 88.9208 77.1224   3
  15   9   4-3.75558 72.5465   1
  15   9   5 492.701 104.623   1
 -15   9  -5 348.696 96.0191   3
 -15 -11  16 318.625 112.639   4
  15  11 -16 33.0746 70.9819   1
  15  11 -15 1031.99 134.091   1
  15  11 -14 20.9494 70.9017   1
  15  11 -13 832.215 126.683   1
  15  11 -12 671.467 114.729   1
  15  11 -11 330.761 99.5433   1
  15  11 -10 856.758 127.219   1
  15  11  -9 1170.96 134.904   1
  15  11  -8 203.926 83.7910   1
  15  11  -7 23.7715 69.4593   1
  15  11  -6 336.413 96.8135   1
  15  11  -5 79.3758 77.2896   1
  15  11  -4 1086.67 142.534   1
  15  11  -3 1014.05 134.337   1
  15  11  -2 554.935 105.825   1
 -15  11   2 306.833 62.5308   3
 -15  11   1 3969.91 175.253   3
  15  11  -1 4281.33 249.606   1
 -15  11   0-15.8825 59.0103   3
  15  11   0-123.468 88.8535   1
  15  11   1 2008.21 175.461   1
 -15  11  -1 1720.09 134.630   3
 -15  11  -2 515.744 91.5470   3
  15  11   2 672.301 116.375   1
 -15  11  -3 138.389 74.1528   3
  15  11   3 148.766 81.4267   1
  15  13 -14 298.476 95.6014   1
  15  13 -13 80.0474 77.3012   1
  15  13 -12 489.780 122.128   1
  15  13 -11 35.9012 72.9868   1
  15  13 -10 129.764 84.4888   1
  15  13  -9 499.581 112.832   1
  15  13  -8 553.505 119.481   1
  15  13  -7 916.809 140.311   1
  15  13  -6 446.953 114.058   1
  15  13  -5 102.360 82.9837   1
  15  13  -4 1050.26 147.832   1
  15  13  -3 178.192 99.7582   1
  15  13  -2 49.6549 81.5361   1
  15  13  -1 311.665 105.644   1
  15  13   0 253.037 95.7525   1
  15  13   1 86.1056 82.2845   1
 -15  13  -1-63.3888 59.1029   3
  15  13   2 96.9490 83.2444   1
 -15  13  -2-50.5873 66.9975   3
  15  15 -11 139.289 88.6479   1
  15  15 -10 666.960 131.880   1
  15  15  -9 583.277 132.171   1
  15  15  -8 108.427 84.0850   1
  15  15  -7 699.628 133.921   1
  15  15  -6 212.485 104.720   1
  15  15  -5 125.564 98.6691   1
  15  15  -4 209.867 99.9165   1
  15  15  -3 212.043 104.584   1
  15  15  -2-43.3130 86.4138   1
  15  15  -1 657.349 126.526   1
  16   0 -19 65.6873 69.3816   2
  16   0 -18 518.933 101.196   2
  16   0 -17-11.0486 68.5006   2
  16   0 -16 938.515 124.327   2
  16   0 -15-7.01100 68.0521   2
  16   0 -14 1774.73 154.670   2
  16   0 -13 11.5746 65.8549   2
  16   0 -12 115.173 69.6654   2
  16   0 -11 99.6046 75.4916   2
  16   0 -10 62.7782 66.8601   2
  16   0  -9-45.1501 42.5824   3
  16   0  -9-9.91590 63.4090   2
  16   0  -8 70.6266 39.8996   3
  16   0  -8 42.7972 66.9860   2
  16   0  -7 62.0246 46.1947   3
  16   0  -7 48.9000 72.6710   2
  16   0  -6 339.243 59.1399   3
  16   0  -6 362.041 84.8114   2
  16   0  -5 27.5566 44.1602   3
  16   0  -5 39.0780 66.6246   2
  16   0  -4 260.300 58.4904   3
  16   0  -4 211.448 78.4937   2
  16   0  -3-27.6239 48.6476   3
  16   0  -3 40.4279 72.9648   2
  16   0  -2 2161.83 170.737   2
  16   0  -1 68.2781 75.6184   2
  16   0   0 163.930 75.7866   2
  16   0   1 11.9445 69.0194   2
  16   0   2 62.1610 68.9117   2
  16   0   3-33.3270 68.0445   2
  16   0   4 772.375 116.763   2
  16   0   5-168.861 86.5982   2
  16   0   6 480.048 103.826   2
  16  -2 -19 705.503 109.858   2
  16   2 -19 585.460 99.7960   2
  16  -2 -18 61.3726 72.0770   2
  16   2 -18 12.8630 69.8362   2
  16   2 -17 1069.18 125.559   2
  16  -2 -17 880.334 113.800   2
  16   2 -16 427.162 96.6771   2
  16  -2 -16 35.2205 67.3491   2
  16   2 -15 785.020 111.702   2
  16  -2 -15 599.386 106.221   2
  16   2 -14 4.60760 68.5436   2
  16  -2 -14 39.7824 69.6864   2
  16  -2 -13 219.540 77.4243   2
  16  -2 -12 243.928 79.7602   2
  16  -2 -11 335.500 42.0873   3
  16  -2 -11 634.645 104.073   2
  16  -2 -10 46.2715 31.1188   3
  16  -2 -10 12.6234 66.8987   2
  16  -2  -9 44.9628 32.9785   3
  16  -2  -9 126.060 73.4057   2
  16  -2  -8 13.1270 30.8239   3
  16  -2  -8 9.98576 72.1652   2
  16  -2  -7 437.362 56.8179   3
  16   2  -7 473.786 70.5769   3
  16  -2  -7 506.835 97.2388   2
  16  -2  -6 573.733 68.2294   3
  16   2  -6 522.196 77.0863   3
  16  -2  -6 531.058 97.5875   2
  16  -2  -5 4801.74 175.347   3
  16   2  -5 4842.94 201.292   3
  16  -2  -5 5328.24 247.118   2
  16  -2  -4 305.865 62.0917   3
  16  -2  -4 380.146 90.8381   2
  16  -2  -3 2365.16 177.476   2
  16   2  -2 95.7707 74.1874   2
  16  -2  -2 188.756 83.0121   2
  16   2  -1 23.0965 68.0539   2
  16  -2  -1 25.5591 72.4365   2
  16   2   0 402.586 99.9449   2
  16  -2   0 436.513 89.3910   2
  16   2   1 1153.48 128.174   2
  16  -2   1 926.098 120.130   2
  16   2   2 114.468 81.5200   2
  16  -2   2-33.7438 77.2329   2
  16   2   3 149.011 81.1394   2
  16  -2   3 53.5162 68.0509   2
  16  -2   4 67.0593 71.7160   2
  16   2   4-54.6941 80.0362   2
  16  -2   5-106.073 79.5220   2
  16   2   5 63.7994 75.6057   2
  16  -2   6-62.1989 67.6606   2
  16   2   6 61.8638 69.8992   2
  16  -4 -18 30.5796 67.0499   2
  16   4 -18 4.98048 68.5059   2
  16  -4 -17 214.104 78.9034   2
  16  -4 -16 1407.06 137.019   2
  16  -4 -15 840.172 115.631   2
  16   4 -15 595.008 98.9132   1
  16  -4 -14 1381.73 136.766   2
  16   4 -14 1296.55 134.118   1
  16  -4 -13 333.590 89.5274   2
  16   4 -13 570.696 99.5288   1
  16   4 -12 250.532 81.4677   1
  16  -4 -12 335.539 89.4316   2
  16   4 -11 185.422 79.6262   1
  16  -4 -11 98.7389 73.0190   2
  16   4 -10 317.853 80.4820   1
  16  -4 -10 295.335 83.4528   2
  16   4  -9 176.508 73.3344   1
  16  -4  -9 275.461 84.9859   2
  16  -4  -8 2057.66 158.352   2
  16   4  -8 2415.87 168.580   1
  16   4  -7 327.534 83.5134   1
  16  -4  -7 249.665 76.2601   2
  16   4  -6 809.382 110.432   1
  16  -4  -6 768.427 113.182   2
  16   4  -5 93.2692 70.5261   1
  16  -4  -5 50.1118 71.1614   2
  16   4  -4 304.149 82.6764   1
  16  -4  -4 261.618 87.2298   2
  16   4  -3 694.902 105.901   1
  16  -4  -3 547.024 100.742   2
  16   4  -2 3161.75 191.483   1
  16  -4  -2 2781.95 186.064   2
  16   4  -1 91.0998 79.4367   1
  16  -4  -1 135.964 74.7426   2
  16  -4   0 130.202 74.9117   2
  16  -4   1 1127.11 132.720   2
  16  -4   2 317.776 96.6454   2
  16   4   2 376.083 99.9453   2
  16  -4   3 15.9747 72.0670   2
  16   4   3-63.0662 70.8385   2
  16  -4   4 1550.10 148.056   2
  16   4   4 1700.66 160.496   2
  16  -4   5 109.967 78.0203   2
  16   4   5 129.004 78.3680   2
  16   6 -18-2.48646 66.3663   1
  16  -6 -17 80.4085 70.6350   2
  16   6 -17 115.632 76.5407   1
  16  -6 -16 130.850 77.8019   2
  16   6 -16 149.001 78.2244   1
  16  -6 -15-2.01118 69.7360   2
  16   6 -15 96.3002 74.2396   1
  16  -6 -14 104.682 73.0105   2
  16   6 -14 98.6071 67.5284   1
  16   6 -13 2201.73 167.636   1
  16  -6 -13 2215.64 166.699   2
  16  -6 -12-2.40303 66.9124   2
  16   6 -12-6.41356 63.2522   1
  16  -6 -11 1309.94 133.178   2
  16   6 -11 1270.65 132.173   1
  16  -6 -10 1140.56 126.677   2
  16   6 -10 1110.64 128.364   1
  16  -6  -9 1238.02 131.892   2
  16   6  -9 1183.65 129.436   1
  16  -6  -8 23.8706 67.3968   2
  16   6  -8 37.6159 67.0603   1
  16  -6  -7 467.088 96.0955   2
  16   6  -7 429.049 92.4163   1
  16  -6  -6 8.89833 68.0631   2
  16   6  -6-27.6516 69.8662   1
  16   6  -5 1279.28 136.067   1
  16  -6  -5 1482.57 140.805   2
  16  -6  -4 118.133 74.2449   2
  16   6  -4 181.406 79.1906   1
  16  -6  -3 960.101 124.869   2
  16   6  -3 698.663 107.167   1
  16  -6  -2 508.328 102.037   2
  16   6  -2 574.101 102.774   1
  16  -6  -1 422.746 94.6721   2
  16   6  -1 297.309 87.8686   1
  16  -6   0 193.084 86.3691   2
  16   6   0 93.8774 76.0678   1
  16  -6   1 1465.22 150.423   2
  16   6   1 1484.16 145.349   1
  16  -6   2 154.229 89.7051   2
  16   6   2 53.6806 70.8673   1
  16  -6   3 357.915 94.5468   2
  16  -6   4 827.786 126.575   2
 -16   6  -4 776.948 116.421   3
 -16   6  -5 35.9842 67.5348   3
  16   6   5-61.3498 79.9953   2
  16   8 -17 47.0274 68.8709   1
  16   8 -16 483.529 99.2631   1
  16   8 -15 23.6271 69.4793   1
  16   8 -14 1633.28 153.355   1
  16  -8 -14 1771.69 156.877   2
  16  -8 -13 10.6310 66.9131   2
  16   8 -13 47.3289 76.9911   1
  16  -8 -12 567.698 108.955   2
  16   8 -12 536.527 102.211   1
  16  -8 -11-29.0699 74.1546   2
  16   8 -11 0.69353 69.0996   1
  16  -8 -10 57.1213 68.0743   2
  16   8 -10 7.74400 68.2869   1
  16  -8  -9-12.5457 69.5562   2
  16   8  -9 30.8451 76.7501   1
  16  -8  -8 1126.12 132.637   2
  16   8  -8 946.610 125.506   1
  16  -8  -7 405.111 90.5646   2
  16   8  -7 325.200 87.8518   1
  16   8  -6 2076.77 172.428   1
  16  -8  -6 1923.56 159.863   2
  16  -8  -5 815.023 117.732   2
  16   8  -5 818.602 119.469   1
  16  -8  -4 86.6185 73.7827   2
  16   8  -4 81.2454 69.6593   1
  16  -8  -3 113.911 74.4895   2
  16   8  -3-84.7699 79.8256   1
  16   8  -2 1662.70 157.506   1
  16  -8  -2 1708.24 155.914   2
  16   8  -1 169.598 79.5138   1
  16  -8  -1 283.452 92.4826   2
  16  -8   0 64.5615 75.4081   2
  16   8   0 116.293 72.6273   1
  16  -8   1 82.6637 85.1195   2
 -16   8  -1 90.3349 62.8966   3
  16   8   1 177.537 87.2786   1
 -16   8  -2 69.1901 60.8319   3
  16   8   2 109.608 76.8702   1
  16   8   3 90.1470 81.4163   1
 -16   8  -3 88.0391 76.3815   3
  16   8   4 2017.09 174.491   1
 -16   8  -4 1842.23 164.237   3
  16  10 -16 214.770 84.4870   1
  16  10 -15 8.89768 82.1035   1
  16  10 -14 161.165 81.7479   1
  16  10 -13 2334.98 185.491   1
  16  10 -12 19.2178 71.1518   1
  16  10 -11 2121.05 175.947   1
  16  10 -10 272.581 89.0664   1
  16  10  -9 997.087 134.874   1
  16  10  -8 191.735 91.4059   1
  16  10  -7 63.6498 72.3720   1
  16  10  -6 237.883 86.1723   1
  16  10  -5 2157.26 181.909   1
  16  10  -4 48.7880 72.8525   1
  16  10  -3 257.867 97.4093   1
  16  10  -2 197.851 92.3428   1
 -16  10   1 677.471 87.9007   3
  16  10  -1 698.409 117.205   1
 -16  10   0 26.1219 56.5574   3
  16  10   0 46.0777 76.6906   1
 -16  10  -1 2744.73 174.279   3
  16  10   1 3040.84 211.891   1
  16  10   2 371.350 92.4216   1
 -16  10  -2 260.176 83.9289   3
 -16  10  -3 1727.51 153.925   3
  16  10   3 1802.62 171.650   1
  16  12 -14 992.451 141.460   1
  16  12 -13 112.103 83.0591   1
  16  12 -12 203.158 91.8874   1
  16  12 -11 137.361 85.1033   1
  16  12 -10 769.935 126.562   1
  16  12  -9 281.182 93.2178   1
  16  12  -8 629.006 122.513   1
  16  12  -7 1070.27 144.404   1
  16  12  -6 136.495 86.7205   1
  16  12  -5 2617.01 245.914   1
  16  12  -4 314.361 104.826   1
  16  12  -3 630.183 122.213   1
  16  12  -2 2134.75 188.868   1
  16  12  -1 95.7926 89.9627   1
  16  12   0 164.933 88.6871   1
  16  12   1 232.922 92.5457   1
  16  14 -11 130.728 91.3521   1
  16  14 -10 111.650 90.5324   1
  16  14  -9 94.3775 83.0719   1
  16  14  -8 203.997 103.757   1
  16  14  -7 534.156 134.353   1
  16  14  -6-143.673 113.429   1
  16  14  -5 2018.58 206.942   1
  16  14  -4-12.7566 78.6510   1
  16  14  -3 625.069 140.012   1
  16  14  -2 29.8392 80.2877   1
  17   1 -18 44.9326 71.1217   2
  17  -1 -18 257.826 88.8719   2
  17   1 -17 298.626 88.0401   2
  17  -1 -17 168.485 79.8263   2
  17   1 -16 102.904 84.1803   2
  17  -1 -16 236.574 83.5269   2
  17   1 -15 2004.54 165.473   2
  17  -1 -15 1982.86 165.296   2
  17   1 -14 433.743 94.4736   2
  17  -1 -14 484.788 104.249   2
  17   1 -13 270.351 83.1811   2
  17  -1 -13 387.949 97.4321   2
  17   1 -12 2194.78 173.633   2
  17  -1 -12 2225.62 173.307   2
  17   1 -11-47.8950 69.4430   2
  17  -1 -11 132.818 76.7566   2
  17  -1 -10 2034.84 106.433   3
  17   1 -10 2564.11 185.481   2
  17  -1 -10 2730.18 191.146   2
  17  -1  -9 388.840 53.3612   3
  17   1  -9 383.696 62.3367   3
  17   1  -9 488.356 102.749   2
  17  -1  -9 512.264 101.476   2
  17  -1  -8 603.710 67.8914   3
  17   1  -8 576.768 75.3682   3
  17   1  -8 805.858 121.514   2
  17  -1  -8 676.358 108.602   2
  17  -1  -7 1228.77 93.0495   3
  17   1  -7 1407.11 110.264   3
  17   1  -7 1608.06 152.536   2
  17  -1  -7 1534.12 147.022   2
  17  -1  -6 63.9096 43.7183   3
  17   1  -6 24.3450 45.1340   3
  17   1  -6 137.829 79.0103   2
  17  -1  -6 18.4224 69.9679   2
  17  -1  -5 255.141 59.0191   3
  17   1  -5 285.697 68.0995   3
  17   1  -5 397.373 99.3663   2
  17  -1  -5 307.545 85.5835   2
  17  -1  -4 94.1385 48.9430   3
  17   1  -4 148.471 72.5258   2
  17  -1  -4 126.062 82.8222   2
  17   1  -3 1399.68 142.447   2
  17  -1  -3 1284.04 134.917   2
  17   1  -2 340.273 101.060   2
  17  -1  -2 354.100 91.7900   2
  17   1  -1 515.535 103.440   2
  17  -1  -1 483.996 101.486   2
  17   1   0 576.446 103.735   2
  17  -1   0 714.556 115.981   2
  17   1   1 141.757 89.8636   2
  17  -1   1 32.3970 73.1230   2
  17   1   2 1111.69 136.568   2
  17  -1   2 1211.01 137.379   2
  17   1   3 945.659 129.489   2
  17  -1   3 1051.34 128.722   2
  17   1   4 133.806 84.7249   2
  17  -1   4 233.435 95.9415   2
  17  -3 -18 352.178 86.6380   2
  17   3 -18 412.062 96.9652   2
  17  -3 -17 701.418 111.826   2
  17   3 -17 674.152 113.235   2
  17   3 -16-54.4183 80.7056   2
  17  -3 -16 102.170 76.3322   2
  17  -3 -15 353.990 90.1863   2
  17  -3 -14 66.2775 76.5210   2
  17  -3 -13 959.885 123.428   2
  17  -3 -12 99.7519 72.8729   2
  17   3 -11 654.440 107.676   1
  17  -3 -11 659.176 110.466   2
  17   3 -10 104.259 69.7067   1
  17  -3 -10-15.5589 71.1034   2
  17   3  -9 267.496 85.3295   1
  17  -3  -9 259.950 87.8545   2
  17   3  -8 20.7498 64.3839   1
  17  -3  -8 48.8920 33.1015   3
  17  -3  -8 47.4594 72.4674   2
  17   3  -7 570.712 98.3099   1
  17  -3  -7 352.151 91.8915   2
  17   3  -6 1646.74 146.820   1
  17  -3  -6 1679.89 153.285   2
  17  -3  -5 437.871 101.188   2
  17  -3  -4 398.624 95.8089   2
  17  -3  -3 152.227 73.5523   2
  17  -3  -2 1155.20 132.604   2
  17   3  -1 369.502 101.404   2
  17  -3  -1 285.593 92.1225   2
  17   3   0 356.118 103.331   2
  17  -3   0 363.196 102.721   2
  17   3   1 87.3595 89.7080   2
  17  -3   1 43.2985 71.7202   2
  17  -3   2 808.558 122.802   2
  17   3   2 484.623 107.247   2
  17  -3   3 112.888 84.7418   2
  17   3   3-4.48459 84.2405   2
  17  -3   4 93.7852 73.2701   2
  17   3   4 205.233 90.9027   2
  17  -5 -18 223.709 89.2081   2
  17  -5 -17-81.5659 75.4831   2
  17  -5 -16 142.317 80.3837   2
  17   5 -16 298.210 90.4853   1
  17  -5 -15-101.778 79.8445   2
  17   5 -15 65.3770 72.2705   1
  17  -5 -14 536.451 101.092   2
  17   5 -14 269.128 81.8765   1
  17  -5 -13-30.2773 72.8015   2
  17   5 -13 7.73095 66.4292   1
  17  -5 -12 727.601 115.193   2
  17   5 -12 712.714 111.953   1
  17  -5 -11 449.379 98.5529   2
  17   5 -11 613.524 105.217   1
  17  -5 -10 1667.36 153.504   2
  17   5 -10 2091.99 169.202   1
  17   5  -9 241.616 83.6494   1
  17  -5  -9 357.960 95.3077   2
  17   5  -8 275.675 90.0003   1
  17  -5  -8 152.312 75.2883   2
  17   5  -7 286.270 83.1507   1
  17  -5  -7 316.471 91.5401   2
  17   5  -6 929.811 125.975   1
  17  -5  -6 716.323 111.094   2
  17  -5  -5 205.013 87.3462   2
  17   5  -5 112.277 66.7172   1
  17  -5  -4 773.490 116.404   2
  17   5  -4 801.569 116.651   1
  17  -5  -3 1042.30 124.529   2
  17   5  -3 1162.03 134.257   1
  17  -5  -2 45.7077 75.5607   2
  17   5  -2-100.323 74.3035   1
  17  -5  -1 508.595 103.444   2
  17   5  -1 464.109 97.5943   1
  17  -5   0 1347.19 147.705   2
  17   5   0 1262.50 139.783   1
  17  -5   1 116.717 84.3087   2
  17  -5   2 1046.53 134.771   2
  17  -5   3 169.295 83.5396   2
  17   5   3 161.246 88.7250   2
  17  -7 -17-20.5268 74.2511   2
  17   7 -17 108.944 80.5872   1
  17   7 -16 256.653 89.2645   1
  17  -7 -16 533.015 108.214   2
  17  -7 -15 481.563 105.365   2
  17   7 -15 351.700 93.4102   1
  17  -7 -14 83.0695 78.9745   2
  17   7 -14-13.0880 70.2949   1
  17  -7 -13 177.680 82.1378   2
  17   7 -13 227.711 85.9268   1
  17  -7 -12 92.9223 75.6314   2
  17   7 -12 297.267 96.8169   1
  17  -7 -11 131.160 75.0025   2
  17   7 -11-23.3433 69.2834   1
  17  -7 -10 183.820 79.9166   2
  17   7 -10 184.158 79.2485   1
  17  -7  -9 344.659 90.0018   2
  17   7  -9 255.248 79.8903   1
  17   7  -8 1552.41 149.741   1
  17  -7  -8 1715.23 155.571   2
  17   7  -7 2301.00 178.399   1
  17  -7  -7 2256.57 175.720   2
  17   7  -6 1785.43 158.555   1
  17  -7  -6 2052.65 172.239   2
  17  -7  -5 86.1861 73.6455   2
  17   7  -5 244.691 93.1718   1
  17   7  -4 3010.73 203.817   1
  17  -7  -4 3262.29 210.532   2
  17  -7  -3 578.182 107.906   2
  17   7  -3 389.100 93.3085   1
  17  -7  -2 211.311 89.8848   2
  17   7  -2 309.262 102.464   1
  17  -7  -1 1233.20 143.359   2
  17   7  -1 1219.50 141.822   1
  17  -7   0 141.933 85.1647   2
  17   7   0 99.0409 70.8288   1
  17  -7   1 237.410 92.6946   2
  17   7   1 47.5063 74.8456   1
  17  -7   2 236.505 92.1564   2
  17   7   2 109.564 74.3856   1
  17   9 -16 240.805 89.7658   1
  17   9 -15 362.175 103.959   1
  17   9 -14 9.29089 76.8239   1
  17   9 -13 574.338 111.463   1
  17  -9 -12-73.6490 76.3285   2
  17   9 -12 4.45491 71.0704   1
  17  -9 -11 441.114 100.653   2
  17   9 -11 420.201 100.729   1
  17  -9 -10 91.3406 69.8329   2
  17   9 -10 87.0504 80.3836   1
  17  -9  -9 836.583 117.061   2
  17   9  -9 918.374 130.968   1
  17  -9  -8 192.370 80.3271   2
  17   9  -8 126.943 75.2635   1
  17  -9  -7 1334.37 150.505   2
  17   9  -7 1334.20 152.901   1
  17  -9  -6 1062.38 135.190   2
  17   9  -6 1005.79 134.102   1
  17  -9  -5 56.7316 73.7448   2
  17   9  -5 88.0132 84.4594   1
  17  -9  -4 1411.53 150.910   2
  17   9  -4 1476.12 160.970   1
  17   9  -3 336.875 97.5102   1
  17  -9  -3 412.214 101.556   2
  17   9  -2 304.951 100.601   1
  17  -9  -2 411.130 102.408   2
  17   9  -1 81.7188 82.5778   1
  17   9   0 10.6068 77.0046   1
  17   9   1-2.96303 75.0079   1
  17  11 -14 531.536 115.390   1
  17  11 -13-9.60455 79.7984   1
  17  11 -12 342.432 107.503   1
  17  11 -11 206.512 91.5484   1
  17  11 -10 177.296 88.2393   1
  17  11  -9 895.652 133.722   1
  17  11  -8-75.3601 84.4416   1
  17  11  -7 504.992 120.174   1
  17  11  -6 418.234 108.176   1
  17  11  -5 183.434 88.0963   1
  17  11  -4 17.3426 80.2905   1
  17  11  -3 683.265 124.822   1
  17  11  -2 105.812 89.9708   1
  17  11  -1 25.6486 89.4261   1
  17  11   0 898.316 131.266   1
  17  13 -11 97.9672 86.0415   1
  17  13 -10 876.323 137.268   1
  17  13  -9 144.848 95.1902   1
  17  13  -8 204.687 97.7008   1
  17  13  -7 276.234 104.363   1
  17  13  -6 1042.91 157.532   1
  17  13  -5 100.372 82.9069   1
  17  13  -4 591.798 126.359   1
  17  13  -3 219.000 100.262   1
  18   0 -18 72.4585 82.7618   2
  18   0 -17-16.9392 72.9007   2
  18   0 -16 643.368 113.185   2
  18   0 -15 125.793 84.2957   2
  18   0 -14-72.3714 84.4428   2
  18   0 -13 119.125 79.0573   2
  18   0 -12 104.637 76.3954   2
  18   0 -11-27.9465 74.8840   2
  18   0 -10 1950.68 168.542   2
  18   0  -9-90.3342 79.1352   2
  18   0  -8 3002.84 148.838   3
  18   0  -8 3953.69 231.845   2
  18   0  -7 24.7082 45.7601   3
  18   0  -7-91.5970 72.9003   2
  18   0  -6 1722.73 123.139   3
  18   0  -6 1630.59 176.748   2
  18   0  -5 87.7953 78.5249   2
  18   0  -4 974.494 131.565   2
  18   0  -3 124.558 88.0676   2
  18   0  -2 432.446 112.794   2
  18   0  -1-3.07063 81.0761   2
  18   0   0 1073.31 138.440   2
  18   0   1 171.539 92.8229   2
  18   0   2 415.202 101.699   2
  18   0   3-3.84019 89.8875   2
  18   2 -17 483.987 108.608   2
  18  -2 -17 681.733 116.776   2
  18   2 -16 310.602 94.2901   2
  18  -2 -16 327.889 99.6412   2
  18   2 -15 315.571 101.876   2
  18  -2 -15 72.3417 79.5596   2
  18   2 -14-8.13253 73.6005   2
  18  -2 -14 31.6238 76.1236   2
  18   2 -13 117.305 81.0149   2
  18  -2 -13 78.2949 77.8332   2
  18   2 -12-25.2304 73.7795   2
  18  -2 -12 42.1791 74.1271   2
  18   2 -11 1990.70 172.872   2
  18  -2 -11 2230.43 176.525   2
  18   2 -10 454.511 105.762   2
  18  -2 -10 390.470 93.8053   2
  18   2  -9-16.0800 46.1968   3
  18   2  -9-36.2246 81.9000   2
  18  -2  -9-74.1831 76.9041   2
  18   2  -8 313.977 67.9161   3
  18   2  -8 565.197 106.455   2
  18  -2  -8 545.669 108.419   2
  18   2  -7 1085.26 145.624   2
  18  -2  -7 914.525 122.470   2
  18   2  -6 274.714 95.0560   2
  18  -2  -6 207.946 85.3300   2
  18   2  -5 3713.68 244.438   2
  18  -2  -5 3911.61 233.577   2
  18   2  -4 145.934 89.4761   2
  18  -2  -4 175.599 86.8826   2
  18  -2  -3 1631.41 164.277   2
  18   2  -3 1226.35 154.921   2
  18   2  -2-15.9218 74.5141   2
  18  -2  -2 348.803 100.995   2
  18   2  -1-71.6971 86.1551   2
  18  -2  -1 111.016 81.6971   2
  18   2   0 73.8799 78.1466   2
  18  -2   0 71.0242 79.2370   2
  18   2   1 825.800 126.990   2
  18  -2   1 764.953 121.536   2
  18   2   2 349.722 105.824   2
  18  -2   2 256.923 96.5260   2
  18  -4 -17 49.9944 73.8013   2
  18   4 -17 14.7437 80.3950   2
  18  -4 -16 550.284 107.681   2
  18  -4 -15-131.656 83.8349   2
  18  -4 -14 1482.41 152.568   2
  18   4 -13 271.764 88.9803   1
  18  -4 -13 111.796 78.6758   2
  18  -4 -12 627.355 113.857   2
  18   4 -12 564.078 102.852   1
  18   4 -11-142.357 82.6902   1
  18  -4 -11 174.829 87.5514   2
  18   4 -10 362.445 90.6698   1
  18  -4 -10 356.534 94.0946   2
  18   4  -9 38.9004 71.1813   1
  18  -4  -9 275.051 85.6664   2
  18   4  -8 2410.31 188.053   1
  18  -4  -8 2695.69 190.937   2
  18   4  -7 672.159 117.119   1
  18  -4  -7 627.826 112.214   2
  18   4  -6 808.255 123.375   1
  18  -4  -6 698.276 117.714   2
  18   4  -5 1321.59 147.991   1
  18  -4  -5 1319.93 147.774   2
  18   4  -4 134.555 85.0999   1
  18  -4  -4 48.8944 78.4905   2
  18  -4  -3-56.5351 72.8228   2
  18  -4  -2 524.748 116.673   2
  18  -4  -1 174.686 88.3813   2
  18  -4   0 712.760 120.121   2
  18   4   0 773.202 131.290   2
  18  -4   1 1466.29 161.875   2
  18   4   1 1468.99 169.295   2
  18  -4   2-0.12830 81.7539   2
  18   4   2 0.68758 86.7774   2
  18  -6 -16 48.3578 76.0124   2
  18   6 -16 257.273 96.6534   1
  18  -6 -15 76.9149 75.6178   2
  18   6 -15-49.9812 78.5370   1
  18  -6 -14 86.1304 71.4464   2
  18   6 -14 219.215 82.6697   1
  18  -6 -13 518.891 101.436   2
  18   6 -13 561.073 106.106   1
  18  -6 -12 222.602 89.8882   2
  18   6 -12 222.460 85.6993   1
  18  -6 -11 1732.14 166.594   2
  18   6 -11 1922.77 171.320   1
  18  -6 -10 73.6621 71.0581   2
  18   6 -10 52.2311 71.5648   1
  18  -6  -9 936.860 132.487   2
  18   6  -9 799.837 126.903   1
  18  -6  -8 1011.69 133.107   2
  18   6  -8 996.443 131.517   1
  18  -6  -7 1049.41 140.003   2
  18   6  -7 953.412 129.032   1
  18  -6  -6 145.230 81.8657   2
  18   6  -6 13.1357 79.2832   1
  18  -6  -5 377.491 96.6448   2
  18   6  -5 370.022 107.205   1
  18  -6  -4 381.990 101.553   2
  18   6  -4 410.020 108.004   1
  18  -6  -3 230.555 97.4232   2
  18   6  -3 48.3596 76.8018   1
  18  -6  -2 99.9101 87.4423   2
  18   6  -2-91.7311 83.1697   1
  18   6  -1 1845.06 173.099   1
  18  -6  -1 1621.31 167.986   2
  18  -6   0 133.476 75.7110   2
  18   6   0 148.950 87.7763   1
  18  -6   1 2128.70 188.306   2
  18  -8 -15-13.0166 79.8361   2
  18   8 -15 84.7975 82.1486   1
  18   8 -14 2798.38 206.092   1
  18  -8 -14 2609.82 199.766   2
  18  -8 -13 50.4372 76.8880   2
  18   8 -13 111.350 78.8716   1
  18  -8 -12 373.457 102.256   2
  18   8 -12 292.599 95.6544   1
  18  -8 -11 98.9459 92.9801   2
  18   8 -11-117.412 84.9121   1
  18  -8 -10 59.7648 83.9555   2
  18   8 -10 58.7976 81.6688   1
  18  -8  -9 480.312 105.523   2
  18   8  -9 409.932 100.251   1
  18  -8  -8 279.693 93.8777   2
  18   8  -8 152.339 94.0080   1
  18  -8  -7 293.152 102.406   2
  18   8  -7 244.151 86.9551   1
  18  -8  -6 127.084 83.9702   2
  18   8  -6-75.8825 84.6849   1
  18  -8  -5-29.7555 77.8775   2
  18   8  -5-67.1179 73.9524   1
  18  -8  -4 589.301 114.689   2
  18   8  -4 373.441 96.1497   1
  18  -8  -3-201.365 99.0199   2
  18   8  -3 206.636 89.8834   1
  18  -8  -2 538.256 117.504   2
  18   8  -2 337.643 107.204   1
  18   8  -1 129.215 84.0814   1
  18  -8  -1 92.0091 77.0164   2
  18  -8   0 519.560 113.907   2
  18   8   0 320.152 104.648   1
  18  10 -13 234.713 94.4318   1
  18  10 -12 600.908 116.937   1
  18  10 -11 818.215 128.211   1
  18  10 -10-74.5280 86.8729   1
  18  10  -9 399.862 104.139   1
  18  10  -8 8.33066 76.2939   1
  18  10  -7 32.0675 77.6731   1
  18  10  -6-31.2562 80.7869   1
  18  10  -5 712.690 138.183   1
  18  10  -4 2753.91 220.163   1
  18  10  -3 108.162 90.9070   1
  18  10  -2-20.7699 83.8214   1
  18  12 -10 786.774 139.137   1
  18  12  -9 208.714 104.139   1
  18  12  -8 793.371 142.054   1
  18  12  -7 183.947 102.525   1
  18  12  -6 380.609 110.366   1
  18  12  -5-16.6823 82.9114   1
  19   1 -16 218.741 97.9089   2
  19  -1 -16 104.676 89.1480   2
  19   1 -15 418.811 110.626   2
  19  -1 -15 345.198 103.765   2
  19   1 -14 70.2150 85.4183   2
  19  -1 -14 30.0021 80.5788   2
  19   1 -13 387.408 100.024   2
  19  -1 -13 391.819 105.287   2
  19   1 -12 2083.43 179.392   2
  19  -1 -12 2123.06 186.944   2
  19   1 -11 103.134 73.3798   2
  19  -1 -11 86.4461 85.1644   2
  19   1 -10 360.461 103.164   2
  19  -1 -10 294.948 100.369   2
  19   1  -9 226.751 86.5006   2
  19  -1  -9 110.298 77.4143   2
  19   1  -8-43.6844 85.7813   2
  19  -1  -8-20.8584 73.1748   2
  19   1  -7 281.661 107.108   2
  19  -1  -7 328.935 101.550   2
  19   1  -6 499.211 101.734   2
  19  -1  -6 525.941 105.974   2
  19   1  -5 233.221 96.6967   2
  19  -1  -5 114.848 90.2360   2
  19   1  -4 77.7387 82.4349   2
  19  -1  -4 257.918 101.118   2
  19   1  -3-47.8240 81.7832   2
  19  -1  -3 44.7314 82.4825   2
  19   1  -2 350.766 109.367   2
  19  -1  -2 269.742 99.3019   2
  19   1  -1 1085.20 150.803   2
  19  -1  -1 996.665 137.508   2
  19   1   0 1244.84 154.596   2
  19  -1   0 1250.53 151.435   2
  19   1   1 157.806 100.701   2
  19  -1   1 51.5073 92.0388   2
  19   3 -16 18.6629 77.1424   2
  19  -3 -16 92.2119 81.7789   2
  19   3 -15 1115.15 140.096   2
  19  -3 -15 1079.39 139.010   2
  19   3 -14 68.1802 82.3722   2
  19  -3 -14 83.1300 79.6585   2
  19   3 -13 2000.24 180.719   2
  19  -3 -13 1919.26 172.056   2
  19  -3 -12 651.730 121.613   2
  19  -3 -11 102.178 81.3566   2
  19  -3 -10 69.4770 81.1017   2
  19  -3  -9 596.460 115.687   2
  19  -3  -8 359.333 103.666   2
  19  -3  -7-0.84955 78.6986   2
  19  -3  -6 1050.69 137.955   2
  19   3  -5 286.313 118.496   2
  19  -3  -5 363.615 97.8544   2
  19   3  -4 475.754 127.728   2
  19  -3  -4 798.401 130.258   2
  19   3  -3 1047.03 155.476   2
  19  -3  -3 1465.78 153.407   2
  19   3  -2 465.819 116.870   2
  19  -3  -2 609.235 120.077   2
  19   3  -1 1119.68 143.583   2
  19  -3  -1 1025.14 143.192   2
  19  -3   0 1029.13 139.569   2
  19   3   0 1114.31 156.876   2
  19  -5 -15 24.9882 81.9167   2
  19  -5 -14 70.4830 80.0877   2
  19   5 -14 156.267 93.1166   1
  19  -5 -13 194.653 89.9316   2
  19   5 -13 87.4730 80.7131   1
  19  -5 -12 385.113 103.564   2
  19   5 -12 306.172 91.5474   1
  19  -5 -11 1000.96 131.020   2
  19   5 -11 1163.54 139.540   1
  19  -5 -10 724.249 121.054   2
  19   5 -10 1128.13 145.389   1
  19   5  -9 1906.14 175.788   1
  19  -5  -9 1781.13 169.015   2
  19  -5  -8 550.109 119.308   2
  19   5  -8 325.274 95.3609   1
  19  -5  -7 1501.84 161.903   2
  19   5  -7 1441.50 162.415   1
  19  -5  -6 296.614 100.701   2
  19   5  -6 257.371 97.6415   1
  19  -5  -5 39.1512 74.7171   2
  19   5  -5 7.27168 76.9765   1
  19  -5  -4 414.613 111.822   2
  19   5  -4 275.521 98.1043   1
  19  -5  -3-8.57946 77.0822   2
  19  -5  -2 102.093 84.8800   2
  19  -5  -1 103.637 87.5479   2
  19  -5   0 72.5987 87.7250   2
  19   5   0 65.2715 96.4330   2
  19  -7 -14 88.8339 88.4059   2
  19   7 -14 122.589 94.8464   1
  19  -7 -13 168.790 89.3469   2
  19   7 -13 39.0387 76.0395   1
  19   7 -12-125.003 87.8053   1
  19  -7 -12 102.698 91.6573   2
  19  -7 -11 60.6738 83.9112   2
  19   7 -11 29.1778 74.5508   1
  19  -7 -10 163.615 88.8438   2
  19   7 -10 13.4450 78.5476   1
  19  -7  -9 1018.54 138.580   2
  19   7  -9 1045.72 147.820   1
  19  -7  -8 322.306 94.0684   2
  19   7  -8 469.110 108.529   1
  19  -7  -7 1371.27 155.101   2
  19   7  -7 1395.25 159.828   1
  19   7  -6 339.410 163.369   1
  19  -7  -6 90.6269 83.9927   2
  19  -7  -5 154.136 89.6358   2
  19   7  -5 170.951 93.1309   1
  19  -7  -4 938.465 134.146   2
  19   7  -4 791.532 130.506   1
  19  -7  -3-3.81338 83.0406   2
  19   7  -3-74.1319 84.4423   1
  19   7  -2 70.0762 89.4153   1
  19  -7  -2 3.66000 89.6299   2
  19  -7  -1 1452.41 167.558   2
  19   7  -1 1435.01 170.006   1
  19  -9 -13 154.606 91.3229   2
  19   9 -13 63.1895 86.0309   1
  19  -9 -12 1077.63 141.709   2
  19   9 -12 995.454 139.814   1
  19  -9 -11 231.935 89.1230   2
  19   9 -11 280.326 99.1482   1
  19  -9 -10 122.802 84.3388   2
  19   9 -10 179.219 95.8012   1
  19  -9  -9 360.943 101.855   2
  19   9  -9 290.228 103.287   1
  19  -9  -8 276.644 96.5350   2
  19   9  -8-83.5482 88.6943   1
  19  -9  -7 712.586 127.799   2
  19   9  -7 678.920 134.550   1
  19  -9  -6 783.000 133.615   2
  19   9  -6 930.667 146.708   1
  19  -9  -5 152.057 88.4006   2
  19   9  -5 89.6833 92.2345   1
  19  -9  -4 850.408 140.724   2
  19   9  -4 632.487 128.472   1
  19  -9  -3 236.334 88.5305   2
  19   9  -3 235.556 93.2834   1
  20   0 -15-69.4747 81.7416   2
  20   0 -14 354.327 101.781   2
  20   0 -13-53.4493 83.2607   2
  20   0 -12 746.653 130.856   2
  20   0 -11-214.326 97.1495   2
  20   0 -10 2405.31 197.147   2
  20   0  -9-56.8597 82.7068   2
  20   0  -8 3404.65 256.255   2
  20   0  -7-131.217 90.1899   2
  20   0  -6 4287.52 309.609   2
  20   0  -5 99.0078 86.7427   2
  20   0  -4 134.767 90.8289   2
  20   0  -3-40.6461 90.8960   2
  20   0  -2 803.091 135.414   2
  20   0  -1 102.370 94.7912   2
  20   2 -15 162.682 90.4813   2
  20  -2 -15 41.0990 80.2515   2
  20   2 -14 118.130 89.7087   2
  20  -2 -14 55.7917 90.7741   2
  20  -2 -13 1635.47 180.539   2
  20   2 -13 1051.24 145.657   2
  20   2 -12 110.434 81.8799   2
  20  -2 -12 231.708 97.7660   2
  20   2 -11 682.339 127.841   2
  20  -2 -11 616.689 123.201   2
  20   2 -10 582.172 122.725   2
  20  -2 -10 425.347 104.616   2
  20   2  -9 34.6442 89.5578   2
  20  -2  -9-59.7713 87.0569   2
  20   2  -8 127.305 95.5074   2
  20  -2  -8 162.332 90.2592   2
  20   2  -7 363.487 112.936   2
  20  -2  -7 626.612 128.337   2
  20   2  -6 3075.13 273.243   2
  20  -2  -6 608.842 125.771   2
  20   2  -5 1097.52 172.568   2
  20  -2  -5 1072.14 155.330   2
  20   2  -4-79.0559 94.6606   2
  20  -2  -4 456.208 138.775   2
  20   2  -3 76.3529 90.5652   2
  20  -2  -3 336.320 116.877   2
  20   2  -2 290.293 105.608   2
  20  -2  -2 138.965 82.3854   2
  20  -4 -14 541.603 121.916   2
  20  -4 -13 408.352 114.087   2
  20  -4 -12-34.4325 85.4806   2
  20  -4 -11 385.212 107.068   2
  20  -4 -10 845.430 129.466   2
  20  -4  -9 127.807 93.0172   2
  20  -4  -8 848.063 137.057   2
  20  -4  -7 92.4295 78.8704   2
  20  -4  -6 160.070 86.7887   2
  20  -4  -5 82.0924 89.5170   2
  20   4  -4 77.8746 84.0685   2
  20  -4  -4 1266.61 150.787   2
  20  -4  -3 30.2511 83.1878   2
  20   4  -3 37.0348 89.8849   2
  20  -4  -2 1471.87 162.686   2
  20   4  -2 1362.51 176.983   2
  20  -6 -13 207.438 97.6996   2
  20   6 -13 249.808 96.6888   1
  20  -6 -12 218.274 99.8802   2
  20   6 -12 254.008 95.1222   1
  20  -6 -11 672.656 123.842   2
  20   6 -11 537.834 120.050   1
  20  -6 -10 113.802 89.1511   2
  20   6 -10-104.818 91.0092   1
  20  -6  -9 99.7422 84.7032   2
  20   6  -9 13.0012 79.5370   1
  20  -6  -8 888.074 135.899   2
  20   6  -8 861.928 137.985   1
  20  -6  -7 249.315 104.611   2
  20   6  -7 139.552 91.4418   1
  20  -6  -6 27.9923 77.9124   2
  20   6  -6 126.017 94.1309   1
  20  -6  -5 586.047 123.197   2
  20   6  -5 489.634 118.761   1
  20  -6  -4 242.309 101.705   2
  20   6  -4 73.8344 81.4372   1
  20  -6  -3 232.792 94.0546   2
  20  -8 -11 18.9763 80.0810   2
  20   8 -11-55.0501 83.1349   1
  20  -8 -10 254.476 91.4271   2
  20   8 -10 42.1609 81.7079   1
  20  -8  -9 93.6292 93.9491   2
  20   8  -9 103.348 95.0473   1
  20  -8  -8 388.804 113.638   2
  20   8  -8 251.377 104.052   1
  20  -8  -7-132.652 95.2703   2
  20   8  -7-103.639 98.3559   1
  20   8  -6 181.725 101.918   1
  20  -8  -6-15.4771 86.3461   2
  21   1 -13-89.1853 95.3513   2
  21  -1 -13-74.4607 87.3947   2
  21   1 -12 97.0318 96.2142   2
  21  -1 -12 43.3671 85.3229   2
  21   1 -11-132.343 93.3871   2
  21  -1 -11 20.1789 86.0334   2
  21   1 -10 147.339 91.6608   2
  21  -1 -10 175.849 94.3134   2
  21   1  -9 170.587 94.1678   2
  21  -1  -9 116.613 101.038   2
  21   1  -8 132.980 101.252   2
  21  -1  -8 171.028 95.0424   2
  21   1  -7-148.265 105.068   2
  21  -1  -7-77.4895 101.773   2
  21   1  -6 986.006 161.822   2
  21  -1  -6 1024.60 158.425   2
  21   1  -5-76.7513 92.7843   2
  21  -1  -5-62.0952 99.8119   2
  21   1  -4 146.123 91.3026   2
  21  -1  -4 211.017 99.7182   2
  21   3 -12 290.353 104.522   2
  21  -3 -12 190.453 91.4088   2
  21   3 -11 306.449 109.006   2
  21  -3 -11 8.89583 82.3373   2
  21   3 -10 239.634 103.983   2
  21  -3 -10 359.613 107.704   2
  21   3  -9 189.226 107.070   2
  21  -3  -9 33.0964 84.5368   2
  21   3  -8-33.8032 95.0347   2
  21  -3  -8-51.6842 84.3235   2
  21   3  -7 196.613 105.683   2
  21  -3  -7 114.570 78.8721   2
  21   3  -6 152.658 99.6200   2
  21  -3  -6 396.254 110.673   2
  21   3  -5 165.544 107.709   2
  21  -3  -5 222.302 107.223   2
  21  -5 -11 443.684 114.747   2
  21  -5 -10 74.3719 86.8212   2
  21  -5  -9 868.397 147.935   2
  21  -5  -8 324.123 107.965   2
   0   0   0    0.00    0.00   0
 
TITL Br-DSMSAL in C2/c
REM C2/c (#15 in standard setting)
CELL 0.71073  17.803405  18.476344  17.156818  90.0000 115.4114  90.0000
ZERR    3.00   0.000934   0.000715   0.000893   0.0000   0.0063   0.0000
LATT  7
SYMM -x, y,-z+1/2
SFAC C H Li N O Zn Br
UNIT 168.00 159.00 6.00 24.00 48.00 6.00 9.00
TREF
HKLF 4
END
;
_shelx_hkl_checksum              12058
_shelx_fab_file
;
    0    0    4    -38.02      0.00
    0    0    6     -5.39      0.00
    0    0    8      6.39      0.00
    0    0   10      6.91      0.00
    0    0   12      4.50      0.00
    0    0   14     -7.19      0.00
    0    0   16     -2.64      0.00
    0    0   18      1.60      0.00
    0    2    2      1.72      0.00
    0    2    3      4.96      0.00
    0    2    4     32.88      0.00
    0    2    5    -11.63      0.00
    0    2    6      5.65      0.00
    0    2    7      2.25      0.00
    0    2    8     -4.14      0.00
    0    2    9     -4.06      0.00
    0    2   10     -7.43      0.00
    0    2   11      2.29      0.00
    0    2   12      0.88      0.00
    0    2   13     -2.08      0.00
    0    2   14      3.69      0.00
    0    2   15     -1.37      0.00
    0    2   16      2.66      0.00
    0    2   17      2.26      0.00
    0    2   18     -3.64      0.00
    0    4    0    -75.30      0.00
    0    4    1     14.41      0.00
    0    4    2     62.20      0.00
    0    4    3     14.21      0.00
    0    4    4    -11.67      0.00
    0    4    5     -1.76      0.00
    0    4    6     -5.91      0.00
    0    4    7     -5.96      0.00
    0    4    8      0.13      0.00
    0    4    9     -0.98      0.00
    0    4   10      1.11      0.00
    0    4   11      1.41      0.00
    0    4   12     -0.45      0.00
    0    4   13      4.36      0.00
    0    4   14     -0.23      0.00
    0    4   15      0.49      0.00
    0    4   16     -0.12      0.00
    0    4   17     -2.41      0.00
    0    4   18      2.79      0.00
    0    6    0    -21.69      0.00
    0    6    1    -31.76      0.00
    0    6    2      8.49      0.00
    0    6    3     -8.67      0.00
    0    6    4     -6.82      0.00
    0    6    5      4.56      0.00
    0    6    6      3.77      0.00
    0    6    7      6.20      0.00
    0    6    8      3.79      0.00
    0    6    9      6.11      0.00
    0    6   10     -0.18      0.00
    0    6   11     -7.70      0.00
    0    6   12     -2.31      0.00
    0    6   13     -7.57      0.00
    0    6   14      3.74      0.00
    0    6   15     -0.27      0.00
    0    6   16     -0.97      0.00
    0    6   17      5.93      0.00
    0    6   18     -1.44      0.00
    0    8    0     14.56      0.00
    0    8    1     -1.19      0.00
    0    8    2    -10.36      0.00
    0    8    3      9.93      0.00
    0    8    4      2.03      0.00
    0    8    5     -2.19      0.00
    0    8    6      1.61      0.00
    0    8    7     -8.00      0.00
    0    8    8      0.75      0.00
    0    8    9     -3.99      0.00
    0    8   10      1.27      0.00
    0    8   11      4.34      0.00
    0    8   12      0.05      0.00
    0    8   13      5.27      0.00
    0    8   14     -4.04      0.00
    0    8   15      2.25      0.00
    0    8   16      2.85      0.00
    0    8   17     -6.04      0.00
    0   10    0     14.89      0.00
    0   10    1      2.06      0.00
    0   10    2     -5.15      0.00
    0   10    3     -9.13      0.00
    0   10    4      1.64      0.00
    0   10    5     -0.61      0.00
    0   10    6     -5.09      0.00
    0   10    7      6.11      0.00
    0   10    8     -0.66      0.00
    0   10    9      2.11      0.00
    0   10   10      2.62      0.00
    0   10   11     -1.25      0.00
    0   10   12      3.03      0.00
    0   10   13     -1.35      0.00
    0   10   14     -2.67      0.00
    0   10   15      0.36      0.00
    0   10   16     -3.73      0.00
    0   12    0      7.09      0.00
    0   12    1      9.26      0.00
    0   12    2     -8.71      0.00
    0   12    3      0.97      0.00
    0   12    4      3.47      0.00
    0   12    5     -0.19      0.00
    0   12    6      4.44      0.00
    0   12    7     -4.00      0.00
    0   12    8      0.16      0.00
    0   12    9      0.27      0.00
    0   12   10     -4.37      0.00
    0   12   11      0.95      0.00
    0   12   12     -3.44      0.00
    0   12   13      1.27      0.00
    0   12   14      1.20      0.00
    0   12   15     -2.38      0.00
    0   14    0      3.06      0.00
    0   14    1      0.05      0.00
    0   14    2      3.04      0.00
    0   14    3     -1.63      0.00
    0   14    4     -2.81      0.00
    0   14    5      1.08      0.00
    0   14    6     -4.41      0.00
    0   14    7      2.18      0.00
    0   14    8     -0.25      0.00
    0   14    9     -3.18      0.00
    0   14   10      3.59      0.00
    0   14   11     -0.60      0.00
    0   14   12      1.99      0.00
    0   14   13      1.55      0.00
    0   14   14      3.40      0.00
    0   16    0    -12.72      0.00
    0   16    1      0.86      0.00
    0   16    2      5.15      0.00
    0   16    3      4.06      0.00
    0   16    4     -0.17      0.00
    0   16    5     -3.54      0.00
    0   16    6      6.79      0.00
    0   16    7      1.63      0.00
    0   16    8     -1.00      0.00
    0   16    9      1.84      0.00
    0   16   10     -6.90      0.00
    0   16   11     -0.83      0.00
    0   16   12     -2.10      0.00
    0   16   13      0.28      0.00
    0   18    0      3.61      0.00
    0   18    1     -1.05      0.00
    0   18    2     -2.81      0.00
    0   18    3      0.48      0.00
    0   18    4     -2.17      0.00
    0   18    5      2.63      0.00
    0   18    6      1.30      0.00
    0   18    7     -2.45      0.00
    0   18    8     -0.28      0.00
    0   18    9     -1.78      0.00
    0   18   10      5.85      0.00
    0   18   11      1.69      0.00
    0   20    0      2.39      0.00
    0   20    1     -2.74      0.00
    0   20    2     -2.58      0.00
    0   20    3     -3.67      0.00
    0   20    4      2.16      0.00
    0   20    5     -0.25      0.00
    0   20    6      0.45      0.00
    0   20    7      1.37      0.00
    0   20    8     -3.54      0.00
    0   22    0      3.55      0.00
    0   22    1      0.79      0.00
    0   22    2     -0.66      0.00
    0   22    3      3.83      0.00
    0   22    4     -0.58      0.00
   -1    1   19      1.46      0.00
   -1    1   18      0.35      0.00
   -1    1   17      3.76      0.00
   -1    1   16     -0.88      0.00
   -1    1   15      0.00      0.00
   -1    1   14      0.56      0.00
   -1    1   13     -8.14      0.00
   -1    1   12      1.77      0.00
   -1    1   11      0.78      0.00
   -1    1   10     -0.05      0.00
   -1    1    9      3.38      0.00
   -1    1    8     -0.85      0.00
   -1    1    7     11.09      0.00
   -1    1    6      0.22      0.00
   -1    1    5     -0.20      0.00
   -1    1    4      3.85      0.00
   -1    1    3     25.79      0.00
    1    1    2    -12.86      0.00
    1    1    3    -38.00      0.00
    1    1    4     18.01      0.00
    1    1    5     20.26      0.00
    1    1    6     -0.75      0.00
    1    1    7      7.65      0.00
    1    1    8      6.86      0.00
    1    1    9      1.19      0.00
    1    1   10     -4.06      0.00
    1    1   11     -6.58      0.00
    1    1   12      0.38      0.00
    1    1   13     -5.48      0.00
    1    1   14     -0.86      0.00
    1    1   15      2.35      0.00
    1    1   16     -0.89      0.00
    1    1   17      3.28      0.00
    1    1   18      1.28      0.00
   -1    3   19      0.31      0.00
   -1    3   18     -0.42      0.00
   -1    3   17     -1.19      0.00
   -1    3   16      1.99      0.00
   -1    3   15      2.27      0.00
   -1    3   14     -0.19      0.00
   -1    3   13      0.92      0.00
   -1    3   12     -4.54      0.00
   -1    3   11      3.00      0.00
   -1    3   10     -1.04      0.00
   -1    3    9     -5.73      0.00
   -1    3    8      2.08      0.00
   -1    3    7     -4.93      0.00
   -1    3    6      5.87      0.00
   -1    3    5     -9.98      0.00
   -1    3    4      1.14      0.00
   -1    3    3     56.33      0.00
   -1    3    2    -16.29      0.00
   -1    3    1    -50.27      0.00
    1    3    0     -4.29      0.00
    1    3    1    -37.28      0.00
    1    3    2      8.68      0.00
    1    3    3     27.88      0.00
    1    3    4      0.97      0.00
    1    3    5     -5.55      0.00
    1    3    6      3.74      0.00
    1    3    7     -2.81      0.00
    1    3    8    -11.25      0.00
    1    3    9      6.27      0.00
    1    3   10      0.83      0.00
    1    3   11      6.41      0.00
    1    3   12     -0.20      0.00
    1    3   13     -0.24      0.00
    1    3   14      0.78      0.00
    1    3   15     -1.80      0.00
    1    3   16      1.57      0.00
    1    3   17     -4.21      0.00
    1    3   18     -1.10      0.00
   -1    5   18      1.91      0.00
   -1    5   17      0.58      0.00
   -1    5   16     -4.28      0.00
   -1    5   15      0.14      0.00
   -1    5   14     -4.26      0.00
   -1    5   13     -3.23      0.00
   -1    5   12      3.48      0.00
   -1    5   11      3.09      0.00
   -1    5   10      5.96      0.00
   -1    5    9      7.95      0.00
   -1    5    8     -2.00      0.00
   -1    5    7      0.20      0.00
   -1    5    6     -9.26      0.00
   -1    5    5    -10.11      0.00
   -1    5    4      0.54      0.00
   -1    5    3    -19.39      0.00
   -1    5    2     -3.10      0.00
   -1    5    1     25.60      0.00
    1    5    0     36.68      0.00
    1    5    1     10.72      0.00
    1    5    2      5.23      0.00
    1    5    3     -5.36      0.00
    1    5    4    -23.31      0.00
    1    5    5     -2.39      0.00
    1    5    6     -4.31      0.00
    1    5    7      4.53      0.00
    1    5    8      4.29      0.00
    1    5    9     -3.67      0.00
    1    5   10      9.38      0.00
    1    5   11     -2.18      0.00
    1    5   12     -0.31      0.00
    1    5   13     -0.03      0.00
    1    5   14     -3.71      0.00
    1    5   15      2.83      0.00
    1    5   16     -1.77      0.00
    1    5   17      0.98      0.00
   -1    7   18     -2.64      0.00
   -1    7   17     -0.66      0.00
   -1    7   16      6.42      0.00
   -1    7   15     -3.77      0.00
   -1    7   14      4.84      0.00
   -1    7   13      4.95      0.00
   -1    7   12     -4.60      0.00
   -1    7   11     -0.30      0.00
   -1    7   10     -7.88      0.00
   -1    7    9     -2.35      0.00
   -1    7    8     -2.13      0.00
   -1    7    7      1.38      0.00
   -1    7    6      5.56      0.00
   -1    7    5     10.00      0.00
   -1    7    4      2.31      0.00
   -1    7    3    -16.65      0.00
   -1    7    2     -2.95      0.00
   -1    7    1     26.36      0.00
    1    7    0    -15.11      0.00
    1    7    1     19.90      0.00
    1    7    2      2.05      0.00
    1    7    3     -1.58      0.00
    1    7    4     11.13      0.00
    1    7    5      2.66      0.00
    1    7    6     -3.82      0.00
    1    7    7     -0.76      0.00
    1    7    8     -1.73      0.00
    1    7    9     -3.26      0.00
    1    7   10     -8.40      0.00
    1    7   11      1.81      0.00
    1    7   12      0.46      0.00
    1    7   13      2.41      0.00
    1    7   14      3.51      0.00
    1    7   15     -2.91      0.00
    1    7   16      4.06      0.00
    1    7   17      0.99      0.00
   -1    9   17     -5.08      0.00
   -1    9   16     -3.71      0.00
   -1    9   15      2.68      0.00
   -1    9   14     -1.82      0.00
   -1    9   13     -0.96      0.00
   -1    9   12      5.59      0.00
   -1    9   11     -1.50      0.00
   -1    9   10      4.15      0.00
   -1    9    9     -4.46      0.00
   -1    9    8      1.29      0.00
   -1    9    7     -1.32      0.00
   -1    9    6     -6.46      0.00
   -1    9    5      6.52      0.00
   -1    9    4     -5.24      0.00
   -1    9    3     -0.16      0.00
   -1    9    2     15.13      0.00
   -1    9    1      5.78      0.00
    1    9    0     -5.70      0.00
    1    9    1     10.44      0.00
    1    9    2      3.46      0.00
    1    9    3     -1.23      0.00
    1    9    4     -4.79      0.00
    1    9    5      0.63      0.00
    1    9    6     -1.26      0.00
    1    9    7     -3.45      0.00
    1    9    8      4.48      0.00
    1    9    9     -0.59      0.00
    1    9   10      3.24      0.00
    1    9   11      0.42      0.00
    1    9   12     -2.28      0.00
    1    9   13      1.68      0.00
    1    9   14     -1.38      0.00
    1    9   15      1.63      0.00
    1    9   16     -1.52      0.00
   -1   11   16      1.65      0.00
   -1   11   15      0.18      0.00
   -1   11   14      2.47      0.00
   -1   11   13     -3.90      0.00
   -1   11   12     -1.61      0.00
   -1   11   11      1.37      0.00
   -1   11   10     -3.67      0.00
   -1   11    9      4.73      0.00
   -1   11    8     -0.46      0.00
   -1   11    7      5.08      0.00
   -1   11    6      4.66      0.00
   -1   11    5     -5.60      0.00
   -1   11    4      1.19      0.00
   -1   11    3     -5.33      0.00
   -1   11    2      0.02      0.00
   -1   11    1      1.21      0.00
    1   11    0     -8.19      0.00
    1   11    1     -5.63      0.00
    1   11    2      1.68      0.00
    1   11    3     -3.25      0.00
    1   11    4      3.12      0.00
    1   11    5      2.47      0.00
    1   11    6      1.36      0.00
    1   11    7      4.14      0.00
    1   11    8     -2.89      0.00
    1   11    9      3.70      0.00
    1   11   10     -0.95      0.00
    1   11   11     -2.34      0.00
    1   11   12      1.72      0.00
    1   11   13     -5.33      0.00
    1   11   14      2.57      0.00
    1   11   15      0.40      0.00
    1   11   16      0.96      0.00
   -1   13   15      2.11      0.00
   -1   13   14     -1.94      0.00
   -1   13   13      1.81      0.00
   -1   13   12      0.87      0.00
   -1   13   11     -3.42      0.00
   -1   13   10      0.54      0.00
   -1   13    9     -4.77      0.00
   -1   13    8      3.46      0.00
   -1   13    7     -2.47      0.00
   -1   13    6     -3.58      0.00
   -1   13    5      4.27      0.00
   -1   13    4     -1.07      0.00
   -1   13    3      8.43      0.00
   -1   13    2     -1.79      0.00
   -1   13    1    -10.75      0.00
    1   13    0      4.39      0.00
    1   13    1     -2.31      0.00
    1   13    2     -2.45      0.00
    1   13    3      6.03      0.00
    1   13    4     -1.46      0.00
    1   13    5     -4.28      0.00
    1   13    6      0.96      0.00
    1   13    7     -1.94      0.00
    1   13    8      3.84      0.00
    1   13    9     -2.75      0.00
    1   13   10     -0.34      0.00
    1   13   11      2.10      0.00
    1   13   12     -2.61      0.00
    1   13   13     -1.91      0.00
    1   13   14     -2.51      0.00
   -1   15   14      1.40      0.00
   -1   15   13     -1.11      0.00
   -1   15   12      0.50      0.00
   -1   15   11      0.55      0.00
   -1   15   10      2.01      0.00
   -1   15    9      3.93      0.00
   -1   15    8     -1.88      0.00
   -1   15    7      4.96      0.00
   -1   15    6      0.51      0.00
   -1   15    5     -4.86      0.00
   -1   15    4      2.31      0.00
   -1   15    3     -3.20      0.00
   -1   15    2     -0.93      0.00
   -1   15    1     -4.07      0.00
    1   15    0      0.34      0.00
    1   15    1    -11.87      0.00
    1   15    2     -2.12      0.00
    1   15    3      0.07      0.00
    1   15    4      2.74      0.00
    1   15    5     -0.47      0.00
    1   15    6     -2.70      0.00
    1   15    7      3.89      0.00
    1   15    8     -2.50      0.00
    1   15    9      3.93      0.00
    1   15   10      1.48      0.00
    1   15   11     -0.68      0.00
    1   15   12      4.46      0.00
    1   15   13     -0.36      0.00
   -1   17   12      0.90      0.00
   -1   17   11      3.55      0.00
   -1   17   10     -3.01      0.00
   -1   17    9     -4.17      0.00
   -1   17    8     -0.09      0.00
   -1   17    7     -3.90      0.00
   -1   17    6      3.14      0.00
   -1   17    5      1.51      0.00
   -1   17    4     -3.36      0.00
   -1   17    3      0.58      0.00
   -1   17    2     -1.07      0.00
   -1   17    1      4.49      0.00
    1   17    0      1.52      0.00
    1   17    1     10.34      0.00
    1   17    2      1.93      0.00
    1   17    3     -0.84      0.00
    1   17    4     -2.05      0.00
    1   17    5     -2.54      0.00
    1   17    6      3.27      0.00
    1   17    7     -1.07      0.00
    1   17    8     -2.64      0.00
    1   17    9     -5.39      0.00
    1   17   10      0.03      0.00
    1   17   11      1.91      0.00
   -1   19   10      4.07      0.00
   -1   19    9      3.17      0.00
   -1   19    8     -0.96      0.00
   -1   19    7     -1.06      0.00
   -1   19    6     -4.70      0.00
   -1   19    5      1.59      0.00
   -1   19    4      0.66      0.00
   -1   19    3     -1.49      0.00
   -1   19    2      2.38      0.00
   -1   19    1      2.77      0.00
    1   19    0      2.15      0.00
    1   19    1     -0.43      0.00
    1   19    2     -0.11      0.00
    1   19    3     -3.72      0.00
    1   19    4     -0.31      0.00
    1   19    5      4.43      0.00
    1   19    6     -3.04      0.00
    1   19    7      2.38      0.00
    1   19    8      0.02      0.00
    1   19    9     -2.15      0.00
   -1   21    7     -1.90      0.00
   -1   21    6      2.86      0.00
   -1   21    5      0.37      0.00
   -1   21    4      2.21      0.00
   -1   21    3      1.89      0.00
   -1   21    2     -1.05      0.00
   -1   21    1     -1.40      0.00
    1   21    0     -2.93      0.00
    1   21    1      1.15      0.00
    1   21    2     -1.57      0.00
    1   21    3      0.30      0.00
    1   21    4      5.21      0.00
    1   21    5      3.27      0.00
    1   21    6     -2.26      0.00
   -2    0   18      0.40      0.00
   -2    0   16     -1.06      0.00
   -2    0   14     -4.74      0.00
   -2    0   12     11.19      0.00
   -2    0   10      0.76      0.00
   -2    0    8     -2.70      0.00
   -2    0    6    -21.89      0.00
   -2    0    4     26.44      0.00
    2    0    2    -18.71      0.00
    2    0    4    -29.80      0.00
    2    0    6      1.72      0.00
    2    0    8      3.52      0.00
    2    0   10      4.37      0.00
    2    0   12     -0.66      0.00
    2    0   14     -2.07      0.00
    2    0   16      1.43      0.00
   -2    2   19      1.35      0.00
   -2    2   18      1.25      0.00
   -2    2   17     -0.74      0.00
   -2    2   16      3.57      0.00
   -2    2   15     -3.53      0.00
   -2    2   14     -1.38      0.00
   -2    2   13     -1.18      0.00
   -2    2   12     -5.30      0.00
   -2    2   11      3.22      0.00
   -2    2   10     -3.24      0.00
   -2    2    9      1.60      0.00
   -2    2    8      2.82      0.00
   -2    2    7     -1.42      0.00
   -2    2    6      3.06      0.00
   -2    2    5     -1.18      0.00
   -2    2    4      7.38      0.00
   -2    2    3     24.67      0.00
   -2    2    2     -8.16      0.00
    2    2    0    -18.81      0.00
    2    2    1    -36.73      0.00
    2    2    2    -11.21      0.00
    2    2    3     11.89      0.00
    2    2    4     23.27      0.00
    2    2    5      4.41      0.00
    2    2    6     -8.10      0.00
    2    2    7      8.65      0.00
    2    2    8    -10.32      0.00
    2    2    9    -11.46      0.00
    2    2   10     -0.84      0.00
    2    2   11     -1.05      0.00
    2    2   12      4.46      0.00
    2    2   13     -1.36      0.00
    2    2   14      2.73      0.00
    2    2   15      2.22      0.00
    2    2   16      0.08      0.00
    2    2   17      1.80      0.00
   -2    4   19      0.43      0.00
   -2    4   18     -2.25      0.00
   -2    4   17     -1.63      0.00
   -2    4   16     -1.76      0.00
   -2    4   15      1.61      0.00
   -2    4   14      2.13      0.00
   -2    4   13      1.98      0.00
   -2    4   12      4.28      0.00
   -2    4   11     -2.27      0.00
   -2    4   10      4.56      0.00
   -2    4    9     -5.49      0.00
   -2    4    8     -3.42      0.00
   -2    4    7     -5.11      0.00
   -2    4    6     -2.51      0.00
   -2    4    5     10.36      0.00
   -2    4    4    -16.29      0.00
   -2    4    3      6.65      0.00
   -2    4    2     41.45      0.00
   -2    4    1     19.24      0.00
    2    4    0    -27.88      0.00
    2    4    1     21.32      0.00
    2    4    2     12.01      0.00
    2    4    3     17.06      0.00
    2    4    4    -10.92      0.00
    2    4    5     -3.78      0.00
    2    4    6      3.31      0.00
    2    4    7     -9.84      0.00
    2    4    8     11.97      0.00
    2    4    9     -0.48      0.00
    2    4   10      0.10      0.00
    2    4   11      4.61      0.00
    2    4   12     -4.65      0.00
    2    4   13     -0.20      0.00
    2    4   14     -2.83      0.00
    2    4   15     -1.51      0.00
    2    4   16      0.82      0.00
    2    4   17      0.17      0.00
   -2    6   18     -2.11      0.00
   -2    6   17      4.13      0.00
   -2    6   16      0.41      0.00
   -2    6   15     -0.90      0.00
   -2    6   14      3.74      0.00
   -2    6   13     -5.09      0.00
   -2    6   12     -4.43      0.00
   -2    6   11      0.47      0.00
   -2    6   10     -2.93      0.00
   -2    6    9      6.38      0.00
   -2    6    8      5.19      0.00
   -2    6    7      2.61      0.00
   -2    6    6     12.38      0.00
   -2    6    5    -10.12      0.00
   -2    6    4    -16.96      0.00
   -2    6    3     -9.45      0.00
   -2    6    2     10.27      0.00
   -2    6    1      3.23      0.00
    2    6    0    -20.02      0.00
    2    6    1     -6.05      0.00
    2    6    2      7.09      0.00
    2    6    3    -12.46      0.00
    2    6    4     -1.28      0.00
    2    6    5      9.96      0.00
    2    6    6      8.72      0.00
    2    6    7     -0.92      0.00
    2    6    8      0.62      0.00
    2    6    9      0.45      0.00
    2    6   10     -3.78      0.00
    2    6   11     -5.55      0.00
    2    6   12      1.16      0.00
    2    6   13      0.35      0.00
    2    6   14      2.10      0.00
    2    6   15      1.57      0.00
    2    6   16     -2.81      0.00
    2    6   17      2.24      0.00
   -2    8   18     -2.57      0.00
   -2    8   17     -0.90      0.00
   -2    8   16      2.52      0.00
   -2    8   15      1.32      0.00
   -2    8   14     -4.33      0.00
   -2    8   13      7.43      0.00
   -2    8   12      0.19      0.00
   -2    8   11     -3.99      0.00
   -2    8   10     -0.25      0.00
   -2    8    9     -6.37      0.00
   -2    8    8      1.19      0.00
   -2    8    7     -1.92      0.00
   -2    8    6      1.66      0.00
   -2    8    5      6.12      0.00
   -2    8    4      1.70      0.00
   -2    8    3     10.03      0.00
   -2    8    2     -3.67      0.00
   -2    8    1    -14.10      0.00
    2    8    0     -1.77      0.00
    2    8    1      3.48      0.00
    2    8    2      4.54      0.00
    2    8    3     -0.82      0.00
    2    8    4      1.70      0.00
    2    8    5    -12.69      0.00
    2    8    6      0.51      0.00
    2    8    7      1.73      0.00
    2    8    8     -5.02      0.00
    2    8    9      5.01      0.00
    2    8   10     -0.29      0.00
    2    8   11      5.80      0.00
    2    8   12     -0.99      0.00
    2    8   13     -0.97      0.00
    2    8   14     -0.18      0.00
    2    8   15     -2.41      0.00
    2    8   16      2.40      0.00
   -2   10   17      1.91      0.00
   -2   10   16     -3.66      0.00
   -2   10   15      0.52      0.00
   -2   10   14      1.77      0.00
   -2   10   13     -4.45      0.00
   -2   10   12      0.51      0.00
   -2   10   11      2.11      0.00
   -2   10   10      2.66      0.00
   -2   10    9      5.06      0.00
   -2   10    8     -0.05      0.00
   -2   10    7      1.32      0.00
   -2   10    6     -6.79      0.00
   -2   10    5     -8.29      0.00
   -2   10    4      2.76      0.00
   -2   10    3     -2.61      0.00
   -2   10    2     -1.40      0.00
   -2   10    1      7.39      0.00
    2   10    0     13.09      0.00
    2   10    1     -3.04      0.00
    2   10    2     -7.16      0.00
    2   10    3      1.62      0.00
    2   10    4     -4.22      0.00
    2   10    5      2.83      0.00
    2   10    6     -1.97      0.00
    2   10    7      2.23      0.00
    2   10    8      1.31      0.00
    2   10    9     -2.96      0.00
    2   10   10      4.70      0.00
    2   10   11     -3.98      0.00
    2   10   12      3.28      0.00
    2   10   13      1.26      0.00
    2   10   14     -2.65      0.00
    2   10   15      2.34      0.00
    2   10   16     -2.64      0.00
   -2   12   16     -0.36      0.00
   -2   12   15     -0.48      0.00
   -2   12   14     -1.83      0.00
   -2   12   13      2.67      0.00
   -2   12   12     -5.02      0.00
   -2   12   11      2.24      0.00
   -2   12   10     -1.12      0.00
   -2   12    9     -1.94      0.00
   -2   12    8      2.41      0.00
   -2   12    7     -2.65      0.00
   -2   12    6      4.06      0.00
   -2   12    5      1.99      0.00
   -2   12    4      2.66      0.00
   -2   12    3     -0.72      0.00
   -2   12    2    -12.60      0.00
   -2   12    1      2.99      0.00
    2   12    0      4.28      0.00
    2   12    1      6.49      0.00
    2   12    2     -1.20      0.00
    2   12    3     -2.11      0.00
    2   12    4      8.43      0.00
    2   12    5     -3.66      0.00
    2   12    6     -2.91      0.00
    2   12    7      0.04      0.00
    2   12    8     -1.56      0.00
    2   12    9      1.95      0.00
    2   12   10     -3.67      0.00
    2   12   11      1.06      0.00
    2   12   12      0.23      0.00
    2   12   13      1.97      0.00
    2   12   14      0.60      0.00
    2   12   15     -1.25      0.00
   -2   14   15     -0.24      0.00
   -2   14   14      3.42      0.00
   -2   14   13     -0.28      0.00
   -2   14   12      5.05      0.00
   -2   14   11      1.08      0.00
   -2   14   10     -0.44      0.00
   -2   14    9     -2.83      0.00
   -2   14    8     -3.75      0.00
   -2   14    7      3.38      0.00
   -2   14    6     -5.34      0.00
   -2   14    5     -0.30      0.00
   -2   14    4      2.96      0.00
   -2   14    3     -1.18      0.00
   -2   14    2      7.72      0.00
   -2   14    1      0.41      0.00
    2   14    0      2.64      0.00
    2   14    1     -1.14      0.00
    2   14    2     -3.85      0.00
    2   14    3      1.02      0.00
    2   14    4     -5.29      0.00
    2   14    5      3.73      0.00
    2   14    6      2.37      0.00
    2   14    7      1.05      0.00
    2   14    8      1.91      0.00
    2   14    9     -3.65      0.00
    2   14   10      0.29      0.00
    2   14   11     -3.42      0.00
    2   14   12     -3.53      0.00
    2   14   13      2.38      0.00
   -2   16   13     -0.10      0.00
   -2   16   12     -2.69      0.00
   -2   16   11     -0.70      0.00
   -2   16   10     -2.99      0.00
   -2   16    9      1.24      0.00
   -2   16    8      1.38      0.00
   -2   16    7     -0.23      0.00
   -2   16    6      4.52      0.00
   -2   16    5      0.56      0.00
   -2   16    4     -1.09      0.00
   -2   16    3      1.15      0.00
   -2   16    2     -1.60      0.00
   -2   16    1      0.43      0.00
    2   16    0     -9.79      0.00
    2   16    1     -0.77      0.00
    2   16    2      7.54      0.00
    2   16    3      1.36      0.00
    2   16    4      1.72      0.00
    2   16    5     -2.58      0.00
    2   16    6     -0.48      0.00
    2   16    7      1.91      0.00
    2   16    8      1.84      0.00
    2   16    9     -0.38      0.00
    2   16   10     -2.16      0.00
    2   16   11      2.39      0.00
    2   16   12     -2.24      0.00
   -2   18   11      1.99      0.00
   -2   18   10      4.21      0.00
   -2   18    9     -2.32      0.00
   -2   18    8     -1.47      0.00
   -2   18    7     -3.53      0.00
   -2   18    6      0.64      0.00
   -2   18    5      3.73      0.00
   -2   18    4     -2.28      0.00
   -2   18    3      0.88      0.00
   -2   18    2      3.35      0.00
   -2   18    1     -1.72      0.00
    2   18    0      2.50      0.00
    2   18    1      3.32      0.00
    2   18    2      0.21      0.00
    2   18    3     -2.19      0.00
    2   18    4     -6.43      0.00
    2   18    5      2.47      0.00
    2   18    6      3.68      0.00
    2   18    7     -3.46      0.00
    2   18    8      0.47      0.00
    2   18    9      2.48      0.00
    2   18   10     -0.55      0.00
   -2   20    9      1.82      0.00
   -2   20    8      1.44      0.00
   -2   20    7      3.99      0.00
   -2   20    6     -0.05      0.00
   -2   20    5     -3.38      0.00
   -2   20    4      0.42      0.00
   -2   20    3     -1.42      0.00
   -2   20    2     -5.61      0.00
   -2   20    1      0.44      0.00
    2   20    0      0.49      0.00
    2   20    1     -2.10      0.00
    2   20    2     -1.23      0.00
    2   20    3     -1.18      0.00
    2   20    4      0.52      0.00
    2   20    5      0.85      0.00
    2   20    6      2.75      0.00
    2   20    7     -1.38      0.00
   -2   22    4      0.35      0.00
   -2   22    3      0.60      0.00
   -2   22    2      2.80      0.00
   -2   22    1     -0.83      0.00
    2   22    0      2.41      0.00
    2   22    1     -1.44      0.00
    2   22    2     -2.36      0.00
   -3    1   19      1.72      0.00
   -3    1   18     -1.81      0.00
   -3    1   17     -1.19      0.00
   -3    1   16     -1.61      0.00
   -3    1   15     -1.55      0.00
   -3    1   14      0.84      0.00
   -3    1   13     -3.23      0.00
   -3    1   12      4.22      0.00
   -3    1   11      6.50      0.00
   -3    1   10     -2.23      0.00
   -3    1    9      8.87      0.00
   -3    1    8      0.83      0.00
   -3    1    7      0.33      0.00
   -3    1    6      1.07      0.00
   -3    1    5    -24.30      0.00
   -3    1    4     31.79      0.00
   -3    1    3    -24.29      0.00
   -3    1    2    -67.34      0.00
   -3    1    1     20.67      0.00
    3    1    0     36.42      0.00
    3    1    1    -35.34      0.00
    3    1    2     -1.29      0.00
    3    1    3      2.09      0.00
    3    1    4     -4.91      0.00
    3    1    5     10.88      0.00
    3    1    6      1.06      0.00
    3    1    7     -0.38      0.00
    3    1    8      9.08      0.00
    3    1    9     -5.99      0.00
    3    1   10     -2.50      0.00
    3    1   11     -2.35      0.00
    3    1   12     -0.18      0.00
    3    1   13      3.69      0.00
    3    1   14     -3.53      0.00
    3    1   15      3.26      0.00
    3    1   16     -0.35      0.00
    3    1   17     -6.20      0.00
   -3    3   19     -4.74      0.00
   -3    3   18      1.85      0.00
   -3    3   17     -1.02      0.00
   -3    3   16      0.91      0.00
   -3    3   15      5.76      0.00
   -3    3   14     -3.90      0.00
   -3    3   13      0.89      0.00
   -3    3   12     -3.69      0.00
   -3    3   11     -4.07      0.00
   -3    3   10      2.49      0.00
   -3    3    9     -3.49      0.00
   -3    3    8     -2.73      0.00
   -3    3    7      3.21      0.00
   -3    3    6      3.29      0.00
   -3    3    5      1.74      0.00
   -3    3    4    -21.27      0.00
   -3    3    3     17.97      0.00
   -3    3    2     52.48      0.00
   -3    3    1    -41.79      0.00
    3    3    0    -43.03      0.00
    3    3    1    -23.87      0.00
    3    3    2      1.82      0.00
    3    3    3     18.92      0.00
    3    3    4      9.11      0.00
    3    3    5    -15.11      0.00
    3    3    6      0.10      0.00
    3    3    7     -4.03      0.00
    3    3    8     -7.09      0.00
    3    3    9     10.05      0.00
    3    3   10      0.70      0.00
    3    3   11      4.74      0.00
    3    3   12      0.86      0.00
    3    3   13     -1.34      0.00
    3    3   14      2.67      0.00
    3    3   15     -2.18      0.00
    3    3   16     -0.93      0.00
    3    3   17     -2.68      0.00
   -3    5   19      0.54      0.00
   -3    5   18      0.69      0.00
   -3    5   17      0.15      0.00
   -3    5   16     -0.25      0.00
   -3    5   15      0.11      0.00
   -3    5   14      2.73      0.00
   -3    5   13     -2.74      0.00
   -3    5   12      2.33      0.00
   -3    5   11      2.17      0.00
   -3    5   10      0.29      0.00
   -3    5    9      2.99      0.00
   -3    5    8     -2.83      0.00
   -3    5    7      4.26      0.00
   -3    5    6     -4.68      0.00
   -3    5    5    -16.10      0.00
   -3    5    4     -4.05      0.00
   -3    5    3      6.19      0.00
   -3    5    2     15.22      0.00
   -3    5    1      2.51      0.00
    3    5    0      6.40      0.00
    3    5    1     -5.92      0.00
    3    5    2     -1.16      0.00
    3    5    3     -2.22      0.00
    3    5    4     -6.38      0.00
    3    5    5     -2.01      0.00
    3    5    6      3.47      0.00
    3    5    7      2.33      0.00
    3    5    8      1.40      0.00
    3    5    9      0.98      0.00
    3    5   10      0.80      0.00
    3    5   11     -1.57      0.00
    3    5   12     -5.37      0.00
    3    5   13      0.01      0.00
    3    5   14      0.08      0.00
    3    5   15      3.76      0.00
    3    5   16      3.31      0.00
    3    5   17     -1.39      0.00
   -3    7   19      0.48      0.00
   -3    7   18      2.68      0.00
   -3    7   17      0.28      0.00
   -3    7   16      0.25      0.00
   -3    7   15     -1.43      0.00
   -3    7   14     -0.37      0.00
   -3    7   13      2.00      0.00
   -3    7   12     -6.56      0.00
   -3    7   11      0.25      0.00
   -3    7   10     -3.01      0.00
   -3    7    9     -0.24      0.00
   -3    7    8      6.78      0.00
   -3    7    7     -0.25      0.00
   -3    7    6      3.85      0.00
   -3    7    5      8.82      0.00
   -3    7    4      2.32      0.00
   -3    7    3     -9.28      0.00
   -3    7    2    -21.31      0.00
   -3    7    1      8.08      0.00
    3    7    0      9.45      0.00
    3    7    1      8.00      0.00
    3    7    2      3.34      0.00
    3    7    3     -3.25      0.00
    3    7    4      8.69      0.00
    3    7    5      7.16      0.00
    3    7    6    -13.65      0.00
    3    7    7      4.09      0.00
    3    7    8     -7.39      0.00
    3    7    9     -3.29      0.00
    3    7   10      0.93      0.00
    3    7   11      0.57      0.00
    3    7   12      6.61      0.00
    3    7   13     -2.12      0.00
    3    7   14      1.88      0.00
    3    7   15     -2.02      0.00
    3    7   16      0.62      0.00
   -3    9   18     -3.53      0.00
   -3    9   17     -6.02      0.00
   -3    9   16      1.73      0.00
   -3    9   15      2.09      0.00
   -3    9   14     -1.46      0.00
   -3    9   13     -2.16      0.00
   -3    9   12      7.18      0.00
   -3    9   11     -0.70      0.00
   -3    9   10      1.80      0.00
   -3    9    9      0.41      0.00
   -3    9    8     -7.87      0.00
   -3    9    7     -2.68      0.00
   -3    9    6     -9.59      0.00
   -3    9    5      6.02      0.00
   -3    9    4      8.92      0.00
   -3    9    3     -7.29      0.00
   -3    9    2     12.44      0.00
   -3    9    1     10.79      0.00
    3    9    0     -6.70      0.00
    3    9    1     13.41      0.00
    3    9    2     -6.84      0.00
    3    9    3     -2.58      0.00
    3    9    4     -2.65      0.00
    3    9    5     -1.09      0.00
    3    9    6      6.75      0.00
    3    9    7     -4.12      0.00
    3    9    8      5.73      0.00
    3    9    9     -1.15      0.00
    3    9   10      0.59      0.00
    3    9   11     -1.48      0.00
    3    9   12     -4.88      0.00
    3    9   13      1.06      0.00
    3    9   14     -1.92      0.00
    3    9   15      0.09      0.00
   -3   11   17      2.25      0.00
   -3   11   16      1.55      0.00
   -3   11   15     -3.32      0.00
   -3   11   14      3.00      0.00
   -3   11   13      2.46      0.00
   -3   11   12     -0.37      0.00
   -3   11   11      0.83      0.00
   -3   11   10     -2.33      0.00
   -3   11    9      0.98      0.00
   -3   11    8      4.11      0.00
   -3   11    7     -0.20      0.00
   -3   11    6      4.55      0.00
   -3   11    5      1.62      0.00
   -3   11    4     -6.66      0.00
   -3   11    3     -2.41      0.00
   -3   11    2     -4.32      0.00
   -3   11    1      2.00      0.00
    3   11    0     -0.03      0.00
    3   11    1     -3.44      0.00
    3   11    2      7.31      0.00
    3   11    3     -1.33      0.00
    3   11    4     -0.74      0.00
    3   11    5      5.39      0.00
    3   11    6     -3.75      0.00
    3   11    7      0.27      0.00
    3   11    8     -0.76      0.00
    3   11    9      1.07      0.00
    3   11   10      1.95      0.00
    3   11   11     -0.39      0.00
    3   11   12      0.17      0.00
    3   11   13     -1.73      0.00
    3   11   14      0.28      0.00
    3   11   15      2.44      0.00
   -3   13   16     -4.06      0.00
   -3   13   15      3.19      0.00
   -3   13   14     -0.87      0.00
   -3   13   13     -1.03      0.00
   -3   13   12      0.64      0.00
   -3   13   11     -6.95      0.00
   -3   13   10     -0.37      0.00
   -3   13    9     -2.70      0.00
   -3   13    8     -0.57      0.00
   -3   13    7      3.85      0.00
   -3   13    6      0.49      0.00
   -3   13    5      2.23      0.00
   -3   13    4      0.54      0.00
   -3   13    3      2.61      0.00
   -3   13    2     -0.67      0.00
   -3   13    1     -9.23      0.00
    3   13    0      3.08      0.00
    3   13    1     -0.87      0.00
    3   13    2     -5.29      0.00
    3   13    3      2.86      0.00
    3   13    4     -1.04      0.00
    3   13    5     -7.89      0.00
    3   13    6      3.37      0.00
    3   13    7     -0.46      0.00
    3   13    8      1.43      0.00
    3   13    9      4.27      0.00
    3   13   10     -0.53      0.00
    3   13   11      1.92      0.00
    3   13   12     -0.40      0.00
    3   13   13     -2.50      0.00
   -3   15   15     -1.11      0.00
   -3   15   14     -2.33      0.00
   -3   15   13     -0.57      0.00
   -3   15   12      0.25      0.00
   -3   15   11      3.73      0.00
   -3   15   10      3.11      0.00
   -3   15    9      3.46      0.00
   -3   15    8     -1.47      0.00
   -3   15    7      0.35      0.00
   -3   15    6      1.51      0.00
   -3   15    5     -8.06      0.00
   -3   15    4      1.31      0.00
   -3   15    3      1.90      0.00
   -3   15    2     -3.02      0.00
   -3   15    1      1.13      0.00
    3   15    0     -1.32      0.00
    3   15    1     -7.53      0.00
    3   15    2      1.89      0.00
    3   15    3      2.50      0.00
    3   15    4      1.90      0.00
    3   15    5      3.66      0.00
    3   15    6     -1.27      0.00
    3   15    7     -0.10      0.00
    3   15    8     -1.61      0.00
    3   15    9     -3.28      0.00
    3   15   10     -0.54      0.00
    3   15   11     -1.18      0.00
    3   15   12      1.64      0.00
   -3   17   13      1.71      0.00
   -3   17   12      0.11      0.00
   -3   17   11     -0.22      0.00
   -3   17   10     -0.55      0.00
   -3   17    9     -3.45      0.00
   -3   17    8     -0.70      0.00
   -3   17    7      0.72      0.00
   -3   17    6     -2.09      0.00
   -3   17    5      0.02      0.00
   -3   17    4      1.46      0.00
   -3   17    3      1.22      0.00
   -3   17    2     -0.45      0.00
   -3   17    1     -0.18      0.00
    3   17    0     -0.11      0.00
    3   17    1      2.41      0.00
    3   17    2      3.00      0.00
    3   17    3     -0.30      0.00
    3   17    4     -2.52      0.00
    3   17    5     -3.52      0.00
    3   17    6      1.05      0.00
    3   17    7      3.07      0.00
    3   17    8     -2.39      0.00
    3   17    9      0.42      0.00
    3   17   10      2.51      0.00
   -3   19   10      1.27      0.00
   -3   19    9      2.28      0.00
   -3   19    8      0.54      0.00
   -3   19    7     -2.30      0.00
   -3   19    6     -2.65      0.00
   -3   19    5      2.27      0.00
   -3   19    4      0.99      0.00
   -3   19    3     -5.42      0.00
   -3   19    2      2.24      0.00
   -3   19    1      3.29      0.00
    3   19    0      1.80      0.00
    3   19    1      1.12      0.00
    3   19    2     -2.94      0.00
    3   19    3     -3.02      0.00
    3   19    4      0.25      0.00
    3   19    5      3.62      0.00
    3   19    6     -0.27      0.00
    3   19    7     -2.47      0.00
    3   19    8      0.92      0.00
   -3   21    7      1.72      0.00
   -3   21    6      1.40      0.00
   -3   21    5      1.25      0.00
   -3   21    4     -0.90      0.00
   -3   21    3      5.07      0.00
   -3   21    2     -0.96      0.00
   -3   21    1     -2.28      0.00
    3   21    0      1.89      0.00
    3   21    1      2.20      0.00
    3   21    2     -0.48      0.00
    3   21    3     -0.95      0.00
    3   21    4      0.67      0.00
    3   21    5      2.53      0.00
   -4    0   20     -0.79      0.00
   -4    0   18     -3.02      0.00
   -4    0   16      2.49      0.00
   -4    0   14      4.49      0.00
   -4    0   12      3.97      0.00
   -4    0   10      0.56      0.00
   -4    0    8    -10.64      0.00
   -4    0    6    -18.33      0.00
   -4    0    4     -4.50      0.00
   -4    0    2     63.93      0.00
    4    0    0     27.35      0.00
    4    0    2    -48.92      0.00
    4    0    4      1.74      0.00
    4    0    6      5.68      0.00
    4    0    8      2.93      0.00
    4    0   10     -6.97      0.00
    4    0   12     -4.08      0.00
    4    0   14     -1.14      0.00
    4    0   16     14.59      0.00
   -4    2   20     -2.76      0.00
   -4    2   19      3.09      0.00
   -4    2   18      1.18      0.00
   -4    2   17     -0.99      0.00
   -4    2   16      1.35      0.00
   -4    2   15     -1.71      0.00
   -4    2   14     -4.14      0.00
   -4    2   13     -1.53      0.00
   -4    2   12     -4.00      0.00
   -4    2   11      4.99      0.00
   -4    2   10      1.31      0.00
   -4    2    9     -5.21      0.00
   -4    2    8      6.18      0.00
   -4    2    7      2.53      0.00
   -4    2    6      5.51      0.00
   -4    2    5    -18.21      0.00
   -4    2    4      5.01      0.00
   -4    2    3     66.58      0.00
   -4    2    2    -54.62      0.00
   -4    2    1    -46.97      0.00
    4    2    0     23.20      0.00
    4    2    1      3.04      0.00
    4    2    2      1.16      0.00
    4    2    3     -5.56      0.00
    4    2    4      6.23      0.00
    4    2    5      5.18      0.00
    4    2    6     -6.85      0.00
    4    2    7     -0.13      0.00
    4    2    8     -5.19      0.00
    4    2    9     -5.33      0.00
    4    2   10      4.32      0.00
    4    2   11     -0.22      0.00
    4    2   12      6.00      0.00
    4    2   13     -1.98      0.00
    4    2   14     -0.11      0.00
    4    2   15      0.68      0.00
    4    2   16     -4.85      0.00
   -4    4   19     -0.70      0.00
   -4    4   18      0.48      0.00
   -4    4   17      2.56      0.00
   -4    4   16     -0.63      0.00
   -4    4   15      4.20      0.00
   -4    4   14      1.42      0.00
   -4    4   13     -4.69      0.00
   -4    4   12      2.30      0.00
   -4    4   11     -4.74      0.00
   -4    4   10     -2.66      0.00
   -4    4    9      4.10      0.00
   -4    4    8      1.36      0.00
   -4    4    7      2.17      0.00
   -4    4    6     -6.36      0.00
   -4    4    5      1.83      0.00
   -4    4    4      4.74      0.00
   -4    4    3     -9.31      0.00
   -4    4    2     27.81      0.00
   -4    4    1      8.82      0.00
    4    4    0    -29.99      0.00
    4    4    1     11.16      0.00
    4    4    2     10.89      0.00
    4    4    3      0.19      0.00
    4    4    4     -2.50      0.00
    4    4    5     -6.94      0.00
    4    4    6      4.94      0.00
    4    4    7      2.43      0.00
    4    4    8     -0.05      0.00
    4    4    9      3.45      0.00
    4    4   10     -2.17      0.00
    4    4   11      0.46      0.00
    4    4   12     -2.53      0.00
    4    4   13     -2.28      0.00
    4    4   14     -0.56      0.00
    4    4   15     -2.93      0.00
    4    4   16      0.36      0.00
   -4    6   19      0.84      0.00
   -4    6   18      0.54      0.00
   -4    6   17     -3.77      0.00
   -4    6   16     -1.03      0.00
   -4    6   15     -2.76      0.00
   -4    6   14      0.44      0.00
   -4    6   13      1.46      0.00
   -4    6   12     -0.51      0.00
   -4    6   11      3.74      0.00
   -4    6   10      2.39      0.00
   -4    6    9      3.05      0.00
   -4    6    8      0.65      0.00
   -4    6    7     -6.63      0.00
   -4    6    6      9.69      0.00
   -4    6    5      4.34      0.00
   -4    6    4    -20.36      0.00
   -4    6    3    -10.03      0.00
   -4    6    2      7.16      0.00
   -4    6    1     13.87      0.00
    4    6    0    -12.80      0.00
    4    6    1     -1.21      0.00
    4    6    2     11.83      0.00
    4    6    3     -0.39      0.00
    4    6    4     -5.29      0.00
    4    6    5      8.36      0.00
    4    6    6     -0.70      0.00
    4    6    7     -0.93      0.00
    4    6    8      5.10      0.00
    4    6    9     -6.30      0.00
    4    6   10      1.21      0.00
    4    6   11     -3.79      0.00
    4    6   12      3.36      0.00
    4    6   13      2.76      0.00
    4    6   14      0.13      0.00
    4    6   15      3.08      0.00
    4    6   16     -4.55      0.00
   -4    8   18     -4.84      0.00
   -4    8   17      5.53      0.00
   -4    8   16      0.11      0.00
   -4    8   15      0.53      0.00
   -4    8   14      0.77      0.00
   -4    8   13      0.40      0.00
   -4    8   12     -0.29      0.00
   -4    8   11     -3.58      0.00
   -4    8   10      1.35      0.00
   -4    8    9     -7.30      0.00
   -4    8    8     -2.26      0.00
   -4    8    7     -0.38      0.00
   -4    8    6      2.01      0.00
   -4    8    5      6.59      0.00
   -4    8    4     -1.05      0.00
   -4    8    3      4.35      0.00
   -4    8    2      3.42      0.00
   -4    8    1    -15.88      0.00
    4    8    0     -3.55      0.00
    4    8    1     -5.06      0.00
    4    8    2      2.76      0.00
    4    8    3     -2.47      0.00
    4    8    4      2.66      0.00
    4    8    5     -6.60      0.00
    4    8    6      0.98      0.00
    4    8    7      1.77      0.00
    4    8    8     -3.11      0.00
    4    8    9      4.49      0.00
    4    8   10      1.02      0.00
    4    8   11      2.99      0.00
    4    8   12     -1.62      0.00
    4    8   13     -0.12      0.00
    4    8   14     -1.14      0.00
    4    8   15     -1.71      0.00
   -4   10   18      4.40      0.00
   -4   10   17     -0.89      0.00
   -4   10   16     -2.75      0.00
   -4   10   15      1.61      0.00
   -4   10   14      2.26      0.00
   -4   10   13      1.25      0.00
   -4   10   12     -1.53      0.00
   -4   10   11      1.54      0.00
   -4   10   10     -2.48      0.00
   -4   10    9      5.16      0.00
   -4   10    8      1.09      0.00
   -4   10    7     -0.20      0.00
   -4   10    6      1.81      0.00
   -4   10    5    -10.64      0.00
   -4   10    4      5.34      0.00
   -4   10    3      1.00      0.00
   -4   10    2     -6.75      0.00
   -4   10    1      8.80      0.00
    4   10    0      5.97      0.00
    4   10    1     -1.89      0.00
    4   10    2     -7.38      0.00
    4   10    3      5.96      0.00
    4   10    4     -0.19      0.00
    4   10    5      1.83      0.00
    4   10    6      1.38      0.00
    4   10    7     -3.12      0.00
    4   10    8      1.22      0.00
    4   10    9     -3.41      0.00
    4   10   10     -0.91      0.00
    4   10   11      1.29      0.00
    4   10   12     -2.27      0.00
    4   10   13      1.71      0.00
    4   10   14      0.20      0.00
   -4   12   17     -4.38      0.00
   -4   12   16      0.35      0.00
   -4   12   15     -1.53      0.00
   -4   12   14     -5.05      0.00
   -4   12   13      1.61      0.00
   -4   12   12     -1.35      0.00
   -4   12   11      0.47      0.00
   -4   12   10      2.56      0.00
   -4   12    9     -3.62      0.00
   -4   12    8      5.12      0.00
   -4   12    7      2.73      0.00
   -4   12    6     -6.00      0.00
   -4   12    5      3.72      0.00
   -4   12    4     -2.20      0.00
   -4   12    3     -2.03      0.00
   -4   12    2     -1.88      0.00
   -4   12    1     -0.94      0.00
    4   12    0      7.98      0.00
    4   12    1      4.81      0.00
    4   12    2     -0.93      0.00
    4   12    3     -5.21      0.00
    4   12    4      2.82      0.00
    4   12    5     -1.92      0.00
    4   12    6     -4.20      0.00
    4   12    7      3.82      0.00
    4   12    8     -2.28      0.00
    4   12    9      1.40      0.00
    4   12   10      0.53      0.00
    4   12   11     -0.70      0.00
    4   12   12      0.69      0.00
    4   12   13     -2.14      0.00
   -4   14   16      2.03      0.00
   -4   14   15     -3.55      0.00
   -4   14   14      3.52      0.00
   -4   14   13      0.24      0.00
   -4   14   12      3.49      0.00
   -4   14   11      2.22      0.00
   -4   14   10     -4.59      0.00
   -4   14    9      0.37      0.00
   -4   14    8     -4.25      0.00
   -4   14    7     -3.53      0.00
   -4   14    6      0.48      0.00
   -4   14    5      0.47      0.00
   -4   14    4      6.34      0.00
   -4   14    3     -0.42      0.00
   -4   14    2      2.08      0.00
   -4   14    1     -2.60      0.00
    4   14    0     -3.44      0.00
    4   14    1     -4.28      0.00
    4   14    2     -2.21      0.00
    4   14    3      0.90      0.00
    4   14    4     -2.58      0.00
    4   14    5      1.43      0.00
    4   14    6      2.63      0.00
    4   14    7     -1.19      0.00
    4   14    8      6.13      0.00
    4   14    9     -0.09      0.00
    4   14   10     -3.47      0.00
    4   14   11      0.74      0.00
    4   14   12     -0.12      0.00
   -4   16   14      0.19      0.00
   -4   16   13      0.00      0.00
   -4   16   12     -1.65      0.00
   -4   16   11     -1.24      0.00
   -4   16   10     -0.01      0.00
   -4   16    9      1.43      0.00
   -4   16    8      1.32      0.00
   -4   16    7     -1.01      0.00
   -4   16    6      3.64      0.00
   -4   16    5      2.16      0.00
   -4   16    4     -6.37      0.00
   -4   16    3      3.21      0.00
   -4   16    2      1.14      0.00
   -4   16    1      1.10      0.00
    4   16    0      0.85      0.00
    4   16    1      1.66      0.00
    4   16    2      4.95      0.00
    4   16    3      3.62      0.00
    4   16    4     -1.73      0.00
    4   16    5     -0.00      0.00
    4   16    6     -1.99      0.00
    4   16    7     -1.38      0.00
    4   16    8     -2.39      0.00
    4   16    9     -0.59      0.00
    4   16   10     -1.12      0.00
   -4   18   12      1.29      0.00
   -4   18   11     -1.02      0.00
   -4   18   10      0.70      0.00
   -4   18    9     -0.88      0.00
   -4   18    8     -2.31      0.00
   -4   18    7      2.58      0.00
   -4   18    6      2.37      0.00
   -4   18    5     -2.36      0.00
   -4   18    4     -3.08      0.00
   -4   18    3     -0.06      0.00
   -4   18    2      3.06      0.00
   -4   18    1     -0.77      0.00
    4   18    0     -4.05      0.00
    4   18    1      2.18      0.00
    4   18    2     -0.76      0.00
    4   18    3     -2.32      0.00
    4   18    4     -0.66      0.00
    4   18    5     -0.88      0.00
    4   18    6      7.68      0.00
    4   18    7      0.57      0.00
    4   18    8     -2.33      0.00
    4   18    9      2.55      0.00
   -4   20    9      2.31      0.00
   -4   20    8      5.00      0.00
   -4   20    7     -3.12      0.00
   -4   20    6     -2.12      0.00
   -4   20    5      0.38      0.00
   -4   20    4      3.19      0.00
   -4   20    3      1.00      0.00
   -4   20    2     -4.64      0.00
   -4   20    1      0.78      0.00
    4   20    0      0.33      0.00
    4   20    1      0.26      0.00
    4   20    2     -1.33      0.00
    4   20    3     -0.10      0.00
    4   20    4      2.19      0.00
    4   20    5     -0.42      0.00
    4   20    6     -4.49      0.00
   -4   22    3     -1.85      0.00
   -4   22    2      3.57      0.00
   -4   22    1     -1.92      0.00
    4   22    0      1.65      0.00
   -5    1   20      2.06      0.00
   -5    1   19      0.22      0.00
   -5    1   18     -1.56      0.00
   -5    1   17     -2.48      0.00
   -5    1   16      1.34      0.00
   -5    1   15     -1.49      0.00
   -5    1   14     -0.55      0.00
   -5    1   13      3.89      0.00
   -5    1   12      0.64      0.00
   -5    1   11      4.78      0.00
   -5    1   10     -1.03      0.00
   -5    1    9      0.34      0.00
   -5    1    8      2.87      0.00
   -5    1    7      1.78      0.00
   -5    1    6      0.74      0.00
   -5    1    5    -14.57      0.00
   -5    1    4     12.36      0.00
   -5    1    3    -20.14      0.00
   -5    1    2    -19.94      0.00
   -5    1    1     13.01      0.00
    5    1    0     -0.39      0.00
    5    1    1    -28.17      0.00
    5    1    2      1.81      0.00
    5    1    3      9.98      0.00
    5    1    4     -0.18      0.00
    5    1    5     -1.17      0.00
    5    1    6      7.46      0.00
    5    1    7     -3.52      0.00
    5    1    8     -0.12      0.00
    5    1    9     -8.08      0.00
    5    1   10     -0.41      0.00
    5    1   11      1.30      0.00
    5    1   12     -1.41      0.00
    5    1   13      0.12      0.00
    5    1   14      0.54      0.00
    5    1   15      8.83      0.00
    5    1   16     -2.28      0.00
   -5    3   20     -2.07      0.00
   -5    3   19      0.84      0.00
   -5    3   18      1.88      0.00
   -5    3   17      0.05      0.00
   -5    3   16      0.47      0.00
   -5    3   15     -0.24      0.00
   -5    3   14     -4.98      0.00
   -5    3   13     -3.71      0.00
   -5    3   12      0.63      0.00
   -5    3   11     -3.02      0.00
   -5    3   10      5.04      0.00
   -5    3    9      3.72      0.00
   -5    3    8     -3.69      0.00
   -5    3    7      1.66      0.00
   -5    3    6     -2.15      0.00
   -5    3    5    -12.25      0.00
   -5    3    4     -9.40      0.00
   -5    3    3     35.05      0.00
   -5    3    2      9.24      0.00
   -5    3    1    -45.05      0.00
    5    3    0     -4.42      0.00
    5    3    1    -19.62      0.00
    5    3    2      5.92      0.00
    5    3    3     -0.61      0.00
    5    3    4      3.07      0.00
    5    3    5     -4.15      0.00
    5    3    6     -8.27      0.00
    5    3    7      9.98      0.00
    5    3    8     -0.82      0.00
    5    3    9      4.81      0.00
    5    3   10      2.40      0.00
    5    3   11      2.57      0.00
    5    3   12      0.20      0.00
    5    3   13     -2.83      0.00
    5    3   14     -0.31      0.00
    5    3   15     -0.15      0.00
    5    3   16      0.56      0.00
   -5    5   19     -2.35      0.00
   -5    5   18     -3.61      0.00
   -5    5   17     -0.85      0.00
   -5    5   16     -0.39      0.00
   -5    5   15      1.95      0.00
   -5    5   14      6.08      0.00
   -5    5   13      2.48      0.00
   -5    5   12     -0.08      0.00
   -5    5   11      2.56      0.00
   -5    5   10     -5.21      0.00
   -5    5    9     -2.85      0.00
   -5    5    8     -2.91      0.00
   -5    5    7      2.98      0.00
   -5    5    6      8.15      0.00
   -5    5    5     -8.05      0.00
   -5    5    4      2.14      0.00
   -5    5    3     -6.68      0.00
   -5    5    2      6.38      0.00
   -5    5    1     13.52      0.00
    5    5    0      0.40      0.00
    5    5    1     -5.64      0.00
    5    5    2     -1.37      0.00
    5    5    3      6.78      0.00
    5    5    4     -3.70      0.00
    5    5    5      1.66      0.00
    5    5    6      0.85      0.00
    5    5    7     -6.44      0.00
    5    5    8      1.69      0.00
    5    5    9     -0.62      0.00
    5    5   10     -1.71      0.00
    5    5   11     -2.19      0.00
    5    5   12     -1.22      0.00
    5    5   13      2.69      0.00
    5    5   14     -0.18      0.00
    5    5   15      2.12      0.00
   -5    7   19     -2.30      0.00
   -5    7   18      4.76      0.00
   -5    7   17      1.98      0.00
   -5    7   16     -3.31      0.00
   -5    7   15      2.67      0.00
   -5    7   14     -2.96      0.00
   -5    7   13     -1.79      0.00
   -5    7   12     -1.02      0.00
   -5    7   11      0.35      0.00
   -5    7   10      0.50      0.00
   -5    7    9     -1.32      0.00
   -5    7    8      2.38      0.00
   -5    7    7      0.10      0.00
   -5    7    6     -3.77      0.00
   -5    7    5     12.93      0.00
   -5    7    4     -2.23      0.00
   -5    7    3    -10.86      0.00
   -5    7    2     -4.09      0.00
   -5    7    1      6.76      0.00
    5    7    0     12.85      0.00
    5    7    1      9.27      0.00
    5    7    2     -4.23      0.00
    5    7    3     -2.92      0.00
    5    7    4     -5.48      0.00
    5    7    5      1.94      0.00
    5    7    6     -3.23      0.00
    5    7    7      2.10      0.00
    5    7    8      0.21      0.00
    5    7    9     -1.13      0.00
    5    7   10      2.84      0.00
    5    7   11      2.75      0.00
    5    7   12     -1.29      0.00
    5    7   13     -1.39      0.00
    5    7   14      1.22      0.00
    5    7   15     -1.24      0.00
   -5    9   18     -1.53      0.00
   -5    9   17     -2.46      0.00
   -5    9   16      3.24      0.00
   -5    9   15     -2.92      0.00
   -5    9   14      4.73      0.00
   -5    9   13     -0.55      0.00
   -5    9   12     -1.33      0.00
   -5    9   11     -1.57      0.00
   -5    9   10     -1.61      0.00
   -5    9    9      3.68      0.00
   -5    9    8     -1.18      0.00
   -5    9    7     -0.27      0.00
   -5    9    6     -1.97      0.00
   -5    9    5      0.66      0.00
   -5    9    4      3.89      0.00
   -5    9    3     -7.40      0.00
   -5    9    2      3.24      0.00
   -5    9    1      6.00      0.00
    5    9    0    -10.55      0.00
    5    9    1      6.87      0.00
    5    9    2      0.79      0.00
    5    9    3     -2.67      0.00
    5    9    4      6.00      0.00
    5    9    5     -1.58      0.00
    5    9    6      4.87      0.00
    5    9    7     -2.10      0.00
    5    9    8     -1.38      0.00
    5    9    9      1.50      0.00
    5    9   10     -3.75      0.00
    5    9   11      2.11      0.00
    5    9   12      0.80      0.00
    5    9   13     -4.32      0.00
    5    9   14     -0.80      0.00
   -5   11   17      1.07      0.00
   -5   11   16     -1.06      0.00
   -5   11   15     -1.03      0.00
   -5   11   14     -0.21      0.00
   -5   11   13      2.92      0.00
   -5   11   12      1.65      0.00
   -5   11   11      0.41      0.00
   -5   11   10     -0.90      0.00
   -5   11    9      0.40      0.00
   -5   11    8      3.17      0.00
   -5   11    7     -3.05      0.00
   -5   11    6      0.66      0.00
   -5   11    5     -0.42      0.00
   -5   11    4     -3.58      0.00
   -5   11    3      8.05      0.00
   -5   11    2     -0.61      0.00
   -5   11    1      2.39      0.00
    5   11    0      2.06      0.00
    5   11    1      2.10      0.00
    5   11    2      4.43      0.00
    5   11    3      3.84      0.00
    5   11    4     -4.59      0.00
    5   11    5      0.67      0.00
    5   11    6     -3.16      0.00
    5   11    7     -1.03      0.00
    5   11    8      1.29      0.00
    5   11    9      0.11      0.00
    5   11   10      1.90      0.00
    5   11   11     -2.87      0.00
    5   11   12     -0.24      0.00
    5   11   13      1.11      0.00
   -5   13   16     -1.35      0.00
   -5   13   15     -0.62      0.00
   -5   13   14     -1.80      0.00
   -5   13   13     -2.44      0.00
   -5   13   12      1.05      0.00
   -5   13   11     -4.68      0.00
   -5   13   10      1.28      0.00
   -5   13    9     -0.27      0.00
   -5   13    8     -4.08      0.00
   -5   13    7      6.56      0.00
   -5   13    6     -0.62      0.00
   -5   13    5     -1.09      0.00
   -5   13    4      3.60      0.00
   -5   13    3     -5.21      0.00
   -5   13    2     -3.43      0.00
   -5   13    1     -6.59      0.00
    5   13    0      2.03      0.00
    5   13    1     -6.53      0.00
    5   13    2     -2.43      0.00
    5   13    3      0.06      0.00
    5   13    4      1.44      0.00
    5   13    5     -2.04      0.00
    5   13    6      3.03      0.00
    5   13    7      0.51      0.00
    5   13    8     -2.59      0.00
    5   13    9      3.25      0.00
    5   13   10      1.31      0.00
    5   13   11     -3.78      0.00
    5   13   12     -1.50      0.00
   -5   15   15      1.23      0.00
   -5   15   14     -0.39      0.00
   -5   15   13      0.80      0.00
   -5   15   12     -0.03      0.00
   -5   15   11      3.95      0.00
   -5   15   10      0.98      0.00
   -5   15    9     -0.53      0.00
   -5   15    8      3.20      0.00
   -5   15    7     -2.12      0.00
   -5   15    6     -1.29      0.00
   -5   15    5     -3.12      0.00
   -5   15    4      0.30      0.00
   -5   15    3      6.54      0.00
   -5   15    2      1.34      0.00
   -5   15    1      1.98      0.00
    5   15    0     -4.33      0.00
    5   15    1     -0.53      0.00
    5   15    2     -1.05      0.00
    5   15    3      3.65      0.00
    5   15    4      0.58      0.00
    5   15    5     -1.48      0.00
    5   15    6      0.29      0.00
    5   15    7      2.99      0.00
    5   15    8      1.82      0.00
    5   15    9     -1.49      0.00
    5   15   10      1.96      0.00
    5   15   11     -0.58      0.00
   -5   17   13     -1.05      0.00
   -5   17   12      1.16      0.00
   -5   17   11     -0.95      0.00
   -5   17   10     -1.28      0.00
   -5   17    9      0.57      0.00
   -5   17    8      0.13      0.00
   -5   17    7     -1.57      0.00
   -5   17    6     -0.83      0.00
   -5   17    5      0.44      0.00
   -5   17    4     -0.79      0.00
   -5   17    3     -2.05      0.00
   -5   17    2     -0.14      0.00
   -5   17    1     -3.14      0.00
    5   17    0      2.74      0.00
    5   17    1      0.03      0.00
    5   17    2      3.12      0.00
    5   17    3     -5.13      0.00
    5   17    4     -0.62      0.00
    5   17    5     -2.15      0.00
    5   17    6     -4.06      0.00
    5   17    7      2.72      0.00
    5   17    8      0.41      0.00
    5   17    9     -1.64      0.00
   -5   19   11      1.08      0.00
   -5   19   10      0.71      0.00
   -5   19    9      2.58      0.00
   -5   19    8     -5.78      0.00
   -5   19    7     -2.11      0.00
   -5   19    6      3.29      0.00
   -5   19    5      2.41      0.00
   -5   19    4      2.53      0.00
   -5   19    3     -2.49      0.00
   -5   19    2     -1.82      0.00
   -5   19    1      4.09      0.00
    5   19    0     -1.23      0.00
    5   19    1      1.79      0.00
    5   19    2      0.64      0.00
    5   19    3     -1.02      0.00
    5   19    4      0.18      0.00
    5   19    5      7.11      0.00
    5   19    6     -1.13      0.00
    5   19    7     -6.99      0.00
   -5   21    7      4.24      0.00
   -5   21    6     -3.51      0.00
   -5   21    5      0.46      0.00
   -5   21    4     -0.71      0.00
   -5   21    3      1.51      0.00
   -5   21    2      1.40      0.00
   -5   21    1     -0.45      0.00
    5   21    0      1.58      0.00
    5   21    1      0.77      0.00
    5   21    2      1.36      0.00
    5   21    3      1.74      0.00
   -6    0   20     -1.80      0.00
   -6    0   18      0.02      0.00
   -6    0   16      2.88      0.00
   -6    0   14      1.45      0.00
   -6    0   12      0.29      0.00
   -6    0   10     -8.00      0.00
   -6    0    8      6.65      0.00
   -6    0    6    -21.29      0.00
   -6    0    4     33.20      0.00
   -6    0    2     -7.05      0.00
    6    0    0     16.04      0.00
    6    0    2    -12.66      0.00
    6    0    4     10.26      0.00
    6    0    6     -3.20      0.00
    6    0    8     -0.34      0.00
    6    0   10     -4.63      0.00
    6    0   12      6.06      0.00
    6    0   14     -5.99      0.00
   -6    2   20      0.54      0.00
   -6    2   19      2.22      0.00
   -6    2   18     -0.64      0.00
   -6    2   17     -0.70      0.00
   -6    2   16     -2.41      0.00
   -6    2   15     -0.52      0.00
   -6    2   14     -3.62      0.00
   -6    2   13      4.18      0.00
   -6    2   12      2.06      0.00
   -6    2   11     -2.99      0.00
   -6    2   10      6.84      0.00
   -6    2    9     -1.25      0.00
   -6    2    8     -2.29      0.00
   -6    2    7     -4.24      0.00
   -6    2    6    -10.15      0.00
   -6    2    5     20.78      0.00
   -6    2    4     12.73      0.00
   -6    2    3    -10.10      0.00
   -6    2    2    -17.28      0.00
   -6    2    1     -8.99      0.00
    6    2    0      8.49      0.00
    6    2    1     -9.31      0.00
    6    2    2     -1.33      0.00
    6    2    3      1.65      0.00
    6    2    4     -3.34      0.00
    6    2    5      9.26      0.00
    6    2    6     -6.84      0.00
    6    2    7     -5.97      0.00
    6    2    8      0.38      0.00
    6    2    9     -1.82      0.00
    6    2   10      2.56      0.00
    6    2   11     -0.98      0.00
    6    2   12      0.33      0.00
    6    2   13      1.69      0.00
    6    2   14      0.49      0.00
    6    2   15     -0.29      0.00
   -6    4   20     -2.80      0.00
   -6    4   19     -1.05      0.00
   -6    4   18      2.27      0.00
   -6    4   17     -0.48      0.00
   -6    4   16      5.18      0.00
   -6    4   15      2.61      0.00
   -6    4   14      1.34      0.00
   -6    4   13     -4.74      0.00
   -6    4   12     -2.57      0.00
   -6    4   11     -0.52      0.00
   -6    4   10     -3.17      0.00
   -6    4    9      4.77      0.00
   -6    4    8     -0.34      0.00
   -6    4    7      1.12      0.00
   -6    4    6     16.38      0.00
   -6    4    5     -6.28      0.00
   -6    4    4    -28.64      0.00
   -6    4    3     11.51      0.00
   -6    4    2     25.96      0.00
   -6    4    1     -3.12      0.00
    6    4    0    -11.15      0.00
    6    4    1      5.98      0.00
    6    4    2     -1.53      0.00
    6    4    3      1.88      0.00
    6    4    4      0.52      0.00
    6    4    5      2.50      0.00
    6    4    6      7.81      0.00
    6    4    7     -0.37      0.00
    6    4    8     -2.22      0.00
    6    4    9     -1.18      0.00
    6    4   10      1.54      0.00
    6    4   11     -3.12      0.00
    6    4   12     -2.11      0.00
    6    4   13      0.69      0.00
    6    4   14      0.14      0.00
    6    4   15     -1.30      0.00
   -6    6   19      1.71      0.00
   -6    6   18      0.61      0.00
   -6    6   17     -3.00      0.00
   -6    6   16     -2.23      0.00
   -6    6   15     -0.05      0.00
   -6    6   14     -2.30      0.00
   -6    6   13      2.75      0.00
   -6    6   12      1.78      0.00
   -6    6   11      0.54      0.00
   -6    6   10      0.88      0.00
   -6    6    9     -3.29      0.00
   -6    6    8     -0.60      0.00
   -6    6    7     -1.83      0.00
   -6    6    6      6.58      0.00
   -6    6    5     -0.22      0.00
   -6    6    4     -9.04      0.00
   -6    6    3      2.41      0.00
   -6    6    2      1.92      0.00
   -6    6    1      5.12      0.00
    6    6    0     -8.74      0.00
    6    6    1      8.54      0.00
    6    6    2      8.30      0.00
    6    6    3      1.78      0.00
    6    6    4     -1.26      0.00
    6    6    5     -7.30      0.00
    6    6    6      2.42      0.00
    6    6    7     -4.31      0.00
    6    6    8      2.19      0.00
    6    6    9     -0.15      0.00
    6    6   10     -2.88      0.00
    6    6   11      4.70      0.00
    6    6   12      2.12      0.00
    6    6   13     -1.37      0.00
    6    6   14      0.83      0.00
   -6    8   19      1.92      0.00
   -6    8   18     -2.29      0.00
   -6    8   17      3.50      0.00
   -6    8   16     -2.75      0.00
   -6    8   15     -1.49      0.00
   -6    8   14      4.47      0.00
   -6    8   13     -3.81      0.00
   -6    8   12     -1.55      0.00
   -6    8   11     -2.42      0.00
   -6    8   10      3.56      0.00
   -6    8    9      3.59      0.00
   -6    8    8     -1.50      0.00
   -6    8    7      0.73      0.00
   -6    8    6     -7.04      0.00
   -6    8    5     -1.19      0.00
   -6    8    4      7.70      0.00
   -6    8    3     -5.48      0.00
   -6    8    2     -2.18      0.00
   -6    8    1     -4.98      0.00
    6    8    0      1.20      0.00
    6    8    1    -12.80      0.00
    6    8    2     -1.18      0.00
    6    8    3     -7.06      0.00
    6    8    4      1.49      0.00
    6    8    5      3.99      0.00
    6    8    6     -0.13      0.00
    6    8    7      6.98      0.00
    6    8    8     -1.18      0.00
    6    8    9      2.67      0.00
    6    8   10     -0.44      0.00
    6    8   11     -3.30      0.00
    6    8   12      0.36      0.00
    6    8   13     -0.18      0.00
    6    8   14     -1.11      0.00
   -6   10   18     -0.59      0.00
   -6   10   17     -1.23      0.00
   -6   10   16      0.33      0.00
   -6   10   15     -1.21      0.00
   -6   10   14     -0.69      0.00
   -6   10   13      5.85      0.00
   -6   10   12     -2.24      0.00
   -6   10   11      0.83      0.00
   -6   10   10      0.57      0.00
   -6   10    9     -3.00      0.00
   -6   10    8      3.17      0.00
   -6   10    7     -1.86      0.00
   -6   10    6     -0.92      0.00
   -6   10    5      2.33      0.00
   -6   10    4      6.49      0.00
   -6   10    3      4.28      0.00
   -6   10    2     -6.84      0.00
   -6   10    1      1.71      0.00
    6   10    0      0.71      0.00
    6   10    1      5.87      0.00
    6   10    2     -2.41      0.00
    6   10    3      4.44      0.00
    6   10    4      3.40      0.00
    6   10    5     -2.17      0.00
    6   10    6     -1.37      0.00
    6   10    7     -4.33      0.00
    6   10    8     -1.68      0.00
    6   10    9      1.23      0.00
    6   10   10      3.41      0.00
    6   10   11      3.95      0.00
    6   10   12     -2.11      0.00
    6   10   13     -6.43      0.00
   -6   12   17      0.24      0.00
   -6   12   16     -2.12      0.00
   -6   12   15     -1.03      0.00
   -6   12   14     -0.93      0.00
   -6   12   13      1.56      0.00
   -6   12   12      1.99      0.00
   -6   12   11     -0.11      0.00
   -6   12   10     -0.03      0.00
   -6   12    9     -1.15      0.00
   -6   12    8     -0.16      0.00
   -6   12    7      0.12      0.00
   -6   12    6     -3.66      0.00
   -6   12    5      0.72      0.00
   -6   12    4     -1.39      0.00
   -6   12    3     -4.04      0.00
   -6   12    2      1.14      0.00
   -6   12    1      0.88      0.00
    6   12    0      9.42      0.00
    6   12    1     -1.79      0.00
    6   12    2     -3.73      0.00
    6   12    3     -2.75      0.00
    6   12    4     -2.87      0.00
    6   12    5      1.64      0.00
    6   12    6     -1.38      0.00
    6   12    7      1.58      0.00
    6   12    8      1.10      0.00
    6   12    9     -3.65      0.00
    6   12   10      1.62      0.00
    6   12   11     -0.91      0.00
    6   12   12     -0.63      0.00
   -6   14   16      6.17      0.00
   -6   14   15      1.53      0.00
   -6   14   14     -1.26      0.00
   -6   14   13      0.93      0.00
   -6   14   12     -0.69      0.00
   -6   14   11     -1.10      0.00
   -6   14   10     -1.34      0.00
   -6   14    9      0.84      0.00
   -6   14    8     -2.13      0.00
   -6   14    7     -1.20      0.00
   -6   14    6      4.91      0.00
   -6   14    5     -1.78      0.00
   -6   14    4      2.89      0.00
   -6   14    3      3.27      0.00
   -6   14    2     -4.28      0.00
   -6   14    1     -2.96      0.00
    6   14    0     -3.85      0.00
    6   14    1      0.77      0.00
    6   14    2      1.40      0.00
    6   14    3     -0.38      0.00
    6   14    4      2.74      0.00
    6   14    5      0.82      0.00
    6   14    6      0.68      0.00
    6   14    7     -3.03      0.00
    6   14    8     -2.95      0.00
    6   14    9      2.57      0.00
    6   14   10     -1.96      0.00
    6   14   11     -0.42      0.00
   -6   16   14     -1.67      0.00
   -6   16   13      0.94      0.00
   -6   16   12     -0.23      0.00
   -6   16   11      0.96      0.00
   -6   16   10      1.16      0.00
   -6   16    9     -2.63      0.00
   -6   16    8     -0.55      0.00
   -6   16    7      5.28      0.00
   -6   16    6     -0.58      0.00
   -6   16    5      0.87      0.00
   -6   16    4     -2.88      0.00
   -6   16    3     -1.49      0.00
   -6   16    2      4.31      0.00
   -6   16    1      2.93      0.00
    6   16    0      0.30      0.00
    6   16    1      0.23      0.00
    6   16    2      3.25      0.00
    6   16    3      1.07      0.00
    6   16    4     -4.38      0.00
    6   16    5      1.94      0.00
    6   16    6      2.01      0.00
    6   16    7      1.47      0.00
    6   16    8      1.53      0.00
    6   16    9     -2.48      0.00
   -6   18   12      0.03      0.00
   -6   18   11     -0.36      0.00
   -6   18   10     -1.83      0.00
   -6   18    9     -1.09      0.00
   -6   18    8      3.24      0.00
   -6   18    7     -1.01      0.00
   -6   18    6      0.32      0.00
   -6   18    5      2.33      0.00
   -6   18    4     -2.05      0.00
   -6   18    3     -2.97      0.00
   -6   18    2      1.15      0.00
   -6   18    1     -1.83      0.00
    6   18    0     -3.62      0.00
    6   18    1     -1.46      0.00
    6   18    2      0.08      0.00
    6   18    3     -0.79      0.00
    6   18    4     -2.38      0.00
    6   18    5     -0.32      0.00
    6   18    6      4.94      0.00
    6   18    7      0.78      0.00
   -6   20    9      5.59      0.00
   -6   20    8      2.90      0.00
   -6   20    7     -4.50      0.00
   -6   20    6     -0.42      0.00
   -6   20    5     -1.53      0.00
   -6   20    4     -2.22      0.00
   -6   20    3      3.62      0.00
   -6   20    2     -0.73      0.00
   -6   20    1     -0.53      0.00
    6   20    0      1.08      0.00
    6   20    1      0.49      0.00
    6   20    2     -1.84      0.00
    6   20    3      1.16      0.00
    6   20    4      4.42      0.00
   -7    1   20      1.15      0.00
   -7    1   19     -1.36      0.00
   -7    1   18      0.83      0.00
   -7    1   17     -0.23      0.00
   -7    1   16     -0.57      0.00
   -7    1   15      2.89      0.00
   -7    1   14      2.12      0.00
   -7    1   13      1.40      0.00
   -7    1   12     -4.18      0.00
   -7    1   11      3.24      0.00
   -7    1   10      3.82      0.00
   -7    1    9     -9.87      0.00
   -7    1    8     -2.84      0.00
   -7    1    7      6.57      0.00
   -7    1    6     16.23      0.00
   -7    1    5    -16.86      0.00
   -7    1    4    -19.00      0.00
   -7    1    3     14.23      0.00
   -7    1    2     -8.43      0.00
   -7    1    1     -2.42      0.00
    7    1    0     12.67      0.00
    7    1    1     -2.75      0.00
    7    1    2      0.28      0.00
    7    1    3      1.59      0.00
    7    1    4     -3.81      0.00
    7    1    5     -7.67      0.00
    7    1    6      5.10      0.00
    7    1    7     -3.13      0.00
    7    1    8      0.82      0.00
    7    1    9      2.22      0.00
    7    1   10     -0.10      0.00
    7    1   11      5.64      0.00
    7    1   12     -2.08      0.00
    7    1   13     -4.27      0.00
    7    1   14      0.87      0.00
   -7    3   20     -1.51      0.00
   -7    3   19      2.36      0.00
   -7    3   18     -1.19      0.00
   -7    3   17      0.83      0.00
   -7    3   16     -0.35      0.00
   -7    3   15     -2.04      0.00
   -7    3   14     -2.10      0.00
   -7    3   13     -4.00      0.00
   -7    3   12      6.13      0.00
   -7    3   11      0.78      0.00
   -7    3   10     -2.48      0.00
   -7    3    9      0.33      0.00
   -7    3    8     -3.25      0.00
   -7    3    7     15.33      0.00
   -7    3    6    -13.18      0.00
   -7    3    5    -31.16      0.00
   -7    3    4     26.36      0.00
   -7    3    3     16.85      0.00
   -7    3    2     -1.27      0.00
   -7    3    1     -4.47      0.00
    7    3    0    -13.43      0.00
    7    3    1     -8.08      0.00
    7    3    2      0.03      0.00
    7    3    3      5.05      0.00
    7    3    4     -0.88      0.00
    7    3    5     -0.23      0.00
    7    3    6      1.58      0.00
    7    3    7      2.66      0.00
    7    3    8      1.57      0.00
    7    3    9     -0.57      0.00
    7    3   10      0.33      0.00
    7    3   11      0.67      0.00
    7    3   12     -2.88      0.00
    7    3   13     -0.19      0.00
    7    3   14      0.25      0.00
   -7    5   20     -0.42      0.00
   -7    5   19     -4.37      0.00
   -7    5   18     -0.25      0.00
   -7    5   17     -4.60      0.00
   -7    5   16      0.57      0.00
   -7    5   15      4.06      0.00
   -7    5   14      1.05      0.00
   -7    5   13      1.47      0.00
   -7    5   12     -2.94      0.00
   -7    5   11     -1.49      0.00
   -7    5   10     -2.87      0.00
   -7    5    9      1.26      0.00
   -7    5    8      8.39      0.00
   -7    5    7     -5.59      0.00
   -7    5    6      1.16      0.00
   -7    5    5     10.83      0.00
   -7    5    4    -12.49      0.00
   -7    5    3     -6.28      0.00
   -7    5    2      9.31      0.00
   -7    5    1      0.30      0.00
    7    5    0      0.45      0.00
    7    5    1     -3.70      0.00
    7    5    2      2.58      0.00
    7    5    3      0.58      0.00
    7    5    4      7.43      0.00
    7    5    5     -4.38      0.00
    7    5    6     -4.72      0.00
    7    5    7      0.65      0.00
    7    5    8     -4.76      0.00
    7    5    9      4.32      0.00
    7    5   10     -2.32      0.00
    7    5   11      0.47      0.00
    7    5   12      7.01      0.00
    7    5   13     -1.34      0.00
    7    5   14     -2.21      0.00
   -7    7   19      1.06      0.00
   -7    7   18     -0.02      0.00
   -7    7   17      2.94      0.00
   -7    7   16     -4.54      0.00
   -7    7   15      4.40      0.00
   -7    7   14      1.12      0.00
   -7    7   13     -2.72      0.00
   -7    7   12      1.65      0.00
   -7    7   11      1.75      0.00
   -7    7   10      1.94      0.00
   -7    7    9      0.24      0.00
   -7    7    8     -4.46      0.00
   -7    7    7     -5.57      0.00
   -7    7    6      0.00      0.00
   -7    7    5     10.81      0.00
   -7    7    4      0.58      0.00
   -7    7    3     -9.12      0.00
   -7    7    2      3.64      0.00
   -7    7    1      4.60      0.00
    7    7    0      5.42      0.00
    7    7    1      7.14      0.00
    7    7    2     -3.82      0.00
    7    7    3     -2.31      0.00
    7    7    4     -8.62      0.00
    7    7    5      2.96      0.00
    7    7    6     -2.85      0.00
    7    7    7     -0.88      0.00
    7    7    8      2.19      0.00
    7    7    9     -1.19      0.00
    7    7   10      1.03      0.00
    7    7   11     -0.09      0.00
    7    7   12     -1.06      0.00
    7    7   13      2.20      0.00
   -7    9   19     -3.27      0.00
   -7    9   18      2.29      0.00
   -7    9   17      0.04      0.00
   -7    9   16      2.63      0.00
   -7    9   15     -4.46      0.00
   -7    9   14      2.49      0.00
   -7    9   13      1.42      0.00
   -7    9   12     -2.61      0.00
   -7    9   11      0.50      0.00
   -7    9   10     -5.12      0.00
   -7    9    9      3.86      0.00
   -7    9    8      3.47      0.00
   -7    9    7     -2.45      0.00
   -7    9    6      3.51      0.00
   -7    9    5     -1.57      0.00
   -7    9    4      0.40      0.00
   -7    9    3     -1.61      0.00
   -7    9    2     -6.51      0.00
   -7    9    1      2.48      0.00
    7    9    0     -6.03      0.00
    7    9    1      0.09      0.00
    7    9    2      3.87      0.00
    7    9    3     -1.45      0.00
    7    9    4      5.71      0.00
    7    9    5      3.06      0.00
    7    9    6      1.50      0.00
    7    9    7      1.52      0.00
    7    9    8     -2.78      0.00
    7    9    9     -3.25      0.00
    7    9   10      0.38      0.00
    7    9   11     -3.43      0.00
    7    9   12      3.47      0.00
    7    9   13      0.32      0.00
   -7   11   18      1.02      0.00
   -7   11   17      1.99      0.00
   -7   11   16      0.52      0.00
   -7   11   15      0.15      0.00
   -7   11   14     -0.50      0.00
   -7   11   13      1.25      0.00
   -7   11   12     -0.11      0.00
   -7   11   11     -3.91      0.00
   -7   11   10      1.64      0.00
   -7   11    9     -1.27      0.00
   -7   11    8     -2.95      0.00
   -7   11    7      3.46      0.00
   -7   11    6     -2.07      0.00
   -7   11    5      1.26      0.00
   -7   11    4     -0.22      0.00
   -7   11    3      3.25      0.00
   -7   11    2      5.23      0.00
   -7   11    1      1.04      0.00
    7   11    0      3.57      0.00
    7   11    1      5.80      0.00
    7   11    2     -3.03      0.00
    7   11    3      2.26      0.00
    7   11    4     -3.19      0.00
    7   11    5     -4.73      0.00
    7   11    6      1.27      0.00
    7   11    7     -0.27      0.00
    7   11    8      5.75      0.00
    7   11    9      0.80      0.00
    7   11   10      1.37      0.00
    7   11   11      1.21      0.00
    7   11   12    -15.30      0.00
   -7   13   17      3.02      0.00
   -7   13   16      1.61      0.00
   -7   13   15     -4.81      0.00
   -7   13   14     -1.65      0.00
   -7   13   13     -2.53      0.00
   -7   13   12      1.57      0.00
   -7   13   11      2.95      0.00
   -7   13   10     -0.89      0.00
   -7   13    9      1.69      0.00
   -7   13    8      0.04      0.00
   -7   13    7      2.19      0.00
   -7   13    6      1.78      0.00
   -7   13    5     -7.36      0.00
   -7   13    4      0.25      0.00
   -7   13    3     -1.13      0.00
   -7   13    2     -3.60      0.00
   -7   13    1     -0.86      0.00
    7   13    0     -1.89      0.00
    7   13    1     -7.12      0.00
    7   13    2      2.51      0.00
    7   13    3      0.55      0.00
    7   13    4      0.76      0.00
    7   13    5      0.42      0.00
    7   13    6     -1.89      0.00
    7   13    7      4.18      0.00
    7   13    8     -2.03      0.00
    7   13    9     -0.58      0.00
    7   13   10      1.94      0.00
    7   13   11     -1.84      0.00
   -7   15   15      2.50      0.00
   -7   15   14     -1.13      0.00
   -7   15   13      0.96      0.00
   -7   15   12      5.00      0.00
   -7   15   11     -2.82      0.00
   -7   15   10     -1.21      0.00
   -7   15    9      0.69      0.00
   -7   15    8      2.87      0.00
   -7   15    7     -0.02      0.00
   -7   15    6     -0.77      0.00
   -7   15    5      0.90      0.00
   -7   15    4     -3.68      0.00
   -7   15    3      5.70      0.00
   -7   15    2      1.35      0.00
   -7   15    1     -4.28      0.00
    7   15    0      0.07      0.00
    7   15    1      0.81      0.00
    7   15    2      0.23      0.00
    7   15    3      2.45      0.00
    7   15    4      0.03      0.00
    7   15    5     -2.17      0.00
    7   15    6     -2.72      0.00
    7   15    7     -4.62      0.00
    7   15    8      5.47      0.00
    7   15    9      3.44      0.00
   -7   17   13     -0.38      0.00
   -7   17   12     -1.23      0.00
   -7   17   11     -1.72      0.00
   -7   17   10      2.53      0.00
   -7   17    9      3.15      0.00
   -7   17    8     -5.16      0.00
   -7   17    7     -2.94      0.00
   -7   17    6      2.16      0.00
   -7   17    5     -2.15      0.00
   -7   17    4      1.04      0.00
   -7   17    3     -1.02      0.00
   -7   17    2      1.43      0.00
   -7   17    1      1.77      0.00
    7   17    0      1.16      0.00
    7   17    1     -1.49      0.00
    7   17    2     -0.92      0.00
    7   17    3     -1.20      0.00
    7   17    4     -0.67      0.00
    7   17    5      1.88      0.00
    7   17    6      1.83      0.00
    7   17    7     -0.29      0.00
   -7   19   11      1.57      0.00
   -7   19   10      0.38      0.00
   -7   19    9     -2.11      0.00
   -7   19    8     -0.67      0.00
   -7   19    7     -0.36      0.00
   -7   19    6     -3.42      0.00
   -7   19    5     -0.00      0.00
   -7   19    4      4.52      0.00
   -7   19    3      1.48      0.00
   -7   19    2     -2.35      0.00
   -7   19    1      1.37      0.00
    7   19    0     -0.52      0.00
    7   19    1      3.72      0.00
    7   19    2      0.29      0.00
    7   19    3     -3.91      0.00
    7   19    4      0.80      0.00
    7   19    5      2.07      0.00
   -7   21    6      1.71      0.00
   -7   21    5      3.59      0.00
   -7   21    4      1.31      0.00
   -7   21    3     -1.01      0.00
   -7   21    2     -0.38      0.00
   -7   21    1     -0.54      0.00
    7   21    0     -1.26      0.00
   -8    0   20     -0.68      0.00
   -8    0   18      2.12      0.00
   -8    0   16      1.56      0.00
   -8    0   14     -4.62      0.00
   -8    0   12     -0.99      0.00
   -8    0   10     -3.50      0.00
   -8    0    8      7.57      0.00
   -8    0    6    -10.30      0.00
   -8    0    4     14.41      0.00
   -8    0    2     -5.26      0.00
    8    0    0     10.30      0.00
    8    0    2      0.93      0.00
    8    0    4      3.91      0.00
    8    0    6     -4.13      0.00
    8    0    8     -8.36      0.00
    8    0   10     -1.16      0.00
    8    0   12      7.40      0.00
    8    0   14     -0.40      0.00
   -8    2   20      0.02      0.00
   -8    2   19     -1.15      0.00
   -8    2   18     -2.33      0.00
   -8    2   17      1.90      0.00
   -8    2   16     -0.15      0.00
   -8    2   15      0.26      0.00
   -8    2   14      1.55      0.00
   -8    2   13      3.98      0.00
   -8    2   12      2.69      0.00
   -8    2   11     -7.23      0.00
   -8    2   10     -0.24      0.00
   -8    2    9      1.54      0.00
   -8    2    8      0.03      0.00
   -8    2    7     -2.41      0.00
   -8    2    6     -8.55      0.00
   -8    2    5     19.66      0.00
   -8    2    4      6.42      0.00
   -8    2    3     -2.04      0.00
   -8    2    2      3.07      0.00
   -8    2    1    -17.57      0.00
    8    2    0     -2.41      0.00
    8    2    1     -0.95      0.00
    8    2    2     -8.52      0.00
    8    2    3     -1.72      0.00
    8    2    4     -3.33      0.00
    8    2    5     -1.26      0.00
    8    2    6      3.84      0.00
    8    2    7     -0.65      0.00
    8    2    8      2.94      0.00
    8    2    9      0.34      0.00
    8    2   10      1.39      0.00
    8    2   11     -0.23      0.00
    8    2   12     -2.66      0.00
    8    2   13      1.38      0.00
    8    2   14     -2.10      0.00
   -8    4   20     -2.53      0.00
   -8    4   19      0.10      0.00
   -8    4   18      0.69      0.00
   -8    4   17     -0.23      0.00
   -8    4   16      4.27      0.00
   -8    4   15     -0.52      0.00
   -8    4   14     -2.64      0.00
   -8    4   13     -1.07      0.00
   -8    4   12     -3.34      0.00
   -8    4   11      3.47      0.00
   -8    4   10      5.67      0.00
   -8    4    9      5.57      0.00
   -8    4    8     -5.70      0.00
   -8    4    7     -4.78      0.00
   -8    4    6     13.36      0.00
   -8    4    5    -17.89      0.00
   -8    4    4    -11.82      0.00
   -8    4    3     17.26      0.00
   -8    4    2      0.31      0.00
   -8    4    1      4.29      0.00
    8    4    0     -3.33      0.00
    8    4    1      4.05      0.00
    8    4    2      7.72      0.00
    8    4    3      0.16      0.00
    8    4    4      3.24      0.00
    8    4    5      8.04      0.00
    8    4    6     -4.88      0.00
    8    4    7     -1.49      0.00
    8    4    8     -2.35      0.00
    8    4    9     -3.86      0.00
    8    4   10      0.75      0.00
    8    4   11     -6.37      0.00
    8    4   12      0.11      0.00
    8    4   13      3.93      0.00
   -8    6   20      5.11      0.00
   -8    6   19     -0.78      0.00
   -8    6   18      2.26      0.00
   -8    6   17     -1.59      0.00
   -8    6   16     -2.24      0.00
   -8    6   15      2.03      0.00
   -8    6   14      0.74      0.00
   -8    6   13     -1.48      0.00
   -8    6   12     -0.76      0.00
   -8    6   11     -1.86      0.00
   -8    6   10     -1.27      0.00
   -8    6    9     -3.68      0.00
   -8    6    8     -1.80      0.00
   -8    6    7      4.92      0.00
   -8    6    6      1.84      0.00
   -8    6    5     11.22      0.00
   -8    6    4     -5.51      0.00
   -8    6    3    -11.79      0.00
   -8    6    2      4.06      0.00
   -8    6    1     -3.67      0.00
    8    6    0     -5.42      0.00
    8    6    1     -1.08      0.00
    8    6    2      4.26      0.00
    8    6    3     -0.98      0.00
    8    6    4     -1.50      0.00
    8    6    5     -4.44      0.00
    8    6    6      5.18      0.00
    8    6    7     -0.41      0.00
    8    6    8      1.44      0.00
    8    6    9      3.41      0.00
    8    6   10      2.12      0.00
    8    6   11      3.91      0.00
    8    6   12     -3.59      0.00
    8    6   13     -6.48      0.00
   -8    8   19      3.79      0.00
   -8    8   18     -0.80      0.00
   -8    8   17      1.78      0.00
   -8    8   16     -3.06      0.00
   -8    8   15     -4.18      0.00
   -8    8   14      4.68      0.00
   -8    8   13     -1.49      0.00
   -8    8   12      0.49      0.00
   -8    8   11      1.68      0.00
   -8    8   10      1.89      0.00
   -8    8    9      2.68      0.00
   -8    8    8     -1.20      0.00
   -8    8    7     -3.89      0.00
   -8    8    6     -2.20      0.00
   -8    8    5     -1.98      0.00
   -8    8    4      6.45      0.00
   -8    8    3     -3.19      0.00
   -8    8    2     -2.04      0.00
   -8    8    1      5.92      0.00
    8    8    0      0.08      0.00
    8    8    1     -5.29      0.00
    8    8    2     -1.02      0.00
    8    8    3      0.76      0.00
    8    8    4     -1.94      0.00
    8    8    5      3.45      0.00
    8    8    6     -1.40      0.00
    8    8    7     -0.85      0.00
    8    8    8      1.26      0.00
    8    8    9     -3.75      0.00
    8    8   10      2.28      0.00
    8    8   11      3.72      0.00
    8    8   12     -0.27      0.00
   -8   10   18     -0.13      0.00
   -8   10   17      0.55      0.00
   -8   10   16     -0.94      0.00
   -8   10   15     -0.35      0.00
   -8   10   14     -3.20      0.00
   -8   10   13      1.65      0.00
   -8   10   12     -0.85      0.00
   -8   10   11     -0.37      0.00
   -8   10   10      0.98      0.00
   -8   10    9     -5.53      0.00
   -8   10    8      5.80      0.00
   -8   10    7      3.67      0.00
   -8   10    6     -3.79      0.00
   -8   10    5      3.99      0.00
   -8   10    4     -0.81      0.00
   -8   10    3      2.39      0.00
   -8   10    2     -2.10      0.00
   -8   10    1     -3.19      0.00
    8   10    0      1.05      0.00
    8   10    1      4.93      0.00
    8   10    2     -0.30      0.00
    8   10    3     -1.31      0.00
    8   10    4      4.74      0.00
    8   10    5     -3.39      0.00
    8   10    6     -1.90      0.00
    8   10    7     -1.52      0.00
    8   10    8     -1.25      0.00
    8   10    9      3.28      0.00
    8   10   10     -3.49      0.00
    8   10   11      7.72      0.00
    8   10   12      3.19      0.00
   -8   12   17      0.82      0.00
   -8   12   16      1.10      0.00
   -8   12   15     -1.08      0.00
   -8   12   14      0.65      0.00
   -8   12   13      4.88      0.00
   -8   12   12      2.99      0.00
   -8   12   11     -0.93      0.00
   -8   12   10     -1.46      0.00
   -8   12    9     -0.20      0.00
   -8   12    8     -1.51      0.00
   -8   12    7      0.40      0.00
   -8   12    6     -4.32      0.00
   -8   12    5     -3.76      0.00
   -8   12    4      5.56      0.00
   -8   12    3     -2.09      0.00
   -8   12    2      1.28      0.00
   -8   12    1      1.96      0.00
    8   12    0      3.17      0.00
    8   12    1     -5.08      0.00
    8   12    2     -4.39      0.00
    8   12    3      2.53      0.00
    8   12    4     -2.10      0.00
    8   12    5      2.45      0.00
    8   12    6      2.02      0.00
    8   12    7      0.18      0.00
    8   12    8     -1.33      0.00
    8   12    9     -0.76      0.00
    8   12   10      1.20      0.00
   -8   14   16      3.16      0.00
   -8   14   15      0.39      0.00
   -8   14   14     -2.08      0.00
   -8   14   13      2.24      0.00
   -8   14   12     -3.38      0.00
   -8   14   11     -0.66      0.00
   -8   14   10      1.07      0.00
   -8   14    9     -0.01      0.00
   -8   14    8      2.34      0.00
   -8   14    7     -3.66      0.00
   -8   14    6      2.98      0.00
   -8   14    5      0.53      0.00
   -8   14    4     -3.48      0.00
   -8   14    3      1.57      0.00
   -8   14    2     -4.14      0.00
   -8   14    1     -1.16      0.00
    8   14    0      0.10      0.00
    8   14    1      0.06      0.00
    8   14    2      2.94      0.00
    8   14    3      0.57      0.00
    8   14    4      0.17      0.00
    8   14    5     -0.91      0.00
    8   14    6      2.06      0.00
    8   14    7     -1.07      0.00
    8   14    8     -3.83      0.00
    8   14    9      3.25      0.00
   -8   16   14      0.52      0.00
   -8   16   13     -3.51      0.00
   -8   16   12      0.43      0.00
   -8   16   11      2.72      0.00
   -8   16   10     -1.18      0.00
   -8   16    9     -0.28      0.00
   -8   16    8     -3.40      0.00
   -8   16    7      3.08      0.00
   -8   16    6      2.49      0.00
   -8   16    5      2.88      0.00
   -8   16    4      1.95      0.00
   -8   16    3      1.79      0.00
   -8   16    2      4.44      0.00
   -8   16    1     -2.66      0.00
    8   16    0     -2.15      0.00
    8   16    1      2.35      0.00
    8   16    2     -0.02      0.00
    8   16    3     -0.79      0.00
    8   16    4     -1.86      0.00
    8   16    5     -2.22      0.00
    8   16    6      0.14      0.00
    8   16    7      3.30      0.00
    8   16    8      0.00      0.00
   -8   18   12      1.97      0.00
   -8   18   11     -3.13      0.00
   -8   18   10     -2.13      0.00
   -8   18    9      1.19      0.00
   -8   18    8      1.49      0.00
   -8   18    7     -2.49      0.00
   -8   18    6     -1.92      0.00
   -8   18    5      1.74      0.00
   -8   18    4     -0.28      0.00
   -8   18    3     -5.87      0.00
   -8   18    2     -1.96      0.00
   -8   18    1      2.98      0.00
    8   18    0     -2.62      0.00
    8   18    1     -2.22      0.00
    8   18    2      3.33      0.00
    8   18    3     -0.01      0.00
    8   18    4      1.04      0.00
    8   18    5      3.58      0.00
   -8   20    8      2.85      0.00
   -8   20    7      3.79      0.00
   -8   20    6     -0.31      0.00
   -8   20    5     -1.25      0.00
   -8   20    4     -3.58      0.00
   -8   20    3     -1.75      0.00
   -8   20    2      0.91      0.00
   -8   20    1     -0.80      0.00
    8   20    0      0.09      0.00
    8   20    1     -0.38      0.00
   -9    1   20      0.21      0.00
   -9    1   19     -1.87      0.00
   -9    1   18      1.00      0.00
   -9    1   17      2.73      0.00
   -9    1   16      0.05      0.00
   -9    1   15      2.23      0.00
   -9    1   14     -0.14      0.00
   -9    1   13     -1.00      0.00
   -9    1   12     -2.07      0.00
   -9    1   11     -5.64      0.00
   -9    1   10      1.06      0.00
   -9    1    9      1.84      0.00
   -9    1    8      4.53      0.00
   -9    1    7     -0.87      0.00
   -9    1    6     -0.80      0.00
   -9    1    5      2.91      0.00
   -9    1    4     -2.68      0.00
   -9    1    3      1.69      0.00
   -9    1    2     -5.39      0.00
   -9    1    1    -12.07      0.00
    9    1    0      2.18      0.00
    9    1    1     -5.88      0.00
    9    1    2      0.38      0.00
    9    1    3     -4.13      0.00
    9    1    4      1.78      0.00
    9    1    5     -5.74      0.00
    9    1    6      2.65      0.00
    9    1    7     -1.00      0.00
    9    1    8     -0.78      0.00
    9    1    9      1.56      0.00
    9    1   10      0.07      0.00
    9    1   11      2.61      0.00
    9    1   12     -1.90      0.00
    9    1   13     -3.21      0.00
   -9    3   20     -0.71      0.00
   -9    3   19     -0.25      0.00
   -9    3   18     -1.05      0.00
   -9    3   17     -0.97      0.00
   -9    3   16      1.14      0.00
   -9    3   15     -2.81      0.00
   -9    3   14      1.47      0.00
   -9    3   13      0.27      0.00
   -9    3   12      1.80      0.00
   -9    3   11      4.78      0.00
   -9    3   10     -1.85      0.00
   -9    3    9     -0.69      0.00
   -9    3    8     -7.69      0.00
   -9    3    7     -2.44      0.00
   -9    3    6     -1.56      0.00
   -9    3    5     -7.11      0.00
   -9    3    4     11.60      0.00
   -9    3    3      6.23      0.00
   -9    3    2      0.00      0.00
   -9    3    1     -0.25      0.00
    9    3    0     -5.32      0.00
    9    3    1     -5.17      0.00
    9    3    2     -1.28      0.00
    9    3    3     -0.45      0.00
    9    3    4     -2.05      0.00
    9    3    5      7.09      0.00
    9    3    6      2.85      0.00
    9    3    7     -0.57      0.00
    9    3    8      2.61      0.00
    9    3    9      1.57      0.00
    9    3   10     -1.27      0.00
    9    3   11      1.65      0.00
    9    3   12     -0.97      0.00
    9    3   13     -1.68      0.00
   -9    5   20     -0.96      0.00
   -9    5   19     -2.88      0.00
   -9    5   18     -0.57      0.00
   -9    5   17     -0.26      0.00
   -9    5   16     -2.18      0.00
   -9    5   15      4.05      0.00
   -9    5   14     -3.23      0.00
   -9    5   13     -3.94      0.00
   -9    5   12      1.30      0.00
   -9    5   11     -3.03      0.00
   -9    5   10      4.28      0.00
   -9    5    9      1.54      0.00
   -9    5    8      3.57      0.00
   -9    5    7      2.72      0.00
   -9    5    6      6.61      0.00
   -9    5    5     -2.34      0.00
   -9    5    4    -19.71      0.00
   -9    5    3      1.80      0.00
   -9    5    2      5.64      0.00
   -9    5    1      0.20      0.00
    9    5    0     12.15      0.00
    9    5    1      0.20      0.00
    9    5    2      1.79      0.00
    9    5    3     -2.18      0.00
    9    5    4     -1.50      0.00
    9    5    5     -3.06      0.00
    9    5    6     -6.43      0.00
    9    5    7      2.03      0.00
    9    5    8     -3.35      0.00
    9    5    9     -0.61      0.00
    9    5   10      0.07      0.00
    9    5   11      0.48      0.00
    9    5   12      8.73      0.00
   -9    7   19      3.17      0.00
   -9    7   18      1.29      0.00
   -9    7   17      0.23      0.00
   -9    7   16     -1.93      0.00
   -9    7   15      0.99      0.00
   -9    7   14      3.13      0.00
   -9    7   13      3.99      0.00
   -9    7   12      0.83      0.00
   -9    7   11      0.18      0.00
   -9    7   10     -5.00      0.00
   -9    7    9     -0.04      0.00
   -9    7    8     -2.60      0.00
   -9    7    7     -0.96      0.00
   -9    7    6      0.67      0.00
   -9    7    5      5.17      0.00
   -9    7    4      8.34      0.00
   -9    7    3     -6.54      0.00
   -9    7    2      1.52      0.00
   -9    7    1      2.04      0.00
    9    7    0     -7.12      0.00
    9    7    1      3.58      0.00
    9    7    2     -5.76      0.00
    9    7    3      1.64      0.00
    9    7    4     -0.55      0.00
    9    7    5      1.13      0.00
    9    7    6      5.23      0.00
    9    7    7     -1.07      0.00
    9    7    8      0.84      0.00
    9    7    9     -0.28      0.00
    9    7   10     -4.18      0.00
    9    7   11     -2.53      0.00
    9    7   12     -3.06      0.00
   -9    9   19     -1.98      0.00
   -9    9   18      1.09      0.00
   -9    9   17      0.47      0.00
   -9    9   16      0.29      0.00
   -9    9   15     -4.51      0.00
   -9    9   14      0.65      0.00
   -9    9   13      3.05      0.00
   -9    9   12     -3.19      0.00
   -9    9   11     -0.67      0.00
   -9    9   10      0.34      0.00
   -9    9    9      1.77      0.00
   -9    9    8      6.43      0.00
   -9    9    7     -6.19      0.00
   -9    9    6     -3.41      0.00
   -9    9    5     -1.38      0.00
   -9    9    4     -2.42      0.00
   -9    9    3      3.37      0.00
   -9    9    2     -4.05      0.00
   -9    9    1      4.73      0.00
    9    9    0      3.47      0.00
    9    9    1      4.76      0.00
    9    9    2      4.27      0.00
    9    9    3     -2.02      0.00
    9    9    4      1.94      0.00
    9    9    5      1.34      0.00
    9    9    6     -5.05      0.00
    9    9    7     -0.82      0.00
    9    9    8      0.55      0.00
    9    9    9      1.14      0.00
    9    9   10      3.99      0.00
    9    9   11     -1.79      0.00
   -9   11   18     -0.14      0.00
   -9   11   17      4.09      0.00
   -9   11   16      1.30      0.00
   -9   11   15     -0.13      0.00
   -9   11   14      2.06      0.00
   -9   11   13     -1.67      0.00
   -9   11   12     -0.85      0.00
   -9   11   11     -1.42      0.00
   -9   11   10     -2.45      0.00
   -9   11    9      1.20      0.00
   -9   11    8     -3.14      0.00
   -9   11    7      3.79      0.00
   -9   11    6     -0.74      0.00
   -9   11    5      2.15      0.00
   -9   11    4      5.54      0.00
   -9   11    3     -1.84      0.00
   -9   11    2      1.75      0.00
   -9   11    1     -3.14      0.00
    9   11    0     -0.03      0.00
    9   11    1      0.44      0.00
    9   11    2     -5.33      0.00
    9   11    3     -1.12      0.00
    9   11    4      1.32      0.00
    9   11    5     -2.60      0.00
    9   11    6      1.34      0.00
    9   11    7      3.46      0.00
    9   11    8     -0.03      0.00
    9   11    9     -2.47      0.00
    9   11   10      2.38      0.00
   -9   13   17     -3.06      0.00
   -9   13   16      1.19      0.00
   -9   13   15     -2.21      0.00
   -9   13   14     -2.26      0.00
   -9   13   13      2.62      0.00
   -9   13   12      0.87      0.00
   -9   13   11     -0.36      0.00
   -9   13   10      2.46      0.00
   -9   13    9      0.44      0.00
   -9   13    8     -2.65      0.00
   -9   13    7      0.04      0.00
   -9   13    6      1.29      0.00
   -9   13    5     -5.42      0.00
   -9   13    4     -0.87      0.00
   -9   13    3      2.01      0.00
   -9   13    2     -3.00      0.00
   -9   13    1      2.74      0.00
    9   13    0      0.36      0.00
    9   13    1     -1.99      0.00
    9   13    2      2.95      0.00
    9   13    3      2.22      0.00
    9   13    4     -1.55      0.00
    9   13    5      2.73      0.00
    9   13    6      0.71      0.00
    9   13    7     -2.70      0.00
    9   13    8      1.92      0.00
    9   13    9      0.39      0.00
   -9   15   15      1.25      0.00
   -9   15   14     -1.14      0.00
   -9   15   13     -2.32      0.00
   -9   15   12      1.48      0.00
   -9   15   11     -1.61      0.00
   -9   15   10      2.97      0.00
   -9   15    9      1.13      0.00
   -9   15    8      1.83      0.00
   -9   15    7      2.42      0.00
   -9   15    6     -1.13      0.00
   -9   15    5      3.25      0.00
   -9   15    4     -0.23      0.00
   -9   15    3     -0.34      0.00
   -9   15    2     -0.73      0.00
   -9   15    1     -6.29      0.00
    9   15    0     -3.72      0.00
    9   15    1     -1.58      0.00
    9   15    2      4.15      0.00
    9   15    3     -0.52      0.00
    9   15    4     -3.10      0.00
    9   15    5     -1.71      0.00
    9   15    6      1.44      0.00
    9   15    7      1.47      0.00
    9   15    8      0.32      0.00
   -9   17   13      1.27      0.00
   -9   17   12     -3.28      0.00
   -9   17   11      0.47      0.00
   -9   17   10     -1.49      0.00
   -9   17    9     -0.92      0.00
   -9   17    8     -0.83      0.00
   -9   17    7     -6.88      0.00
   -9   17    6      1.71      0.00
   -9   17    5      1.23      0.00
   -9   17    4     -5.01      0.00
   -9   17    3      2.16      0.00
   -9   17    2      7.18      0.00
   -9   17    1      1.60      0.00
    9   17    0      2.52      0.00
    9   17    1     -1.39      0.00
    9   17    2     -2.48      0.00
    9   17    3      0.12      0.00
    9   17    4     -2.56      0.00
    9   17    5     -0.37      0.00
   -9   19   10     -1.73      0.00
   -9   19    9      2.67      0.00
   -9   19    8      0.34      0.00
   -9   19    7      0.86      0.00
   -9   19    6      0.54      0.00
   -9   19    5     -4.11      0.00
   -9   19    4      1.24      0.00
   -9   19    3      2.14      0.00
   -9   19    2     -3.63      0.00
   -9   19    1      0.19      0.00
    9   19    0     -0.81      0.00
    9   19    1      3.70      0.00
    9   19    2      1.94      0.00
  -10    0   20     -3.64      0.00
  -10    0   18      2.22      0.00
  -10    0   16     -2.61      0.00
  -10    0   14     -0.28      0.00
  -10    0   12     -4.64      0.00
  -10    0   10      9.73      0.00
  -10    0    8     -5.31      0.00
  -10    0    6      5.66      0.00
  -10    0    4      2.91      0.00
  -10    0    2     -9.45      0.00
   10    0    0     15.39      0.00
   10    0    2      0.92      0.00
   10    0    4     -4.03      0.00
   10    0    6     -3.64      0.00
   10    0    8      1.00      0.00
   10    0   10      2.46      0.00
   10    0   12      3.97      0.00
  -10    2   20     -1.69      0.00
  -10    2   19      1.98      0.00
  -10    2   18      0.49      0.00
  -10    2   17      1.32      0.00
  -10    2   16      1.54      0.00
  -10    2   15      1.57      0.00
  -10    2   14      0.74      0.00
  -10    2   13     -2.93      0.00
  -10    2   12      1.51      0.00
  -10    2   11      1.59      0.00
  -10    2   10     -2.63      0.00
  -10    2    9     -4.50      0.00
  -10    2    8     -4.43      0.00
  -10    2    7      8.87      0.00
  -10    2    6      0.30      0.00
  -10    2    5      0.26      0.00
  -10    2    4      6.00      0.00
  -10    2    3     -6.55      0.00
  -10    2    2     -1.43      0.00
  -10    2    1      0.84      0.00
   10    2    0     -8.67      0.00
   10    2    1     -2.61      0.00
   10    2    2      3.81      0.00
   10    2    3      2.33      0.00
   10    2    4     -2.15      0.00
   10    2    5      3.06      0.00
   10    2    6      1.47      0.00
   10    2    7     -4.01      0.00
   10    2    8     -3.59      0.00
   10    2    9      0.93      0.00
   10    2   10     -1.69      0.00
   10    2   11     -3.01      0.00
   10    2   12      1.05      0.00
  -10    4   20      1.03      0.00
  -10    4   19     -0.73      0.00
  -10    4   18      3.20      0.00
  -10    4   17     -3.16      0.00
  -10    4   16      0.20      0.00
  -10    4   15      0.55      0.00
  -10    4   14     -4.56      0.00
  -10    4   13      5.31      0.00
  -10    4   12      1.98      0.00
  -10    4   11      2.75      0.00
  -10    4   10      0.33      0.00
  -10    4    9     -3.05      0.00
  -10    4    8      6.02      0.00
  -10    4    7     -2.90      0.00
  -10    4    6     -5.70      0.00
  -10    4    5     -4.53      0.00
  -10    4    4     -4.24      0.00
  -10    4    3     10.08      0.00
  -10    4    2      7.60      0.00
  -10    4    1      2.87      0.00
   10    4    0     -1.69      0.00
   10    4    1      5.53      0.00
   10    4    2      0.05      0.00
   10    4    3      5.30      0.00
   10    4    4      0.30      0.00
   10    4    5      1.66      0.00
   10    4    6     -1.43      0.00
   10    4    7     -1.13      0.00
   10    4    8      3.90      0.00
   10    4    9     -3.56      0.00
   10    4   10      2.63      0.00
   10    4   11     -2.47      0.00
   10    4   12     -4.43      0.00
  -10    6   20      5.53      0.00
  -10    6   19      1.09      0.00
  -10    6   18     -4.92      0.00
  -10    6   17      0.41      0.00
  -10    6   16     -3.03      0.00
  -10    6   15     -0.26      0.00
  -10    6   14      6.46      0.00
  -10    6   13     -5.16      0.00
  -10    6   12     -2.94      0.00
  -10    6   11     -5.26      0.00
  -10    6   10     -1.49      0.00
  -10    6    9      6.60      0.00
  -10    6    8     -2.37      0.00
  -10    6    7      2.41      0.00
  -10    6    6      6.36      0.00
  -10    6    5      3.99      0.00
  -10    6    4     -7.90      0.00
  -10    6    3     -9.27      0.00
  -10    6    2      2.20      0.00
  -10    6    1     -7.66      0.00
   10    6    0     -2.41      0.00
   10    6    1     -4.92      0.00
   10    6    2     -1.18      0.00
   10    6    3     -6.33      0.00
   10    6    4      3.51      0.00
   10    6    5     -3.29      0.00
   10    6    6      2.23      0.00
   10    6    7      1.97      0.00
   10    6    8     -0.69      0.00
   10    6    9      2.21      0.00
   10    6   10      1.56      0.00
   10    6   11      2.81      0.00
  -10    8   19     -2.10      0.00
  -10    8   18      3.13      0.00
  -10    8   17     -0.99      0.00
  -10    8   16     -0.07      0.00
  -10    8   15      1.05      0.00
  -10    8   14      1.08      0.00
  -10    8   13      1.04      0.00
  -10    8   12     -0.91      0.00
  -10    8   11      3.07      0.00
  -10    8   10     -0.32      0.00
  -10    8    9     -1.20      0.00
  -10    8    8     -2.12      0.00
  -10    8    7     -6.98      0.00
  -10    8    6      0.93      0.00
  -10    8    5      2.12      0.00
  -10    8    4      5.63      0.00
  -10    8    3      4.16      0.00
  -10    8    2     -0.43      0.00
  -10    8    1      6.37      0.00
   10    8    0     -4.30      0.00
   10    8    1      1.35      0.00
   10    8    2      2.05      0.00
   10    8    3      2.78      0.00
   10    8    4     -0.11      0.00
   10    8    5      4.17      0.00
   10    8    6      1.30      0.00
   10    8    7     -5.77      0.00
   10    8    8     -1.30      0.00
   10    8    9      0.16      0.00
   10    8   10     -2.14      0.00
   10    8   11      4.19      0.00
  -10   10   18     -0.78      0.00
  -10   10   17      2.89      0.00
  -10   10   16      0.37      0.00
  -10   10   15     -2.48      0.00
  -10   10   14     -3.25      0.00
  -10   10   13     -0.65      0.00
  -10   10   12      3.25      0.00
  -10   10   11     -3.21      0.00
  -10   10   10      2.43      0.00
  -10   10    9      0.02      0.00
  -10   10    8      2.48      0.00
  -10   10    7      6.45      0.00
  -10   10    6     -2.81      0.00
  -10   10    5      2.33      0.00
  -10   10    4     -3.04      0.00
  -10   10    3     -5.24      0.00
  -10   10    2     -2.12      0.00
  -10   10    1     -4.70      0.00
   10   10    0      6.36      0.00
   10   10    1     -1.54      0.00
   10   10    2     -0.86      0.00
   10   10    3     -2.39      0.00
   10   10    4     -0.01      0.00
   10   10    5     -2.20      0.00
   10   10    6     -3.39      0.00
   10   10    7      4.60      0.00
   10   10    8      0.90      0.00
   10   10    9      2.66      0.00
   10   10   10      1.14      0.00
  -10   12   17     -0.14      0.00
  -10   12   16      2.39      0.00
  -10   12   15     -0.20      0.00
  -10   12   14      2.61      0.00
  -10   12   13      1.31      0.00
  -10   12   12     -3.55      0.00
  -10   12   11      3.64      0.00
  -10   12   10     -0.92      0.00
  -10   12    9     -3.63      0.00
  -10   12    8     -0.34      0.00
  -10   12    7     -2.00      0.00
  -10   12    6      0.25      0.00
  -10   12    5     -3.05      0.00
  -10   12    4      3.12      0.00
  -10   12    3      2.99      0.00
  -10   12    2     -0.68      0.00
  -10   12    1      1.04      0.00
   10   12    0     -0.94      0.00
   10   12    1     -4.32      0.00
   10   12    2     -2.91      0.00
   10   12    3      5.62      0.00
   10   12    4      0.57      0.00
   10   12    5     -4.26      0.00
   10   12    6      3.50      0.00
   10   12    7     -2.20      0.00
   10   12    8     -4.33      0.00
   10   12    9      2.53      0.00
  -10   14   16     -0.28      0.00
  -10   14   15      2.89      0.00
  -10   14   14     -6.49      0.00
  -10   14   13     -0.82      0.00
  -10   14   12      4.77      0.00
  -10   14   11      0.57      0.00
  -10   14   10      3.15      0.00
  -10   14    9      0.48      0.00
  -10   14    8     -1.32      0.00
  -10   14    7     -0.62      0.00
  -10   14    6      0.04      0.00
  -10   14    5     -0.49      0.00
  -10   14    4     -1.21      0.00
  -10   14    3      0.28      0.00
  -10   14    2     -4.09      0.00
  -10   14    1     -3.54      0.00
   10   14    0      5.75      0.00
   10   14    1     -2.02      0.00
   10   14    2      0.08      0.00
   10   14    3      2.48      0.00
   10   14    4      2.22      0.00
   10   14    5     -0.28      0.00
   10   14    6     -5.48      0.00
   10   14    7      3.14      0.00
  -10   16   14      0.41      0.00
  -10   16   13     -1.30      0.00
  -10   16   12     -0.20      0.00
  -10   16   11     -2.40      0.00
  -10   16   10     -5.98      0.00
  -10   16    9      2.13      0.00
  -10   16    8     -0.05      0.00
  -10   16    7      3.82      0.00
  -10   16    6      3.36      0.00
  -10   16    5     -2.28      0.00
  -10   16    4      3.06      0.00
  -10   16    3      1.91      0.00
  -10   16    2      2.30      0.00
  -10   16    1      6.01      0.00
   10   16    0     -5.09      0.00
   10   16    1      6.57      0.00
   10   16    2      1.07      0.00
   10   16    3     -2.98      0.00
   10   16    4      0.44      0.00
   10   16    5      2.77      0.00
  -10   18   11     -2.22      0.00
  -10   18   10      2.92      0.00
  -10   18    9     -1.61      0.00
  -10   18    8      3.36      0.00
  -10   18    7      0.91      0.00
  -10   18    6     -9.02      0.00
  -10   18    5      1.83      0.00
  -10   18    4     -0.72      0.00
  -10   18    3     -7.94      0.00
  -10   18    2      3.29      0.00
  -10   18    1      0.15      0.00
   10   18    0     -3.88      0.00
   10   18    1     -3.11      0.00
   10   18    2      1.91      0.00
   10   18    3     -1.97      0.00
  -11    1   20      2.07      0.00
  -11    1   19      1.07      0.00
  -11    1   18     -0.46      0.00
  -11    1   17      1.29      0.00
  -11    1   16      0.16      0.00
  -11    1   15     -4.93      0.00
  -11    1   14     -1.77      0.00
  -11    1   13      0.42      0.00
  -11    1   12      2.31      0.00
  -11    1   11     -1.86      0.00
  -11    1   10     -0.19      0.00
  -11    1    9      1.13      0.00
  -11    1    8      1.50      0.00
  -11    1    7     -1.63      0.00
  -11    1    6     -2.90      0.00
  -11    1    5     -1.57      0.00
  -11    1    4     -3.32      0.00
  -11    1    3      1.64      0.00
  -11    1    2      4.24      0.00
  -11    1    1     -6.09      0.00
   11    1    0      1.57      0.00
   11    1    1    -10.75      0.00
   11    1    2     -2.78      0.00
   11    1    3     -3.44      0.00
   11    1    4     -2.26      0.00
   11    1    5      2.53      0.00
   11    1    6      5.83      0.00
   11    1    7      4.73      0.00
   11    1    8     -0.99      0.00
   11    1    9      0.72      0.00
   11    1   10      2.55      0.00
   11    1   11     -2.33      0.00
  -11    3   20     -3.13      0.00
  -11    3   19     -1.18      0.00
  -11    3   18      0.30      0.00
  -11    3   17     -2.40      0.00
  -11    3   16      1.53      0.00
  -11    3   15      1.26      0.00
  -11    3   14      3.16      0.00
  -11    3   13      2.92      0.00
  -11    3   12     -4.77      0.00
  -11    3   11     -2.39      0.00
  -11    3   10     -3.30      0.00
  -11    3    9      2.32      0.00
  -11    3    8      0.33      0.00
  -11    3    7     -4.44      0.00
  -11    3    6      5.30      0.00
  -11    3    5     -1.67      0.00
  -11    3    4      3.10      0.00
  -11    3    3     10.37      0.00
  -11    3    2     -8.21      0.00
  -11    3    1     -1.65      0.00
   11    3    0     -3.67      0.00
   11    3    1      7.22      0.00
   11    3    2      3.11      0.00
   11    3    3     -1.35      0.00
   11    3    4      3.77      0.00
   11    3    5     -2.59      0.00
   11    3    6     -3.01      0.00
   11    3    7     -3.38      0.00
   11    3    8     -0.55      0.00
   11    3    9      0.13      0.00
   11    3   10     -1.86      0.00
   11    3   11      8.28      0.00
  -11    5   20     -0.14      0.00
  -11    5   19     -7.07      0.00
  -11    5   18     -1.81      0.00
  -11    5   17      0.41      0.00
  -11    5   16     -2.64      0.00
  -11    5   15      4.22      0.00
  -11    5   14     -1.95      0.00
  -11    5   13     -4.88      0.00
  -11    5   12      3.73      0.00
  -11    5   11      1.81      0.00
  -11    5   10      7.96      0.00
  -11    5    9      0.57      0.00
  -11    5    8     -0.95      0.00
  -11    5    7      4.69      0.00
  -11    5    6     -7.64      0.00
  -11    5    5     -6.10      0.00
  -11    5    4     -0.83      0.00
  -11    5    3     -2.35      0.00
  -11    5    2      5.86      0.00
  -11    5    1      2.97      0.00
   11    5    0      7.61      0.00
   11    5    1     -1.07      0.00
   11    5    2     -0.89      0.00
   11    5    3     -2.73      0.00
   11    5    4     -3.20      0.00
   11    5    5      1.23      0.00
   11    5    6     -0.68      0.00
   11    5    7      3.45      0.00
   11    5    8      0.52      0.00
   11    5    9     -1.19      0.00
   11    5   10     -0.06      0.00
   11    5   11     -1.83      0.00
  -11    7   19      7.65      0.00
  -11    7   18      0.73      0.00
  -11    7   17      4.83      0.00
  -11    7   16      3.08      0.00
  -11    7   15     -3.58      0.00
  -11    7   14      2.62      0.00
  -11    7   13      0.63      0.00
  -11    7   12     -3.69      0.00
  -11    7   11     -1.41      0.00
  -11    7   10     -4.99      0.00
  -11    7    9      0.76      0.00
  -11    7    8     -1.75      0.00
  -11    7    7     -2.44      0.00
  -11    7    6      8.67      0.00
  -11    7    5      7.28      0.00
  -11    7    4      0.77      0.00
  -11    7    3     -4.22      0.00
  -11    7    2     -1.98      0.00
  -11    7    1     -0.24      0.00
   11    7    0     -7.08      0.00
   11    7    1      0.08      0.00
   11    7    2     -1.91      0.00
   11    7    3      0.21      0.00
   11    7    4      1.64      0.00
   11    7    5      0.08      0.00
   11    7    6      1.58      0.00
   11    7    7      0.60      0.00
   11    7    8     -5.42      0.00
   11    7    9      1.72      0.00
   11    7   10     -1.98      0.00
  -11    9   18      2.52      0.00
  -11    9   17      1.30      0.00
  -11    9   16     -5.13      0.00
  -11    9   15     -1.43      0.00
  -11    9   14     -0.88      0.00
  -11    9   13      4.43      0.00
  -11    9   12      2.02      0.00
  -11    9   11     -0.05      0.00
  -11    9   10      3.60      0.00
  -11    9    9     -1.35      0.00
  -11    9    8      3.61      0.00
  -11    9    7     -3.05      0.00
  -11    9    6     -6.53      0.00
  -11    9    5      0.46      0.00
  -11    9    4     -3.28      0.00
  -11    9    3     -0.20      0.00
  -11    9    2      0.68      0.00
  -11    9    1      3.42      0.00
   11    9    0      7.58      0.00
   11    9    1      4.53      0.00
   11    9    2     -0.05      0.00
   11    9    3     -0.54      0.00
   11    9    4     -0.64      0.00
   11    9    5      2.68      0.00
   11    9    6     -4.03      0.00
   11    9    7     -1.47      0.00
   11    9    8      4.54      0.00
   11    9    9     -3.62      0.00
  -11   11   17      0.39      0.00
  -11   11   16      2.49      0.00
  -11   11   15     -1.49      0.00
  -11   11   14     -1.51      0.00
  -11   11   13     -2.64      0.00
  -11   11   12     -0.15      0.00
  -11   11   11      1.71      0.00
  -11   11   10     -4.35      0.00
  -11   11    9      2.21      0.00
  -11   11    8     -2.64      0.00
  -11   11    7     -1.71      0.00
  -11   11    6      2.28      0.00
  -11   11    5      0.65      0.00
  -11   11    4      5.14      0.00
  -11   11    3     -1.27      0.00
  -11   11    2     -1.45      0.00
  -11   11    1      0.65      0.00
   11   11    0     -1.37      0.00
   11   11    1     -1.33      0.00
   11   11    2     -2.70      0.00
   11   11    3     -0.77      0.00
   11   11    4      3.37      0.00
   11   11    5     -0.21      0.00
   11   11    6      1.06      0.00
   11   11    7      1.53      0.00
   11   11    8     -0.93      0.00
  -11   13   16      2.33      0.00
  -11   13   15     -1.77      0.00
  -11   13   14      0.06      0.00
  -11   13   13      6.23      0.00
  -11   13   12     -1.00      0.00
  -11   13   11     -0.41      0.00
  -11   13   10      2.55      0.00
  -11   13    9     -2.14      0.00
  -11   13    8     -0.45      0.00
  -11   13    7     -0.63      0.00
  -11   13    6     -0.24      0.00
  -11   13    5      1.95      0.00
  -11   13    4     -2.06      0.00
  -11   13    3      1.77      0.00
  -11   13    2      1.71      0.00
  -11   13    1     -0.71      0.00
   11   13    0     -2.53      0.00
   11   13    1      0.44      0.00
   11   13    2      0.97      0.00
   11   13    3      1.87      0.00
   11   13    4     -2.86      0.00
   11   13    5      1.35      0.00
   11   13    6      1.57      0.00
   11   13    7     -2.85      0.00
  -11   15   14      0.90      0.00
  -11   15   13     -4.14      0.00
  -11   15   12     -0.49      0.00
  -11   15   11     -4.12      0.00
  -11   15   10      2.31      0.00
  -11   15    9      5.80      0.00
  -11   15    8      0.37      0.00
  -11   15    7      0.90      0.00
  -11   15    6     -1.09      0.00
  -11   15    5     -2.35      0.00
  -11   15    4     -1.72      0.00
  -11   15    3      2.64      0.00
  -11   15    2      6.11      0.00
  -11   15    1     -7.77      0.00
   11   15    0     -5.89      0.00
   11   15    1     -5.06      0.00
   11   15    2      2.75      0.00
   11   15    3     -0.10      0.00
   11   15    4     -2.42      0.00
   11   15    5     -2.31      0.00
  -11   17   12     -2.23      0.00
  -11   17   11      3.08      0.00
  -11   17   10     -2.84      0.00
  -11   17    9     -2.81      0.00
  -11   17    8      0.93      0.00
  -11   17    7     -6.00      0.00
  -11   17    6      2.03      0.00
  -11   17    5      2.83      0.00
  -11   17    4     -3.39      0.00
  -11   17    3      4.81      0.00
  -11   17    2     -2.55      0.00
  -11   17    1     -1.50      0.00
   11   17    0      6.46      0.00
   11   17    1      1.48      0.00
   11   17    2     -0.08      0.00
   11   17    3     -1.24      0.00
  -11   19    7      2.78      0.00
  -11   19    6      3.59      0.00
  -11   19    5     -1.26      0.00
  -11   19    4      2.68      0.00
  -11   19    3     -2.69      0.00
  -11   19    2     -1.78      0.00
  -12    0   20      1.20      0.00
  -12    0   18     -1.13      0.00
  -12    0   16     -4.79      0.00
  -12    0   14      2.98      0.00
  -12    0   12      6.57      0.00
  -12    0   10     -4.23      0.00
  -12    0    8     -2.51      0.00
  -12    0    6      1.22      0.00
  -12    0    4      5.66      0.00
  -12    0    2      1.63      0.00
   12    0    0      7.93      0.00
   12    0    2     -4.08      0.00
   12    0    4     -7.54      0.00
   12    0    6      0.22      0.00
   12    0    8      3.64      0.00
   12    0   10      2.87      0.00
  -12    2   20     -1.94      0.00
  -12    2   19      3.13      0.00
  -12    2   18      0.45      0.00
  -12    2   17      0.22      0.00
  -12    2   16      4.03      0.00
  -12    2   15     -1.08      0.00
  -12    2   14     -2.77      0.00
  -12    2   13     -0.84      0.00
  -12    2   12     -3.81      0.00
  -12    2   11     -1.91      0.00
  -12    2   10      1.91      0.00
  -12    2    9      6.10      0.00
  -12    2    8      0.89      0.00
  -12    2    7      1.51      0.00
  -12    2    6      0.68      0.00
  -12    2    5     -3.57      0.00
  -12    2    4      0.28      0.00
  -12    2    3     -4.40      0.00
  -12    2    2     -5.07      0.00
  -12    2    1      2.97      0.00
   12    2    0     -4.89      0.00
   12    2    1     -2.68      0.00
   12    2    2      3.82      0.00
   12    2    3     -1.54      0.00
   12    2    4      3.68      0.00
   12    2    5      5.89      0.00
   12    2    6     -1.01      0.00
   12    2    7     -1.14      0.00
   12    2    8     -2.86      0.00
   12    2    9      1.24      0.00
   12    2   10     -6.00      0.00
  -12    4   20     -1.79      0.00
  -12    4   19     -4.59      0.00
  -12    4   18      2.99      0.00
  -12    4   17      0.79      0.00
  -12    4   16     -0.87      0.00
  -12    4   15      3.27      0.00
  -12    4   14      0.84      0.00
  -12    4   13      5.03      0.00
  -12    4   12      2.56      0.00
  -12    4   11     -1.27      0.00
  -12    4   10      2.07      0.00
  -12    4    9     -6.43      0.00
  -12    4    8     -2.78      0.00
  -12    4    7     -3.89      0.00
  -12    4    6     -2.35      0.00
  -12    4    5      8.17      0.00
  -12    4    4     -1.32      0.00
  -12    4    3      5.19      0.00
  -12    4    2      5.69      0.00
  -12    4    1     -3.95      0.00
   12    4    0     -0.07      0.00
   12    4    1      9.19      0.00
   12    4    2     -0.92      0.00
   12    4    3      0.04      0.00
   12    4    4     -2.08      0.00
   12    4    5     -5.02      0.00
   12    4    6      0.41      0.00
   12    4    7     -2.10      0.00
   12    4    8      2.70      0.00
   12    4    9      1.56      0.00
   12    4   10      4.34      0.00
  -12    6   19      2.09      0.00
  -12    6   18      1.96      0.00
  -12    6   17     -0.84      0.00
  -12    6   16     -5.34      0.00
  -12    6   15     -1.54      0.00
  -12    6   14     -1.34      0.00
  -12    6   13     -7.23      0.00
  -12    6   12     -4.45      0.00
  -12    6   11      2.55      0.00
  -12    6   10      0.13      0.00
  -12    6    9      2.04      0.00
  -12    6    8      0.07      0.00
  -12    6    7      8.26      0.00
  -12    6    6      6.47      0.00
  -12    6    5    -10.32      0.00
  -12    6    4     -4.39      0.00
  -12    6    3     -3.28      0.00
  -12    6    2     -1.76      0.00
  -12    6    1      1.86      0.00
   12    6    0     -0.87      0.00
   12    6    1     -6.12      0.00
   12    6    2      2.82      0.00
   12    6    3     -1.14      0.00
   12    6    4     -0.22      0.00
   12    6    5      4.21      0.00
   12    6    6      0.95      0.00
   12    6    7      2.28      0.00
   12    6    8     -1.95      0.00
   12    6    9     -2.03      0.00
  -12    8   19      1.14      0.00
  -12    8   18     -1.22      0.00
  -12    8   17     -3.36      0.00
  -12    8   16      3.84      0.00
  -12    8   15     -0.97      0.00
  -12    8   14      3.34      0.00
  -12    8   13      7.31      0.00
  -12    8   12      0.15      0.00
  -12    8   11     -1.24      0.00
  -12    8   10     -1.50      0.00
  -12    8    9     -1.19      0.00
  -12    8    8      0.52      0.00
  -12    8    7     -5.09      0.00
  -12    8    6      0.06      0.00
  -12    8    5      5.70      0.00
  -12    8    4      0.04      0.00
  -12    8    3      1.04      0.00
  -12    8    2     -1.24      0.00
  -12    8    1      2.70      0.00
   12    8    0     -0.22      0.00
   12    8    1      3.31      0.00
   12    8    2      0.93      0.00
   12    8    3      1.85      0.00
   12    8    4     -1.13      0.00
   12    8    5     -1.90      0.00
   12    8    6      1.38      0.00
   12    8    7     -4.42      0.00
   12    8    8      1.38      0.00
   12    8    9      1.81      0.00
  -12   10   18     -3.89      0.00
  -12   10   17      2.40      0.00
  -12   10   16     -0.62      0.00
  -12   10   15     -3.49      0.00
  -12   10   14      0.00      0.00
  -12   10   13     -2.38      0.00
  -12   10   12      3.23      0.00
  -12   10   11     -0.27      0.00
  -12   10   10      0.21      0.00
  -12   10    9      1.89      0.00
  -12   10    8     -4.61      0.00
  -12   10    7      3.57      0.00
  -12   10    6     -0.56      0.00
  -12   10    5     -1.93      0.00
  -12   10    4      4.56      0.00
  -12   10    3     -1.83      0.00
  -12   10    2      1.00      0.00
  -12   10    1     -1.73      0.00
   12   10    0      1.47      0.00
   12   10    1     -2.33      0.00
   12   10    2     -3.29      0.00
   12   10    3     -1.33      0.00
   12   10    4      0.84      0.00
   12   10    5     -0.21      0.00
   12   10    6      0.34      0.00
   12   10    7      2.29      0.00
   12   10    8     -0.47      0.00
  -12   12   17      1.94      0.00
  -12   12   16      3.47      0.00
  -12   12   15      1.95      0.00
  -12   12   14     -0.44      0.00
  -12   12   13     -0.77      0.00
  -12   12   12     -2.51      0.00
  -12   12   11     -0.34      0.00
  -12   12   10      1.10      0.00
  -12   12    9     -1.12      0.00
  -12   12    8      3.77      0.00
  -12   12    7     -0.48      0.00
  -12   12    6     -0.60      0.00
  -12   12    5      0.42      0.00
  -12   12    4     -0.51      0.00
  -12   12    3      2.53      0.00
  -12   12    2     -7.14      0.00
  -12   12    1     -3.77      0.00
   12   12    0      1.55      0.00
   12   12    1     -1.06      0.00
   12   12    2      0.42      0.00
   12   12    3      1.38      0.00
   12   12    4      2.89      0.00
   12   12    5     -4.34      0.00
   12   12    6     -2.48      0.00
   12   12    7      0.81      0.00
  -12   14   15      0.14      0.00
  -12   14   14     -2.19      0.00
  -12   14   13      1.64      0.00
  -12   14   12      0.38      0.00
  -12   14   11     -0.95      0.00
  -12   14   10      2.16      0.00
  -12   14    9      0.43      0.00
  -12   14    8     -0.11      0.00
  -12   14    7     -1.16      0.00
  -12   14    6     -1.78      0.00
  -12   14    5     -2.45      0.00
  -12   14    4     -0.06      0.00
  -12   14    3      1.07      0.00
  -12   14    2      2.66      0.00
  -12   14    1      0.94      0.00
   12   14    0      1.54      0.00
   12   14    1     -0.21      0.00
   12   14    2      2.37      0.00
   12   14    3      0.86      0.00
   12   14    4     -1.96      0.00
   12   14    5      0.76      0.00
  -12   16   13     -1.50      0.00
  -12   16   12      0.54      0.00
  -12   16   11     -2.48      0.00
  -12   16   10     -3.58      0.00
  -12   16    9      5.24      0.00
  -12   16    8      1.09      0.00
  -12   16    7      1.71      0.00
  -12   16    6      3.23      0.00
  -12   16    5     -2.01      0.00
  -12   16    4     -1.46      0.00
  -12   16    3     -2.43      0.00
  -12   16    2      1.26      0.00
  -12   16    1      5.66      0.00
   12   16    0     -5.95      0.00
   12   16    1     -0.14      0.00
   12   16    2      4.26      0.00
   12   16    3      2.95      0.00
  -12   18    9     -3.15      0.00
  -12   18    8     -0.16      0.00
  -12   18    7      1.90      0.00
  -12   18    6     -4.43      0.00
  -12   18    5      0.97      0.00
  -12   18    4     -0.46      0.00
  -12   18    3     -2.01      0.00
  -12   18    2      5.13      0.00
  -12   18    1     -2.18      0.00
  -13    1   20      1.41      0.00
  -13    1   19      0.75      0.00
  -13    1   18     -1.40      0.00
  -13    1   17      0.74      0.00
  -13    1   16     -1.65      0.00
  -13    1   15     -3.14      0.00
  -13    1   14      3.44      0.00
  -13    1   13     -4.15      0.00
  -13    1   12     -2.91      0.00
  -13    1   11      7.90      0.00
  -13    1   10      2.11      0.00
  -13    1    9      2.18      0.00
  -13    1    8     -0.34      0.00
  -13    1    7     -3.99      0.00
  -13    1    6     -2.24      0.00
  -13    1    5     -3.32      0.00
  -13    1    4      1.36      0.00
  -13    1    3     -0.22      0.00
  -13    1    2      2.41      0.00
  -13    1    1      3.32      0.00
   13    1    0     -3.25      0.00
   13    1    1     -6.20      0.00
   13    1    2      1.49      0.00
   13    1    3     -0.61      0.00
   13    1    4      0.18      0.00
   13    1    5      5.66      0.00
   13    1    6      1.07      0.00
   13    1    7      2.16      0.00
   13    1    8     -1.27      0.00
   13    1    9     -0.07      0.00
  -13    3   20     -4.60      0.00
  -13    3   19      0.43      0.00
  -13    3   18      2.69      0.00
  -13    3   17     -1.01      0.00
  -13    3   16      3.79      0.00
  -13    3   15      4.42      0.00
  -13    3   14     -3.88      0.00
  -13    3   13     -3.05      0.00
  -13    3   12     -1.36      0.00
  -13    3   11     -0.20      0.00
  -13    3   10     -2.84      0.00
  -13    3    9     -3.11      0.00
  -13    3    8      2.91      0.00
  -13    3    7      1.56      0.00
  -13    3    6      4.11      0.00
  -13    3    5      2.17      0.00
  -13    3    4     -4.36      0.00
  -13    3    3      1.24      0.00
  -13    3    2     -5.00      0.00
  -13    3    1     -5.70      0.00
   13    3    0     -0.14      0.00
   13    3    1     -1.31      0.00
   13    3    2      2.21      0.00
   13    3    3     -2.22      0.00
   13    3    4      3.63      0.00
   13    3    5     -0.94      0.00
   13    3    6     -1.32      0.00
   13    3    7     -0.65      0.00
   13    3    8     -1.96      0.00
   13    3    9     -0.33      0.00
  -13    5   19     -1.81      0.00
  -13    5   18     -3.24      0.00
  -13    5   17     -1.07      0.00
  -13    5   16     -1.85      0.00
  -13    5   15     -4.92      0.00
  -13    5   14     -1.33      0.00
  -13    5   13      0.18      0.00
  -13    5   12      8.90      0.00
  -13    5   11      2.00      0.00
  -13    5   10      0.70      0.00
  -13    5    9      4.13      0.00
  -13    5    8     -1.40      0.00
  -13    5    7     -0.66      0.00
  -13    5    6     -7.10      0.00
  -13    5    5     -3.56      0.00
  -13    5    4      4.73      0.00
  -13    5    3      0.41      0.00
  -13    5    2      9.09      0.00
  -13    5    1      2.71      0.00
   13    5    0      2.91      0.00
   13    5    1     -1.53      0.00
   13    5    2     -6.45      0.00
   13    5    3      2.24      0.00
   13    5    4     -4.92      0.00
   13    5    5      0.91      0.00
   13    5    6      2.73      0.00
   13    5    7      0.13      0.00
   13    5    8      3.30      0.00
   13    5    9     -1.19      0.00
  -13    7   19     -1.52      0.00
  -13    7   18      1.47      0.00
  -13    7   17      6.14      0.00
  -13    7   16     -2.92      0.00
  -13    7   15      3.39      0.00
  -13    7   14      6.07      0.00
  -13    7   13      1.00      0.00
  -13    7   12     -6.80      0.00
  -13    7   11     -2.29      0.00
  -13    7   10      1.09      0.00
  -13    7    9     -1.64      0.00
  -13    7    8     -1.46      0.00
  -13    7    7     -0.22      0.00
  -13    7    6      6.73      0.00
  -13    7    5      1.33      0.00
  -13    7    4     -6.67      0.00
  -13    7    3     -0.46      0.00
  -13    7    2     -3.37      0.00
  -13    7    1      1.06      0.00
   13    7    0     -1.89      0.00
   13    7    1      1.74      0.00
   13    7    2      2.39      0.00
   13    7    3     -0.12      0.00
   13    7    4      2.44      0.00
   13    7    5      0.36      0.00
   13    7    6     -2.52      0.00
   13    7    7     -1.42      0.00
   13    7    8     -4.60      0.00
  -13    9   18      0.78      0.00
  -13    9   17     -1.47      0.00
  -13    9   16     -0.28      0.00
  -13    9   15      0.98      0.00
  -13    9   14     -1.97      0.00
  -13    9   13      0.77      0.00
  -13    9   12      3.97      0.00
  -13    9   11     -2.44      0.00
  -13    9   10      2.58      0.00
  -13    9    9     -3.34      0.00
  -13    9    8     -3.45      0.00
  -13    9    7     -0.04      0.00
  -13    9    6     -2.95      0.00
  -13    9    5      5.97      0.00
  -13    9    4      5.65      0.00
  -13    9    3     -1.64      0.00
  -13    9    2      0.89      0.00
  -13    9    1     -2.50      0.00
   13    9    0      1.54      0.00
   13    9    1      2.37      0.00
   13    9    2     -1.78      0.00
   13    9    3     -2.61      0.00
   13    9    4      0.75      0.00
   13    9    5      1.03      0.00
   13    9    6      0.80      0.00
   13    9    7     -0.80      0.00
  -13   11   17      0.43      0.00
  -13   11   16      0.97      0.00
  -13   11   15     -2.51      0.00
  -13   11   14     -4.17      0.00
  -13   11   13     -0.64      0.00
  -13   11   12     -3.75      0.00
  -13   11   11      5.38      0.00
  -13   11   10     -0.26      0.00
  -13   11    9      2.58      0.00
  -13   11    8      2.33      0.00
  -13   11    7     -3.67      0.00
  -13   11    6      1.71      0.00
  -13   11    5     -4.44      0.00
  -13   11    4     -1.96      0.00
  -13   11    3      0.79      0.00
  -13   11    2     -3.03      0.00
  -13   11    1      2.65      0.00
   13   11    0      1.15      0.00
   13   11    1     -2.38      0.00
   13   11    2     -0.88      0.00
   13   11    3     -0.80      0.00
   13   11    4      1.60      0.00
   13   11    5      4.20      0.00
   13   11    6     -2.00      0.00
  -13   13   15      3.43      0.00
  -13   13   14      2.21      0.00
  -13   13   13     -0.10      0.00
  -13   13   12      0.75      0.00
  -13   13   11     -3.24      0.00
  -13   13   10     -0.42      0.00
  -13   13    9      1.33      0.00
  -13   13    8     -1.20      0.00
  -13   13    7      2.28      0.00
  -13   13    6     -2.91      0.00
  -13   13    5     -1.31      0.00
  -13   13    4      2.20      0.00
  -13   13    3      6.72      0.00
  -13   13    2      4.62      0.00
  -13   13    1     -5.98      0.00
   13   13    0     -1.80      0.00
   13   13    1     -1.12      0.00
   13   13    2     -0.62      0.00
   13   13    3      3.28      0.00
   13   13    4     -1.89      0.00
   13   13    5     -2.58      0.00
  -13   15   13     -0.23      0.00
  -13   15   12     -0.06      0.00
  -13   15   11      1.57      0.00
  -13   15   10      2.70      0.00
  -13   15    9     -0.50      0.00
  -13   15    8      1.37      0.00
  -13   15    7     -2.68      0.00
  -13   15    6     -2.35      0.00
  -13   15    5      1.95      0.00
  -13   15    4     -0.23      0.00
  -13   15    3     -2.13      0.00
  -13   15    2     -0.11      0.00
  -13   15    1     -1.31      0.00
   13   15    0     -0.81      0.00
   13   15    1     -2.43      0.00
   13   15    2     -2.48      0.00
   13   15    3     -0.04      0.00
  -13   17   10     -6.48      0.00
  -13   17    9     -2.01      0.00
  -13   17    8      2.33      0.00
  -13   17    7     -1.55      0.00
  -13   17    6      3.53      0.00
  -13   17    5      6.72      0.00
  -13   17    4     -2.49      0.00
  -13   17    3     -0.70      0.00
  -13   17    2      0.56      0.00
  -13   17    1      0.16      0.00
  -14    0   20      0.72      0.00
  -14    0   18      1.47      0.00
  -14    0   16      1.01      0.00
  -14    0   14     -1.73      0.00
  -14    0   12      6.57      0.00
  -14    0   10      2.71      0.00
  -14    0    8     -4.23      0.00
  -14    0    6     -1.29      0.00
  -14    0    4      4.21      0.00
  -14    0    2      4.37      0.00
   14    0    0      1.33      0.00
   14    0    2     -4.22      0.00
   14    0    4     -4.50      0.00
   14    0    6      2.42      0.00
   14    0    8      2.44      0.00
  -14    2   20     -1.63      0.00
  -14    2   19      3.30      0.00
  -14    2   18      0.58      0.00
  -14    2   17      1.56      0.00
  -14    2   16     -0.51      0.00
  -14    2   15     -5.77      0.00
  -14    2   14     -2.78      0.00
  -14    2   13      5.63      0.00
  -14    2   12     -1.07      0.00
  -14    2   11      3.04      0.00
  -14    2   10     -0.67      0.00
  -14    2    9     -2.83      0.00
  -14    2    8      1.85      0.00
  -14    2    7     -1.35      0.00
  -14    2    6     -0.42      0.00
  -14    2    5     -2.65      0.00
  -14    2    4     -3.05      0.00
  -14    2    3      2.94      0.00
  -14    2    2     -4.77      0.00
  -14    2    1      5.26      0.00
   14    2    0      4.84      0.00
   14    2    1      3.91      0.00
   14    2    2      2.98      0.00
   14    2    3      2.24      0.00
   14    2    4     -2.63      0.00
   14    2    5     -1.38      0.00
   14    2    6     -1.01      0.00
   14    2    7     -1.60      0.00
   14    2    8     -2.97      0.00
  -14    4   19     -0.69      0.00
  -14    4   18      1.35      0.00
  -14    4   17     -1.80      0.00
  -14    4   16     -2.21      0.00
  -14    4   15      3.42      0.00
  -14    4   14      5.85      0.00
  -14    4   13      0.88      0.00
  -14    4   12     -0.50      0.00
  -14    4   11     -4.70      0.00
  -14    4   10     -0.99      0.00
  -14    4    9     -3.64      0.00
  -14    4    8     -1.60      0.00
  -14    4    7      3.59      0.00
  -14    4    6      1.55      0.00
  -14    4    5      4.83      0.00
  -14    4    4      4.39      0.00
  -14    4    3     -0.19      0.00
  -14    4    2      1.22      0.00
  -14    4    1     -6.85      0.00
   14    4    0     -4.59      0.00
   14    4    1      2.36      0.00
   14    4    2     -2.42      0.00
   14    4    3      0.18      0.00
   14    4    4      3.44      0.00
   14    4    5     -3.20      0.00
   14    4    6      2.92      0.00
   14    4    7     -0.59      0.00
   14    4    8      0.71      0.00
  -14    6   19      0.93      0.00
  -14    6   18     -0.40      0.00
  -14    6   17     -3.15      0.00
  -14    6   16      3.33      0.00
  -14    6   15      2.88      0.00
  -14    6   14     -2.77      0.00
  -14    6   13     -4.37      0.00
  -14    6   12     -4.94      0.00
  -14    6   11      3.60      0.00
  -14    6   10     -1.15      0.00
  -14    6    9      2.99      0.00
  -14    6    8      3.77      0.00
  -14    6    7     -0.73      0.00
  -14    6    6     -0.12      0.00
  -14    6    5     -6.06      0.00
  -14    6    4     -3.15      0.00
  -14    6    3     -1.14      0.00
  -14    6    2     -0.66      0.00
  -14    6    1      5.50      0.00
   14    6    0     -0.56      0.00
   14    6    1     -4.18      0.00
   14    6    2      2.11      0.00
   14    6    3      0.94      0.00
   14    6    4     -1.22      0.00
   14    6    5      3.46      0.00
   14    6    6      0.63      0.00
   14    6    7      0.75      0.00
  -14    8   18     -2.52      0.00
  -14    8   17      4.52      0.00
  -14    8   16      0.84      0.00
  -14    8   15     -3.38      0.00
  -14    8   14     -0.14      0.00
  -14    8   13      2.05      0.00
  -14    8   12     -1.16      0.00
  -14    8   11     -0.18      0.00
  -14    8   10      2.17      0.00
  -14    8    9     -4.71      0.00
  -14    8    8     -1.66      0.00
  -14    8    7      1.62      0.00
  -14    8    6      3.86      0.00
  -14    8    5      7.64      0.00
  -14    8    4     -1.92      0.00
  -14    8    3     -3.12      0.00
  -14    8    2     -0.65      0.00
  -14    8    1     -2.75      0.00
   14    8    0      0.92      0.00
   14    8    1      2.50      0.00
   14    8    2      3.05      0.00
   14    8    3     -3.38      0.00
   14    8    4     -0.80      0.00
   14    8    5     -2.08      0.00
   14    8    6     -0.74      0.00
   14    8    7      1.23      0.00
  -14   10   17     -1.89      0.00
  -14   10   16     -0.40      0.00
  -14   10   15     -4.37      0.00
  -14   10   14      1.68      0.00
  -14   10   13     -0.85      0.00
  -14   10   12      4.25      0.00
  -14   10   11      1.83      0.00
  -14   10   10     -1.23      0.00
  -14   10    9      7.57      0.00
  -14   10    8     -1.52      0.00
  -14   10    7     -2.67      0.00
  -14   10    6     -3.41      0.00
  -14   10    5     -4.60      0.00
  -14   10    4      5.39      0.00
  -14   10    3      1.16      0.00
  -14   10    2     -2.41      0.00
  -14   10    1      3.06      0.00
   14   10    0      0.86      0.00
   14   10    1      0.51      0.00
   14   10    2     -1.48      0.00
   14   10    3      1.30      0.00
   14   10    4     -0.07      0.00
   14   10    5     -0.01      0.00
  -14   12   16      2.31      0.00
  -14   12   15      2.62      0.00
  -14   12   14     -1.70      0.00
  -14   12   13      0.13      0.00
  -14   12   12     -4.20      0.00
  -14   12   11     -4.41      0.00
  -14   12   10      4.65      0.00
  -14   12    9     -0.01      0.00
  -14   12    8      0.57      0.00
  -14   12    7     -0.71      0.00
  -14   12    6     -1.11      0.00
  -14   12    5     -0.56      0.00
  -14   12    4     -1.59      0.00
  -14   12    3      3.11      0.00
  -14   12    2     -2.28      0.00
  -14   12    1     -1.86      0.00
   14   12    0      2.02      0.00
   14   12    1     -1.50      0.00
   14   12    2     -0.82      0.00
   14   12    3      0.74      0.00
   14   12    4      2.72      0.00
  -14   14   14      1.95      0.00
  -14   14   13      0.40      0.00
  -14   14   12      3.90      0.00
  -14   14   11      0.36      0.00
  -14   14   10     -3.54      0.00
  -14   14    9      1.96      0.00
  -14   14    8     -2.94      0.00
  -14   14    7     -0.66      0.00
  -14   14    6      6.19      0.00
  -14   14    5     -1.69      0.00
  -14   14    4     -2.59      0.00
  -14   14    3     -1.54      0.00
  -14   14    2      2.90      0.00
  -14   14    1     -0.79      0.00
   14   14    0     -0.66      0.00
   14   14    1     -0.02      0.00
   14   14    2      0.20      0.00
  -14   16   11     -4.09      0.00
  -14   16   10      2.90      0.00
  -14   16    9      1.51      0.00
  -14   16    8      1.50      0.00
  -14   16    7      4.62      0.00
  -14   16    6      0.60      0.00
  -14   16    5     -2.78      0.00
  -14   16    4     -2.86      0.00
  -14   16    3      2.01      0.00
  -14   16    2     -0.71      0.00
  -14   16    1      2.97      0.00
  -15    1   19     -0.69      0.00
  -15    1   18     -0.82      0.00
  -15    1   17     -0.49      0.00
  -15    1   16     -1.17      0.00
  -15    1   15      2.32      0.00
  -15    1   14      3.72      0.00
  -15    1   13      0.91      0.00
  -15    1   12      1.49      0.00
  -15    1   11     -3.09      0.00
  -15    1   10     -6.05      0.00
  -15    1    9      0.93      0.00
  -15    1    8     -0.03      0.00
  -15    1    7      2.59      0.00
  -15    1    6      2.02      0.00
  -15    1    5     -0.73      0.00
  -15    1    4      3.83      0.00
  -15    1    3     -0.42      0.00
  -15    1    2     -1.15      0.00
  -15    1    1      4.49      0.00
   15    1    0     -3.81      0.00
   15    1    1     -0.35      0.00
   15    1    2     -0.22      0.00
   15    1    3      3.29      0.00
   15    1    4      3.01      0.00
   15    1    5      0.10      0.00
   15    1    6      1.63      0.00
   15    1    7     -0.00      0.00
  -15    3   19     -0.45      0.00
  -15    3   18     -1.47      0.00
  -15    3   17      2.32      0.00
  -15    3   16      1.33      0.00
  -15    3   15     -0.86      0.00
  -15    3   14     -6.42      0.00
  -15    3   13     -4.12      0.00
  -15    3   12     -2.63      0.00
  -15    3   11     -0.87      0.00
  -15    3   10      6.39      0.00
  -15    3    9      3.11      0.00
  -15    3    8      3.55      0.00
  -15    3    7      2.77      0.00
  -15    3    6     -3.06      0.00
  -15    3    5     -1.01      0.00
  -15    3    4     -6.14      0.00
  -15    3    3     -3.04      0.00
  -15    3    2     -1.89      0.00
  -15    3    1     -5.05      0.00
   15    3    0      6.16      0.00
   15    3    1     -3.40      0.00
   15    3    2      1.61      0.00
   15    3    3     -5.55      0.00
   15    3    4     -2.89      0.00
   15    3    5      0.90      0.00
   15    3    6     -1.32      0.00
   15    3    7      1.09      0.00
  -15    5   18      2.10      0.00
  -15    5   17      1.54      0.00
  -15    5   16      1.44      0.00
  -15    5   15     -1.90      0.00
  -15    5   14      1.80      0.00
  -15    5   13     -0.35      0.00
  -15    5   12      2.93      0.00
  -15    5   11      4.90      0.00
  -15    5   10      1.58      0.00
  -15    5    9     -0.31      0.00
  -15    5    8     -6.35      0.00
  -15    5    7     -3.26      0.00
  -15    5    6      0.89      0.00
  -15    5    5     -2.55      0.00
  -15    5    4      3.29      0.00
  -15    5    3      4.10      0.00
  -15    5    2      6.07      0.00
  -15    5    1      0.44      0.00
   15    5    0     -3.86      0.00
   15    5    1     -2.01      0.00
   15    5    2     -1.90      0.00
   15    5    3      4.26      0.00
   15    5    4      0.57      0.00
   15    5    5      0.22      0.00
   15    5    6      0.50      0.00
  -15    7   18      2.89      0.00
  -15    7   17     -1.33      0.00
  -15    7   16     -3.81      0.00
  -15    7   15      0.47      0.00
  -15    7   14     -0.68      0.00
  -15    7   13      2.28      0.00
  -15    7   12      1.92      0.00
  -15    7   11      0.60      0.00
  -15    7   10     -4.56      0.00
  -15    7    9     -5.18      0.00
  -15    7    8      3.38      0.00
  -15    7    7      3.31      0.00
  -15    7    6      0.79      0.00
  -15    7    5      1.57      0.00
  -15    7    4     -3.36      0.00
  -15    7    3     -0.36      0.00
  -15    7    2     -2.37      0.00
  -15    7    1      1.16      0.00
   15    7    0      0.60      0.00
   15    7    1      0.16      0.00
   15    7    2      2.66      0.00
   15    7    3      0.03      0.00
   15    7    4     -1.80      0.00
   15    7    5      3.14      0.00
   15    7    6     -2.63      0.00
  -15    9   17      0.77      0.00
  -15    9   16      0.58      0.00
  -15    9   15      1.24      0.00
  -15    9   14      2.97      0.00
  -15    9   13      1.66      0.00
  -15    9   12     -0.12      0.00
  -15    9   11     -4.87      0.00
  -15    9   10      7.42      0.00
  -15    9    9      2.74      0.00
  -15    9    8     -5.97      0.00
  -15    9    7     -3.96      0.00
  -15    9    6     -1.72      0.00
  -15    9    5      2.72      0.00
  -15    9    4      4.20      0.00
  -15    9    3     -5.06      0.00
  -15    9    2      2.63      0.00
  -15    9    1      2.16      0.00
   15    9    0     -3.59      0.00
   15    9    1      2.99      0.00
   15    9    2     -1.63      0.00
   15    9    3     -1.85      0.00
   15    9    4      2.72      0.00
   15    9    5      1.41      0.00
  -15   11   16     -0.13      0.00
  -15   11   15     -1.36      0.00
  -15   11   14     -2.90      0.00
  -15   11   13      0.42      0.00
  -15   11   12     -5.28      0.00
  -15   11   11      2.58      0.00
  -15   11   10      0.04      0.00
  -15   11    9     -3.28      0.00
  -15   11    8      0.39      0.00
  -15   11    7      1.55      0.00
  -15   11    6     -3.20      0.00
  -15   11    5     -1.72      0.00
  -15   11    4      2.84      0.00
  -15   11    3      6.03      0.00
  -15   11    2      1.49      0.00
  -15   11    1     -0.79      0.00
   15   11    0      0.71      0.00
   15   11    1     -0.35      0.00
   15   11    2     -0.63      0.00
   15   11    3      0.52      0.00
  -15   13   14      2.47      0.00
  -15   13   13      2.13      0.00
  -15   13   12      0.59      0.00
  -15   13   11     -4.22      0.00
  -15   13   10     -0.02      0.00
  -15   13    9      1.54      0.00
  -15   13    8      1.28      0.00
  -15   13    7      2.69      0.00
  -15   13    6      3.95      0.00
  -15   13    5      1.23      0.00
  -15   13    4     -4.76      0.00
  -15   13    3     -2.87      0.00
  -15   13    2     -1.53      0.00
  -15   13    1     -4.02      0.00
   15   13    0      0.12      0.00
   15   13    1     -1.03      0.00
   15   13    2     -0.22      0.00
  -15   15   11      4.43      0.00
  -15   15   10     -2.28      0.00
  -15   15    9      0.41      0.00
  -15   15    8      1.44      0.00
  -15   15    7     -2.81      0.00
  -15   15    6      1.26      0.00
  -15   15    5     -1.64      0.00
  -15   15    4     -1.77      0.00
  -15   15    3      2.08      0.00
  -15   15    2      5.08      0.00
  -15   15    1      2.19      0.00
  -16    0   18      4.41      0.00
  -16    0   16      1.93      0.00
  -16    0   14      0.77      0.00
  -16    0   12     -5.57      0.00
  -16    0   10      0.77      0.00
  -16    0    8      6.06      0.00
  -16    0    6      0.55      0.00
  -16    0    4     -1.91      0.00
  -16    0    2      1.13      0.00
   16    0    0     -1.52      0.00
   16    0    2     -3.17      0.00
   16    0    4      3.48      0.00
   16    0    6      3.26      0.00
  -16    2   19      0.78      0.00
  -16    2   18      0.13      0.00
  -16    2   17     -1.60      0.00
  -16    2   16     -5.54      0.00
  -16    2   15     -2.41      0.00
  -16    2   14     -0.60      0.00
  -16    2   13      1.99      0.00
  -16    2   12      5.05      0.00
  -16    2   11      7.17      0.00
  -16    2   10      1.42      0.00
  -16    2    9     -3.27      0.00
  -16    2    8     -3.27      0.00
  -16    2    7     -2.91      0.00
  -16    2    6     -3.55      0.00
  -16    2    5     -2.57      0.00
  -16    2    4     -0.04      0.00
  -16    2    3      6.60      0.00
  -16    2    2     -0.65      0.00
  -16    2    1      2.12      0.00
   16    2    0      6.59      0.00
   16    2    1      2.05      0.00
   16    2    2     -0.82      0.00
   16    2    3      3.05      0.00
   16    2    4     -4.54      0.00
   16    2    5     -0.05      0.00
   16    2    6     -1.66      0.00
  -16    4   18     -0.73      0.00
  -16    4   17      0.17      0.00
  -16    4   16      5.67      0.00
  -16    4   15      2.79      0.00
  -16    4   14      1.47      0.00
  -16    4   13     -2.59      0.00
  -16    4   12      0.31      0.00
  -16    4   11     -4.64      0.00
  -16    4   10     -5.06      0.00
  -16    4    9     -1.47      0.00
  -16    4    8      0.21      0.00
  -16    4    7      3.33      0.00
  -16    4    6      3.92      0.00
  -16    4    5      0.65      0.00
  -16    4    4      2.57      0.00
  -16    4    3     -0.67      0.00
  -16    4    2     -2.45      0.00
  -16    4    1     -7.17      0.00
   16    4    0     -1.21      0.00
   16    4    1     -1.21      0.00
   16    4    2     -1.99      0.00
   16    4    3     -4.18      0.00
   16    4    4      2.44      0.00
   16    4    5      2.09      0.00
  -16    6   18     -3.44      0.00
  -16    6   17     -0.27      0.00
  -16    6   16     -1.30      0.00
  -16    6   15      1.00      0.00
  -16    6   14      0.93      0.00
  -16    6   13      1.89      0.00
  -16    6   12     -5.90      0.00
  -16    6   11     -2.70      0.00
  -16    6   10      0.04      0.00
  -16    6    9      3.27      0.00
  -16    6    8      2.53      0.00
  -16    6    7     -0.74      0.00
  -16    6    6      2.30      0.00
  -16    6    5      0.91      0.00
  -16    6    4     -4.17      0.00
  -16    6    3      0.80      0.00
  -16    6    2      2.63      0.00
  -16    6    1      3.30      0.00
   16    6    0     -3.55      0.00
   16    6    1      1.98      0.00
   16    6    2      2.61      0.00
   16    6    3      2.03      0.00
   16    6    4     -2.07      0.00
   16    6    5     -1.60      0.00
  -16    8   17      0.61      0.00
  -16    8   16      1.78      0.00
  -16    8   15      1.85      0.00
  -16    8   14     -1.78      0.00
  -16    8   13     -5.59      0.00
  -16    8   12     -1.99      0.00
  -16    8   11      7.90      0.00
  -16    8   10      6.08      0.00
  -16    8    9     -5.06      0.00
  -16    8    8     -3.63      0.00
  -16    8    7      1.35      0.00
  -16    8    6      0.77      0.00
  -16    8    5     -1.85      0.00
  -16    8    4     -1.24      0.00
  -16    8    3     -1.33      0.00
  -16    8    2      1.74      0.00
  -16    8    1     -2.92      0.00
   16    8    0     -1.83      0.00
   16    8    1     -1.50      0.00
   16    8    2      2.41      0.00
   16    8    3     -4.12      0.00
   16    8    4      1.25      0.00
  -16   10   16     -0.27      0.00
  -16   10   15     -1.70      0.00
  -16   10   14      1.66      0.00
  -16   10   13     -0.73      0.00
  -16   10   12     -0.13      0.00
  -16   10   11      0.05      0.00
  -16   10   10     -3.06      0.00
  -16   10    9      2.26      0.00
  -16   10    8      5.53      0.00
  -16   10    7     -0.17      0.00
  -16   10    6     -2.50      0.00
  -16   10    5      2.95      0.00
  -16   10    4      1.43      0.00
  -16   10    3      2.97      0.00
  -16   10    2     -2.69      0.00
  -16   10    1      1.03      0.00
   16   10    0      3.49      0.00
   16   10    1      1.29      0.00
   16   10    2     -1.58      0.00
   16   10    3      2.17      0.00
  -16   12   14     -1.91      0.00
  -16   12   13     -0.60      0.00
  -16   12   12      1.22      0.00
  -16   12   11     -1.86      0.00
  -16   12   10      2.44      0.00
  -16   12    9      4.22      0.00
  -16   12    8     -2.91      0.00
  -16   12    7      1.37      0.00
  -16   12    6      0.41      0.00
  -16   12    5    -11.07      0.00
  -16   12    4     -3.46      0.00
  -16   12    3     -1.16      0.00
  -16   12    2     -2.06      0.00
  -16   12    1      2.43      0.00
   16   12    0      2.56      0.00
   16   12    1     -0.14      0.00
  -16   14   11     -2.26      0.00
  -16   14   10     -1.17      0.00
  -16   14    9     -0.44      0.00
  -16   14    8      0.30      0.00
  -16   14    7      0.37      0.00
  -16   14    6     -2.41      0.00
  -16   14    5      2.19      0.00
  -16   14    4      6.42      0.00
  -16   14    3      4.44      0.00
  -16   14    2      1.90      0.00
  -17    1   18     -2.14      0.00
  -17    1   17      1.05      0.00
  -17    1   16      0.41      0.00
  -17    1   15      2.02      0.00
  -17    1   14      0.91      0.00
  -17    1   13      5.47      0.00
  -17    1   12      0.69      0.00
  -17    1   11     -1.21      0.00
  -17    1   10     -2.85      0.00
  -17    1    9     -2.82      0.00
  -17    1    8      2.37      0.00
  -17    1    7      0.11      0.00
  -17    1    6     -1.62      0.00
  -17    1    5      3.35      0.00
  -17    1    4      4.49      0.00
  -17    1    3      1.86      0.00
  -17    1    2     -3.36      0.00
  -17    1    1      1.76      0.00
   17    1    0     -1.16      0.00
   17    1    1      1.89      0.00
   17    1    2      0.81      0.00
   17    1    3      2.34      0.00
   17    1    4      0.40      0.00
  -17    3   18      0.39      0.00
  -17    3   17      6.35      0.00
  -17    3   16      0.96      0.00
  -17    3   15     -3.70      0.00
  -17    3   14     -3.45      0.00
  -17    3   13     -5.37      0.00
  -17    3   12     -1.34      0.00
  -17    3   11      0.16      0.00
  -17    3   10      4.41      0.00
  -17    3    9      3.60      0.00
  -17    3    8     -2.26      0.00
  -17    3    7      1.15      0.00
  -17    3    6     -0.43      0.00
  -17    3    5     -4.38      0.00
  -17    3    4     -2.12      0.00
  -17    3    3     -1.17      0.00
  -17    3    2     -0.51      0.00
  -17    3    1     -3.01      0.00
   17    3    0      3.22      0.00
   17    3    1     -5.10      0.00
   17    3    2      1.76      0.00
   17    3    3     -0.83      0.00
   17    3    4     -2.66      0.00
  -17    5   18      2.38      0.00
  -17    5   17     -2.89      0.00
  -17    5   16      0.76      0.00
  -17    5   15      0.65      0.00
  -17    5   14     -0.12      0.00
  -17    5   13     -1.68      0.00
  -17    5   12      0.65      0.00
  -17    5   11      4.79      0.00
  -17    5   10     -0.84      0.00
  -17    5    9     -0.67      0.00
  -17    5    8      1.38      0.00
  -17    5    7      1.07      0.00
  -17    5    6      1.55      0.00
  -17    5    5     -0.71      0.00
  -17    5    4     -0.88      0.00
  -17    5    3      3.03      0.00
  -17    5    2      3.22      0.00
  -17    5    1     -3.39      0.00
   17    5    0     -5.80      0.00
   17    5    1     -3.26      0.00
   17    5    2     -0.01      0.00
   17    5    3      0.36      0.00
  -17    7   17      1.76      0.00
  -17    7   16     -1.20      0.00
  -17    7   15     -2.88      0.00
  -17    7   14     -0.32      0.00
  -17    7   13      3.97      0.00
  -17    7   12      6.39      0.00
  -17    7   11      0.94      0.00
  -17    7   10     -3.03      0.00
  -17    7    9     -3.18      0.00
  -17    7    8     -1.27      0.00
  -17    7    7     -1.36      0.00
  -17    7    6     -4.53      0.00
  -17    7    5      0.79      0.00
  -17    7    4     -0.37      0.00
  -17    7    3      0.25      0.00
  -17    7    2      2.91      0.00
  -17    7    1     -0.56      0.00
   17    7    0      3.19      0.00
   17    7    1      0.30      0.00
   17    7    2     -0.69      0.00
  -17    9   16     -0.72      0.00
  -17    9   15      3.46      0.00
  -17    9   14      3.94      0.00
  -17    9   13     -2.05      0.00
  -17    9   12     -4.23      0.00
  -17    9   11     -2.00      0.00
  -17    9   10      3.11      0.00
  -17    9    9      2.61      0.00
  -17    9    8     -0.44      0.00
  -17    9    7     -5.22      0.00
  -17    9    6      3.38      0.00
  -17    9    5     -1.75      0.00
  -17    9    4      3.49      0.00
  -17    9    3      5.26      0.00
  -17    9    2     -3.86      0.00
  -17    9    1      3.36      0.00
   17    9    0     -1.85      0.00
   17    9    1      3.39      0.00
  -17   11   14     -0.88      0.00
  -17   11   13      4.88      0.00
  -17   11   12     -1.68      0.00
  -17   11   11     -2.72      0.00
  -17   11   10      3.20      0.00
  -17   11    9     -3.76      0.00
  -17   11    8     -6.67      0.00
  -17   11    7      5.14      0.00
  -17   11    6     -4.32      0.00
  -17   11    5      5.88      0.00
  -17   11    4      3.90      0.00
  -17   11    3    -10.61      0.00
  -17   11    2      0.85      0.00
  -17   11    1      1.65      0.00
   17   11    0      0.09      0.00
  -17   13   11     -1.55      0.00
  -17   13   10     -1.81      0.00
  -17   13    9      1.33      0.00
  -17   13    8      4.27      0.00
  -17   13    7     -0.22      0.00
  -17   13    6      6.49      0.00
  -17   13    5      2.50      0.00
  -17   13    4     -3.35      0.00
  -17   13    3      0.04      0.00
  -18    0   18      4.74      0.00
  -18    0   16     -1.01      0.00
  -18    0   14      2.20      0.00
  -18    0   12     -1.30      0.00
  -18    0   10      1.43      0.00
  -18    0    8     -1.44      0.00
  -18    0    6     -1.03      0.00
  -18    0    4      4.45      0.00
  -18    0    2     -3.52      0.00
   18    0    0     -0.03      0.00
   18    0    2      1.92      0.00
  -18    2   17      1.05      0.00
  -18    2   16     -1.70      0.00
  -18    2   15     -1.04      0.00
  -18    2   14     -3.39      0.00
  -18    2   13      2.13      0.00
  -18    2   12      2.79      0.00
  -18    2   11      1.57      0.00
  -18    2   10      0.67      0.00
  -18    2    9     -6.59      0.00
  -18    2    8     -1.38      0.00
  -18    2    7      4.60      0.00
  -18    2    6     -2.67      0.00
  -18    2    5     -0.68      0.00
  -18    2    4      1.78      0.00
  -18    2    3      3.19      0.00
  -18    2    2     -0.69      0.00
  -18    2    1     -0.14      0.00
   18    2    0      3.71      0.00
   18    2    1      1.15      0.00
   18    2    2     -3.27      0.00
  -18    4   17     -2.40      0.00
  -18    4   16      2.34      0.00
  -18    4   15     -1.13      0.00
  -18    4   14      2.23      0.00
  -18    4   13     -1.41      0.00
  -18    4   12      0.35      0.00
  -18    4   11     -1.59      0.00
  -18    4   10     -1.83      0.00
  -18    4    9      3.64      0.00
  -18    4    8      3.74      0.00
  -18    4    7     -2.34      0.00
  -18    4    6      1.88      0.00
  -18    4    5     -2.62      0.00
  -18    4    4     -3.68      0.00
  -18    4    3      2.90      0.00
  -18    4    2      1.08      0.00
  -18    4    1     -5.99      0.00
   18    4    0     -0.91      0.00
   18    4    1     -1.96      0.00
   18    4    2      2.56      0.00
  -18    6   16     -1.02      0.00
  -18    6   15      5.80      0.00
  -18    6   14      0.92      0.00
  -18    6   13      0.06      0.00
  -18    6   12     -3.61      0.00
  -18    6   11     -0.49      0.00
  -18    6   10     -2.32      0.00
  -18    6    9     -1.91      0.00
  -18    6    8     -1.02      0.00
  -18    6    7      0.00      0.00
  -18    6    6      0.86      0.00
  -18    6    5      2.90      0.00
  -18    6    4      1.22      0.00
  -18    6    3      0.94      0.00
  -18    6    2     -0.97      0.00
  -18    6    1      2.59      0.00
   18    6    0     -3.38      0.00
   18    6    1      3.22      0.00
  -18    8   15     -0.66      0.00
  -18    8   14     -3.78      0.00
  -18    8   13     -3.88      0.00
  -18    8   12      0.95      0.00
  -18    8   11      1.91      0.00
  -18    8   10      1.55      0.00
  -18    8    9     -0.42      0.00
  -18    8    8     -1.83      0.00
  -18    8    7      2.51      0.00
  -18    8    6      2.68      0.00
  -18    8    5      1.29      0.00
  -18    8    4      4.03      0.00
  -18    8    3     -8.77      0.00
  -18    8    2      2.46      0.00
  -18    8    1      1.28      0.00
   18    8    0     -2.37      0.00
  -18   10   13      2.63      0.00
  -18   10   12     -6.19      0.00
  -18   10   11      1.41      0.00
  -18   10   10      3.46      0.00
  -18   10    9     -3.40      0.00
  -18   10    8      5.77      0.00
  -18   10    7      3.23      0.00
  -18   10    6      3.55      0.00
  -18   10    5      0.99      0.00
  -18   10    4    -25.11      0.00
  -18   10    3      1.71      0.00
  -18   10    2      7.97      0.00
  -18   12   10     -0.29      0.00
  -18   12    9      7.63      0.00
  -18   12    8     -1.44      0.00
  -18   12    7     -4.05      0.00
  -18   12    6     -3.69      0.00
  -18   12    5     -9.51      0.00
  -19    1   16     -1.77      0.00
  -19    1   15     -1.45      0.00
  -19    1   14      0.89      0.00
  -19    1   13      0.84      0.00
  -19    1   12      0.27      0.00
  -19    1   11     -1.44      0.00
  -19    1   10     -3.67      0.00
  -19    1    9      3.04      0.00
  -19    1    8      3.43      0.00
  -19    1    7      3.79      0.00
  -19    1    6      0.92      0.00
  -19    1    5     -5.03      0.00
  -19    1    4      0.34      0.00
  -19    1    3      3.90      0.00
  -19    1    2     -2.82      0.00
  -19    1    1     -0.38      0.00
   19    1    0      1.16      0.00
   19    1    1      3.77      0.00
  -19    3   16      0.95      0.00
  -19    3   15      2.62      0.00
  -19    3   14     -2.26      0.00
  -19    3   13     -0.88      0.00
  -19    3   12      3.00      0.00
  -19    3   11     -1.79      0.00
  -19    3   10      3.76      0.00
  -19    3    9      2.57      0.00
  -19    3    8     -6.14      0.00
  -19    3    7      0.02      0.00
  -19    3    6      0.56      0.00
  -19    3    5     -8.48      0.00
  -19    3    4      2.64      0.00
  -19    3    3      6.02      0.00
  -19    3    2     -2.78      0.00
  -19    3    1     -1.85      0.00
   19    3    0      2.63      0.00
  -19    5   15     -1.69      0.00
  -19    5   14     -1.57      0.00
  -19    5   13     -0.10      0.00
  -19    5   12     -2.45      0.00
  -19    5   11     -0.08      0.00
  -19    5   10     -0.01      0.00
  -19    5    9     -0.65      0.00
  -19    5    8      2.36      0.00
  -19    5    7      3.30      0.00
  -19    5    6     -1.12      0.00
  -19    5    5      3.18      0.00
  -19    5    4     -2.96      0.00
  -19    5    3     -4.59      0.00
  -19    5    2      3.20      0.00
  -19    5    1     -0.13      0.00
   19    5    0     -2.53      0.00
  -19    7   14      3.82      0.00
  -19    7   13      0.54      0.00
  -19    7   12     -0.00      0.00
  -19    7   11      2.61      0.00
  -19    7   10     -1.30      0.00
  -19    7    9     -2.94      0.00
  -19    7    8      1.49      0.00
  -19    7    7      1.71      0.00
  -19    7    6      0.50      0.00
  -19    7    5     -1.48      0.00
  -19    7    4     -2.01      0.00
  -19    7    3      3.33      0.00
  -19    7    2      2.18      0.00
  -19    7    1      0.90      0.00
  -19    9   13     -5.69      0.00
  -19    9   12      0.57      0.00
  -19    9   11      4.77      0.00
  -19    9   10     -0.39      0.00
  -19    9    9     -0.62      0.00
  -19    9    8     -0.61      0.00
  -19    9    7     -2.74      0.00
  -19    9    6     -1.90      0.00
  -19    9    5    -14.67      0.00
  -19    9    4      3.13      0.00
  -19    9    3      9.57      0.00
  -20    0   14     -0.41      0.00
  -20    0   12     -1.89      0.00
  -20    0   10      3.11      0.00
  -20    0    8      5.28      0.00
  -20    0    6    -12.95      0.00
  -20    0    4      7.88      0.00
  -20    0    2     -0.84      0.00
  -20    2   15     -2.31      0.00
  -20    2   14      0.42      0.00
  -20    2   13      1.33      0.00
  -20    2   12     -2.39      0.00
  -20    2   11      2.42      0.00
  -20    2   10      0.01      0.00
  -20    2    9     -2.96      0.00
  -20    2    8     -0.34      0.00
  -20    2    7     -0.65      0.00
  -20    2    6     -1.70      0.00
  -20    2    5      2.78      0.00
  -20    2    4      3.83      0.00
  -20    2    3      1.59      0.00
  -20    2    2     -0.35      0.00
  -20    4   14      1.05      0.00
  -20    4   13     -6.69      0.00
  -20    4   12      2.27      0.00
  -20    4   11      2.26      0.00
  -20    4   10     -1.19      0.00
  -20    4    9      2.93      0.00
  -20    4    8      1.68      0.00
  -20    4    7     -5.59      0.00
  -20    4    6      4.63      0.00
  -20    4    5     -0.69      0.00
  -20    4    4     -9.62      0.00
  -20    4    3      3.19      0.00
  -20    4    2      3.21      0.00
  -20    6   13     -0.06      0.00
  -20    6   12      1.64      0.00
  -20    6   11     -3.50      0.00
  -20    6   10     -3.09      0.00
  -20    6    9      2.28      0.00
  -20    6    8     -0.87      0.00
  -20    6    7      4.23      0.00
  -20    6    6      0.92      0.00
  -20    6    5      0.27      0.00
  -20    6    4      3.50      0.00
  -20    6    3     -1.11      0.00
  -20    8   11      1.83      0.00
  -20    8   10      1.50      0.00
  -20    8    9     -5.28      0.00
  -20    8    8     -1.30      0.00
  -20    8    7      0.28      0.00
  -20    8    6     -1.61      0.00
  -21    1   13      0.17      0.00
  -21    1   12      2.19      0.00
  -21    1   11      0.60      0.00
  -21    1   10     -0.25      0.00
  -21    1    9     -2.13      0.00
  -21    1    8     -2.09      0.00
  -21    1    7      6.53      0.00
  -21    1    6      1.88      0.00
  -21    1    5     -3.68      0.00
  -21    1    4      1.79      0.00
  -21    3   12      1.96      0.00
  -21    3   11     -2.27      0.00
  -21    3   10      1.12      0.00
  -21    3    9     -1.51      0.00
  -21    3    8     -1.64      0.00
  -21    3    7      3.24      0.00
  -21    3    6      0.55      0.00
  -21    3    5     -8.00      0.00
  -21    5   11      0.64      0.00
  -21    5   10      0.62      0.00
  -21    5    9      0.47      0.00
  -21    5    8      4.41      0.00
    2    0    0    121.91      0.00
   20    0    0     -3.93      0.00
    1    1    0    -20.76      0.00
   21    1    0      0.85      0.00
    0    2    0    -94.29      0.00
   20    2    0      0.79      0.00
   20    4    0      0.13      0.00
   20    6    0     -2.38      0.00
   19    7    0      2.09      0.00
   19    9    0     -2.26      0.00
   18   10    0      3.99      0.00
   18   12    0     -0.09      0.00
   17   13    0     -0.38      0.00
   16   14    0     -1.44      0.00
   15   15    0     -4.39      0.00
   14   16    0     -0.82      0.00
   13   17    0      0.71      0.00
   12   18    0     -1.59      0.00
   14   18    0     -0.78      0.00
   11   19    0     -1.44      0.00
   10   20    0      0.21      0.00
    9   21    0     -0.39      0.00
    6   22    0      1.02      0.00
    8   22    0      3.04      0.00
  -21    1    1      2.02      0.00
   -1    1    1   -192.00      0.00
    1    1    1   -141.55      0.00
  -20    2    1     -1.77      0.00
   -2    2    1    -45.12      0.00
    0    2    1     47.60      0.00
   20    2    1     -0.94      0.00
  -21    3    1      1.06      0.00
   19    3    1     -2.82      0.00
  -20    4    1     -3.09      0.00
   20    4    1     -0.05      0.00
   19    5    1      0.32      0.00
  -20    6    1     -0.16      0.00
   19    7    1      2.95      0.00
  -20    8    1     -1.47      0.00
   18    8    1     -2.34      0.00
  -19    9    1      4.10      0.00
   19    9    1      0.46      0.00
  -18   10    1     -0.40      0.00
   18   10    1     -0.34      0.00
  -19   11    1     -3.46      0.00
   17   11    1     -0.28      0.00
  -18   12    1     -1.99      0.00
  -17   13    1     -2.29      0.00
   17   13    1     -0.67      0.00
  -16   14    1     -3.38      0.00
   16   14    1     -0.57      0.00
   15   15    1     -1.72      0.00
  -16   16    1      3.17      0.00
   14   16    1     -0.01      0.00
  -15   17    1     -3.85      0.00
   13   17    1      3.86      0.00
  -14   18    1      1.80      0.00
   12   18    1     -0.30      0.00
  -13   19    1      1.18      0.00
  -11   19    1      3.41      0.00
   11   19    1      2.25      0.00
  -12   20    1      1.28      0.00
  -10   20    1      1.03      0.00
   10   20    1      1.10      0.00
   -9   21    1      1.21      0.00
    7   21    1      2.26      0.00
    9   21    1      1.34      0.00
   -8   22    1      1.42      0.00
   -6   22    1      0.36      0.00
    4   22    1     -1.37      0.00
    6   22    1      0.50      0.00
    8   22    1     -0.06      0.00
   -2    0    2    -63.03      0.00
    0    0    2   -132.47      0.00
   20    0    2      4.12      0.00
  -21    1    2     -3.08      0.00
   -1    1    2     13.99      0.00
   19    1    2     -0.08      0.00
  -21    3    2      0.50      0.00
   19    3    2      0.50      0.00
  -21    5    2      1.28      0.00
   19    5    2     -0.35      0.00
  -20    6    2     -0.17      0.00
   18    6    2     -0.34      0.00
   19    7    2     -0.84      0.00
  -20    8    2      1.09      0.00
   18    8    2     -0.52      0.00
  -19    9    2     -2.31      0.00
   17    9    2     -1.78      0.00
   18   10    2      1.44      0.00
  -19   11    2     -2.64      0.00
   17   11    2      0.05      0.00
  -18   12    2     -3.02      0.00
   16   12    2     -0.38      0.00
  -17   13    2     -0.74      0.00
   16   14    2     -0.23      0.00
  -17   15    2      3.22      0.00
   15   15    2      0.17      0.00
  -16   16    2     -3.31      0.00
   14   16    2      3.37      0.00
  -15   17    2      1.52      0.00
   13   17    2      2.79      0.00
  -14   18    2      1.38      0.00
   12   18    2     -1.74      0.00
  -13   19    2      0.14      0.00
   11   19    2     -0.96      0.00
  -12   20    2     -0.58      0.00
  -10   20    2      0.99      0.00
    8   20    2     -2.46      0.00
   10   20    2      0.09      0.00
  -11   21    2     -2.48      0.00
   -9   21    2     -2.40      0.00
    7   21    2      1.14      0.00
    9   21    2     -1.51      0.00
   -8   22    2      2.60      0.00
   -6   22    2      1.85      0.00
    4   22    2     -1.01      0.00
    6   22    2     -0.72      0.00
  -21    1    3      0.36      0.00
   19    1    3     -3.46      0.00
   18    2    3      0.51      0.00
  -21    3    3      3.11      0.00
   19    3    3      1.16      0.00
   18    4    3     -2.14      0.00
  -21    5    3     -2.08      0.00
   19    5    3     -2.93      0.00
   18    6    3      1.90      0.00
  -21    7    3      0.89      0.00
   17    7    3      0.30      0.00
  -20    8    3      0.86      0.00
   18    8    3     -3.30      0.00
   17    9    3      1.51      0.00
  -20   10    3     -1.97      0.00
  -19   11    3    -13.00      0.00
   17   11    3     -1.30      0.00
  -18   12    3      7.92      0.00
   16   12    3     -1.36      0.00
   15   13    3      1.16      0.00
  -18   14    3      1.04      0.00
   14   14    3      0.44      0.00
  -17   15    3      0.23      0.00
  -16   16    3     -2.52      0.00
   14   16    3      1.27      0.00
  -15   17    3      0.59      0.00
   13   17    3     -3.99      0.00
  -14   18    3     -2.45      0.00
   12   18    3     -1.25      0.00
  -13   19    3     -1.61      0.00
    9   19    3     -0.72      0.00
   11   19    3     -0.36      0.00
  -12   20    3     -0.21      0.00
  -10   20    3     -1.54      0.00
    8   20    3     -1.38      0.00
   10   20    3     -0.27      0.00
  -11   21    3     -0.67      0.00
   -9   21    3      1.19      0.00
    7   21    3      2.31      0.00
   -8   22    3      3.03      0.00
   -6   22    3      0.17      0.00
    2   22    3      3.52      0.00
    4   22    3     -3.16      0.00
    6   22    3     -1.98      0.00
   18    0    4     -2.15      0.00
   18    2    4     -0.91      0.00
  -21    3    4     -0.57      0.00
   18    4    4     -0.54      0.00
  -21    5    4     -1.93      0.00
   17    5    4      3.77      0.00
   18    6    4      1.67      0.00
  -21    7    4      3.52      0.00
   17    7    4     -4.79      0.00
  -20    8    4      1.66      0.00
   17    9    4      5.22      0.00
  -20   10    4    -12.02      0.00
   16   10    4      0.77      0.00
  -19   11    4      9.42      0.00
   15   11    4     -1.54      0.00
  -18   12    4     11.08      0.00
   16   12    4     -0.54      0.00
  -19   13    4     -5.68      0.00
   15   13    4      1.56      0.00
  -18   14    4      2.65      0.00
   14   14    4     -1.17      0.00
  -17   15    4     -3.74      0.00
   13   15    4      0.04      0.00
  -16   16    4     -2.22      0.00
   12   16    4     -1.33      0.00
  -15   17    4     -1.27      0.00
   11   17    4     -1.51      0.00
  -14   18    4      3.40      0.00
   10   18    4     -0.91      0.00
  -13   19    4     -0.92      0.00
    9   19    4      1.49      0.00
  -12   20    4      0.20      0.00
  -10   20    4     -0.13      0.00
    8   20    4      1.54      0.00
  -11   21    4      1.30      0.00
   -9   21    4      5.07      0.00
    5   21    4     -2.22      0.00
    7   21    4      0.23      0.00
   -8   22    4     -0.03      0.00
   -6   22    4      1.23      0.00
   -4   22    4     -1.10      0.00
    2   22    4      3.14      0.00
    4   22    4      1.96      0.00
    6   22    4     -1.10      0.00
   17    1    5      1.20      0.00
   18    2    5      0.36      0.00
   17    3    5      0.40      0.00
  -21    5    5      3.69      0.00
   17    5    5      0.86      0.00
  -21    7    5     -1.71      0.00
   17    7    5      1.88      0.00
  -20    8    5     -1.81      0.00
   16    8    5      2.12      0.00
  -21    9    5     -0.57      0.00
  -20   10    5      3.81      0.00
   16   10    5     -2.25      0.00
  -19   11    5     20.48      0.00
   15   11    5     -1.47      0.00
   14   12    5     -2.34      0.00
  -19   13    5     -2.22      0.00
  -18   14    5      1.24      0.00
   14   14    5      0.84      0.00
  -17   15    5     -3.77      0.00
   13   15    5     -0.23      0.00
  -16   16    5      3.21      0.00
   12   16    5      1.16      0.00
  -15   17    5      3.25      0.00
   11   17    5     -0.71      0.00
  -14   18    5     -1.31      0.00
   10   18    5      3.37      0.00
  -13   19    5     -1.79      0.00
    9   19    5     -1.10      0.00
  -12   20    5     -0.36      0.00
  -10   20    5      3.37      0.00
    6   20    5     -1.65      0.00
    8   20    5      0.21      0.00
  -11   21    5     -2.12      0.00
   -9   21    5     -0.15      0.00
    5   21    5     -1.76      0.00
    7   21    5     -1.22      0.00
   -8   22    5     -0.72      0.00
   -6   22    5     -1.65      0.00
   -4   22    5      0.07      0.00
   -2   22    5      0.69      0.00
    0   22    5     -3.12      0.00
    2   22    5     -3.46      0.00
    4   22    5      0.80      0.00
   17    1    6      1.38      0.00
   17    3    6     -0.33      0.00
   16    4    6      3.17      0.00
  -21    5    6     -2.91      0.00
   17    5    6     -0.06      0.00
   16    6    6      1.20      0.00
  -21    7    6     -0.17      0.00
   16    8    6     -1.01      0.00
  -21    9    6      4.01      0.00
   15    9    6      1.83      0.00
  -20   10    6      7.98      0.00
   14   10    6     -1.79      0.00
  -19   11    6     -0.57      0.00
   15   11    6      0.08      0.00
  -20   12    6     -5.00      0.00
   14   12    6     -2.12      0.00
  -19   13    6      2.03      0.00
   13   13    6      4.52      0.00
  -18   14    6     -0.82      0.00
   12   14    6     -1.42      0.00
  -17   15    6      1.42      0.00
   11   15    6      3.71      0.00
  -16   16    6      1.14      0.00
   10   16    6      1.47      0.00
   12   16    6     -0.47      0.00
  -15   17    6     -0.08      0.00
    9   17    6      1.68      0.00
   11   17    6     -0.73      0.00
  -14   18    6     -4.81      0.00
    8   18    6     -1.40      0.00
   10   18    6      0.50      0.00
  -13   19    6      1.19      0.00
    7   19    6     -1.15      0.00
    9   19    6     -2.34      0.00
  -12   20    6     -2.23      0.00
  -10   20    6     -0.87      0.00
    6   20    6     -3.71      0.00
  -11   21    6     -0.07      0.00
   -9   21    6      2.39      0.00
    3   21    6     -0.98      0.00
    5   21    6      0.43      0.00
   -8   22    6     -0.91      0.00
   -6   22    6     -0.24      0.00
   -4   22    6     -0.00      0.00
   -2   22    6     -1.09      0.00
    0   22    6     -1.92      0.00
    2   22    6     -2.43      0.00
   16    2    7     -2.06      0.00
   16    4    7      0.03      0.00
  -21    5    7      1.48      0.00
   15    5    7     -1.78      0.00
   16    6    7     -1.47      0.00
  -21    7    7     -1.16      0.00
   15    7    7     -1.80      0.00
  -21    9    7      0.20      0.00
   15    9    7     -1.62      0.00
  -20   10    7      1.91      0.00
   14   10    7     -0.54      0.00
  -19   11    7     -0.37      0.00
   13   11    7     -0.59      0.00
  -20   12    7     -4.49      0.00
  -19   13    7      2.15      0.00
   13   13    7     -0.58      0.00
  -18   14    7     -0.32      0.00
   12   14    7      1.98      0.00
  -17   15    7      2.15      0.00
   11   15    7      1.04      0.00
  -16   16    7     -3.90      0.00
   10   16    7     -2.91      0.00
  -15   17    7     -0.53      0.00
    9   17    7     -1.18      0.00
  -14   18    7     -1.03      0.00
    8   18    7     -0.95      0.00
  -13   19    7     -1.05      0.00
    7   19    7     -1.72      0.00
  -12   20    7     -1.77      0.00
  -10   20    7     -1.60      0.00
    4   20    7      1.23      0.00
    6   20    7      1.51      0.00
  -11   21    7      3.88      0.00
   -9   21    7      3.48      0.00
   -7   21    7      1.29      0.00
    1   21    7     -5.39      0.00
    3   21    7     -0.41      0.00
   -8   22    7     -3.43      0.00
   -6   22    7      2.05      0.00
   -4   22    7      0.78      0.00
   -2   22    7     -2.92      0.00
    0   22    7     -0.13      0.00
    2   22    7      1.12      0.00
   16    0    8     -0.90      0.00
   15    1    8     -0.82      0.00
   15    3    8     -0.09      0.00
   15    5    8      0.98      0.00
   14    6    8     -0.98      0.00
  -21    7    8     -0.02      0.00
   15    7    8     -1.14      0.00
   14    8    8      0.54      0.00
  -21    9    8     -3.44      0.00
   13    9    8      1.64      0.00
  -20   10    8      0.54      0.00
   14   10    8      2.02      0.00
  -19   11    8     -7.49      0.00
   13   11    8     -0.17      0.00
  -20   12    8      0.42      0.00
   12   12    8     -2.68      0.00
  -19   13    8      4.40      0.00
   11   13    8      5.10      0.00
  -18   14    8     -1.50      0.00
   10   14    8      0.37      0.00
  -17   15    8     -3.58      0.00
   11   15    8     -2.80      0.00
  -16   16    8      0.61      0.00
   10   16    8     -0.62      0.00
  -15   17    8     -1.26      0.00
    7   17    8     -1.84      0.00
    9   17    8      0.81      0.00
  -14   18    8     -1.14      0.00
    6   18    8     -2.49      0.00
    8   18    8      1.16      0.00
  -13   19    8     -0.32      0.00
  -11   19    8     -3.02      0.00
    5   19    8      1.68      0.00
    7   19    8     -1.41      0.00
  -12   20    8      1.22      0.00
  -10   20    8      3.37      0.00
    2   20    8     -4.17      0.00
    4   20    8      0.52      0.00
   -9   21    8     -3.37      0.00
   -7   21    8      2.04      0.00
   -5   21    8      5.11      0.00
   -3   21    8     -0.43      0.00
   -1   21    8     -1.17      0.00
    1   21    8      2.73      0.00
    3   21    8      1.00      0.00
   -6   22    8     -2.76      0.00
   -4   22    8     -3.95      0.00
   -2   22    8      1.61      0.00
    0   22    8      3.38      0.00
   15    1    9      0.08      0.00
   14    2    9     -0.17      0.00
   15    3    9      3.11      0.00
   14    4    9      0.74      0.00
   14    6    9     -1.91      0.00
  -21    7    9     -1.51      0.00
   13    7    9      1.87      0.00
  -21    9    9     -1.35      0.00
   13    9    9      0.61      0.00
  -20   10    9      0.47      0.00
   12   10    9      2.67      0.00
  -19   11    9      0.68      0.00
   11   11    9     -1.93      0.00
  -20   12    9      3.01      0.00
   12   12    9     -0.42      0.00
  -19   13    9     -2.10      0.00
   11   13    9      2.50      0.00
  -18   14    9     -2.32      0.00
   10   14    9     -3.51      0.00
  -17   15    9      0.19      0.00
    9   15    9      0.88      0.00
  -16   16    9      0.25      0.00
    8   16    9     -2.86      0.00
  -15   17    9      0.23      0.00
    7   17    9      0.67      0.00
  -14   18    9     -1.97      0.00
    6   18    9     -0.27      0.00
  -13   19    9      1.32      0.00
  -11   19    9      0.75      0.00
    3   19    9     -2.98      0.00
    5   19    9      1.37      0.00
  -12   20    9      0.47      0.00
  -10   20    9     -0.16      0.00
   -8   20    9     -0.06      0.00
    0   20    9      3.60      0.00
    2   20    9      2.32      0.00
    4   20    9     -1.89      0.00
   -9   21    9     -0.75      0.00
   -7   21    9     -0.22      0.00
   -5   21    9     -4.94      0.00
   -3   21    9     -0.62      0.00
   -1   21    9      1.79      0.00
    1   21    9      2.83      0.00
   -6   22    9     -2.56      0.00
   -4   22    9     -0.75      0.00
   -2   22    9     -0.20      0.00
   14    0   10      4.51      0.00
   13    1   10      1.65      0.00
   14    2   10     -1.78      0.00
   13    3   10     -0.82      0.00
   14    4   10      0.12      0.00
   13    5   10      0.70      0.00
   12    6   10      2.18      0.00
  -21    7   10     -6.01      0.00
   13    7   10     -1.47      0.00
   12    8   10     -0.33      0.00
  -21    9   10      3.96      0.00
   11    9   10      6.00      0.00
  -20   10   10      4.54      0.00
   12   10   10     -0.16      0.00
  -19   11   10      3.22      0.00
   11   11   10     -6.38      0.00
  -20   12   10     -1.32      0.00
   10   12   10      4.15      0.00
  -19   13   10     -2.08      0.00
    9   13   10     -2.48      0.00
  -18   14   10      0.36      0.00
    8   14   10      0.24      0.00
  -17   15   10      0.26      0.00
    7   15   10     -3.46      0.00
    9   15   10     -1.09      0.00
  -16   16   10     -0.28      0.00
    6   16   10     -2.45      0.00
    8   16   10      0.69      0.00
  -15   17   10     -1.61      0.00
    5   17   10      0.35      0.00
    7   17   10      1.69      0.00
  -14   18   10      0.03      0.00
  -12   18   10      1.86      0.00
    4   18   10     -0.04      0.00
  -13   19   10     -0.68      0.00
  -11   19   10     -0.19      0.00
    1   19   10      1.84      0.00
    3   19   10     -1.25      0.00
  -10   20   10     -1.74      0.00
   -8   20   10      1.89      0.00
   -6   20   10     -1.45      0.00
   -4   20   10      0.13      0.00
   -2   20   10     -1.66      0.00
    0   20   10     -0.28      0.00
    2   20   10      2.00      0.00
   -7   21   10     -3.10      0.00
   -5   21   10     -1.17      0.00
   -3   21   10     -1.21      0.00
   -1   21   10     -1.75      0.00
   13    1   11     -4.81      0.00
   12    2   11     -4.17      0.00
   13    3   11      5.26      0.00
   12    4   11     -0.04      0.00
   12    6   11     -2.53      0.00
  -21    7   11      1.90      0.00
   11    7   11     -1.15      0.00
   12    8   11      4.02      0.00
  -21    9   11      0.50      0.00
   11    9   11     -0.29      0.00
  -20   10   11      1.40      0.00
   10   10   11     -5.85      0.00
  -19   11   11     -5.65      0.00
    9   11   11      2.87      0.00
  -18   12   11     -1.29      0.00
    8   12   11     -9.19      0.00
   10   12   11      2.20      0.00
  -19   13   11     -0.62      0.00
    9   13   11     -3.08      0.00
  -18   14   11      0.50      0.00
    8   14   11     -1.00      0.00
  -17   15   11     -0.68      0.00
    7   15   11      0.91      0.00
  -16   16   11      0.96      0.00
    4   16   11     -2.07      0.00
    6   16   11      0.02      0.00
  -15   17   11     -3.54      0.00
  -13   17   11     -0.38      0.00
    3   17   11     -0.03      0.00
    5   17   11      2.61      0.00
  -14   18   11      1.73      0.00
  -12   18   11     -0.52      0.00
    2   18   11      0.21      0.00
    4   18   11     -0.29      0.00
  -11   19   11     -1.14      0.00
   -9   19   11      1.16      0.00
   -3   19   11     -0.07      0.00
   -1   19   11     -3.92      0.00
    1   19   11     -1.29      0.00
  -10   20   11      1.81      0.00
   -8   20   11      0.41      0.00
   -6   20   11      0.49      0.00
   -4   20   11      0.67      0.00
   -2   20   11     -0.05      0.00
    0   20   11     -0.91      0.00
   -5   21   11     -1.29      0.00
   12    0   12     -0.27      0.00
   11    1   12     -3.89      0.00
   12    2   12      3.90      0.00
   11    3   12      1.95      0.00
   12    4   12     -3.43      0.00
  -21    5   12     -4.53      0.00
   11    5   12      1.90      0.00
   10    6   12     -0.93      0.00
  -21    7   12      3.25      0.00
   11    7   12      1.49      0.00
  -20    8   12      0.71      0.00
   10    8   12      1.25      0.00
  -21    9   12     -1.06      0.00
    9    9   12     -1.96      0.00
  -20   10   12     -5.70      0.00
   10   10   12     -0.57      0.00
  -19   11   12     -0.13      0.00
    9   11   12     -3.23      0.00
  -18   12   12      1.95      0.00
    8   12   12     -0.65      0.00
  -19   13   12      0.20      0.00
  -17   13   12     -1.52      0.00
    7   13   12      4.35      0.00
  -18   14   12      1.00      0.00
  -16   14   12      3.94      0.00
    6   14   12      2.22      0.00
  -17   15   12      0.16      0.00
  -15   15   12     -1.12      0.00
    5   15   12     -2.22      0.00
  -16   16   12     -2.73      0.00
  -14   16   12     -3.30      0.00
    4   16   12      2.07      0.00
  -15   17   12      2.34      0.00
  -13   17   12      0.81      0.00
    1   17   12      0.84      0.00
    3   17   12      0.88      0.00
  -12   18   12     -0.19      0.00
  -10   18   12      1.18      0.00
   -2   18   12     -0.81      0.00
    0   18   12     -1.57      0.00
    2   18   12      1.18      0.00
  -11   19   12      2.99      0.00
   -9   19   12      3.71      0.00
   -7   19   12      0.96      0.00
   -5   19   12      1.39      0.00
   -3   19   12      1.19      0.00
   -1   19   12      1.04      0.00
    1   19   12     -0.71      0.00
   -8   20   12     -0.13      0.00
   -6   20   12     -0.70      0.00
   -4   20   12     -2.25      0.00
   -2   20   12     -0.15      0.00
   11    1   13     -2.22      0.00
   10    2   13      4.21      0.00
  -21    3   13      2.97      0.00
   11    3   13     -1.37      0.00
   10    4   13      0.16      0.00
  -21    5   13      0.83      0.00
    9    5   13      1.40      0.00
   10    6   13     -2.86      0.00
  -21    7   13     -1.53      0.00
    9    7   13      3.75      0.00
  -20    8   13      1.98      0.00
    8    8   13     -1.15      0.00
  -21    9   13     -1.65      0.00
    9    9   13     -3.88      0.00
  -20   10   13      1.01      0.00
    8   10   13     -3.88      0.00
  -19   11   13      4.24      0.00
    7   11   13      0.51      0.00
  -18   12   13     -1.06      0.00
    6   12   13      7.68      0.00
  -17   13   13      0.43      0.00
    5   13   13      2.35      0.00
    7   13   13     -2.21      0.00
  -16   14   13      1.36      0.00
    4   14   13      1.48      0.00
    6   14   13      0.76      0.00
  -15   15   13     -3.33      0.00
    3   15   13      1.48      0.00
    5   15   13     -0.29      0.00
  -14   16   13      1.42      0.00
    2   16   13     -1.57      0.00
    4   16   13      1.23      0.00
  -13   17   13     -0.49      0.00
  -11   17   13      1.08      0.00
   -1   17   13      1.11      0.00
    1   17   13      3.32      0.00
  -12   18   13      2.78      0.00
  -10   18   13      4.63      0.00
   -8   18   13      0.60      0.00
   -6   18   13     -1.35      0.00
   -4   18   13     -0.73      0.00
   -2   18   13      0.19      0.00
    0   18   13     -1.19      0.00
   -9   19   13     -0.92      0.00
   -7   19   13      0.13      0.00
   -5   19   13     -0.61      0.00
   -3   19   13     -0.46      0.00
   10    0   14     -3.24      0.00
  -21    1   14     -0.55      0.00
    9    1   14      2.24      0.00
   10    2   14      0.67      0.00
  -21    3   14     -4.22      0.00
    9    3   14     -3.20      0.00
    8    4   14      2.82      0.00
  -21    5   14      2.68      0.00
    9    5   14     -1.52      0.00
  -20    6   14     -3.59      0.00
    8    6   14      1.50      0.00
  -21    7   14      3.59      0.00
    7    7   14      0.73      0.00
    9    7   14      2.31      0.00
  -20    8   14     -1.29      0.00
    8    8   14     -5.97      0.00
  -19    9   14      2.39      0.00
    7    9   14      1.14      0.00
  -20   10   14      3.67      0.00
  -18   10   14      4.20      0.00
    6   10   14     -1.15      0.00
  -19   11   14     -1.59      0.00
    5   11   14      3.89      0.00
    7   11   14      6.61      0.00
  -18   12   14     -1.38      0.00
    4   12   14      2.99      0.00
    6   12   14     -1.20      0.00
  -17   13   14      2.28      0.00
    3   13   14      1.01      0.00
    5   13   14     -0.17      0.00
  -16   14   14     -1.77      0.00
    2   14   14      4.56      0.00
    4   14   14     -1.45      0.00
  -15   15   14      0.47      0.00
  -13   15   14     -1.77      0.00
    1   15   14     -0.21      0.00
    3   15   14     -1.39      0.00
  -14   16   14     -1.47      0.00
  -12   16   14      0.60      0.00
   -2   16   14     -0.42      0.00
    0   16   14      0.47      0.00
    2   16   14      1.16      0.00
  -13   17   14      1.00      0.00
  -11   17   14      3.27      0.00
   -9   17   14      0.99      0.00
   -7   17   14     -1.51      0.00
   -5   17   14     -1.71      0.00
   -3   17   14     -0.74      0.00
   -1   17   14     -1.96      0.00
  -10   18   14     -1.12      0.00
   -8   18   14     -0.41      0.00
   -6   18   14      1.59      0.00
   -4   18   14     -0.64      0.00
   -2   18   14     -0.18      0.00
  -21    1   15      0.18      0.00
    7    1   15     -1.03      0.00
    8    2   15     -1.50      0.00
  -21    3   15      0.68      0.00
    7    3   15      3.43      0.00
  -20    4   15      0.65      0.00
    8    4   15      0.04      0.00
  -21    5   15     -2.52      0.00
    7    5   15     -0.27      0.00
  -20    6   15      4.53      0.00
    6    6   15      1.56      0.00
    8    6   15      3.04      0.00
  -21    7   15      2.53      0.00
  -19    7   15      0.03      0.00
    7    7   15     -3.22      0.00
  -20    8   15     -1.89      0.00
    6    8   15     -0.07      0.00
  -19    9   15      3.62      0.00
    5    9   15     -2.81      0.00
  -18   10   15     -1.44      0.00
    4   10   15      2.71      0.00
    6   10   15      3.19      0.00
  -19   11   15     -0.48      0.00
  -17   11   15     -1.50      0.00
    5   11   15      3.25      0.00
  -18   12   15     -1.13      0.00
  -16   12   15      1.64      0.00
    4   12   15     -1.05      0.00
  -17   13   15      0.43      0.00
  -15   13   15      2.40      0.00
    1   13   15      2.86      0.00
    3   13   15     -1.84      0.00
  -16   14   15     -1.09      0.00
  -14   14   15     -1.02      0.00
    0   14   15      3.58      0.00
    2   14   15      0.51      0.00
  -15   15   15     -1.57      0.00
  -13   15   15     -1.11      0.00
  -11   15   15      0.23      0.00
   -1   15   15     -3.51      0.00
    1   15   15     -3.12      0.00
  -12   16   15      1.51      0.00
  -10   16   15     -0.63      0.00
   -8   16   15      0.09      0.00
   -6   16   15     -1.51      0.00
   -4   16   15      2.36      0.00
   -2   16   15     -1.06      0.00
    0   16   15     -2.53      0.00
  -11   17   15      0.74      0.00
   -9   17   15      0.06      0.00
   -7   17   15      2.09      0.00
   -5   17   15     -0.24      0.00
   -3   17   15     -0.79      0.00
  -20    0   16     -1.45      0.00
    6    0   16      5.99      0.00
  -21    1   16     -1.69      0.00
    7    1   16      0.08      0.00
  -20    2   16      3.48      0.00
    6    2   16     -0.37      0.00
  -21    3   16      2.35      0.00
    7    3   16     -0.81      0.00
  -20    4   16     -2.29      0.00
    6    4   16     -0.28      0.00
  -21    5   16      0.38      0.00
  -19    5   16      3.50      0.00
    5    5   16      2.43      0.00
  -20    6   16      1.67      0.00
    6    6   16     -2.33      0.00
  -19    7   16     -3.05      0.00
    5    7   16     -0.52      0.00
  -20    8   16      0.24      0.00
  -18    8   16      4.89      0.00
    4    8   16     -1.02      0.00
  -19    9   16     -0.61      0.00
    3    9   16      0.51      0.00
    5    9   16      2.37      0.00
  -18   10   16     -2.23      0.00
    4   10   16      3.30      0.00
  -17   11   16     -1.67      0.00
    3   11   16     -0.72      0.00
  -16   12   16      1.57      0.00
    0   12   16      0.65      0.00
    2   12   16     -1.24      0.00
  -15   13   16      0.53      0.00
  -13   13   16      0.95      0.00
   -1   13   16      1.01      0.00
    1   13   16      1.39      0.00
  -14   14   16     -2.79      0.00
  -12   14   16     -2.05      0.00
   -2   14   16     -0.39      0.00
    0   14   16     -2.50      0.00
  -13   15   16      1.96      0.00
  -11   15   16     -2.26      0.00
   -9   15   16     -0.37      0.00
   -7   15   16     -3.31      0.00
   -5   15   16      2.66      0.00
   -3   15   16      2.37      0.00
   -1   15   16     -3.11      0.00
  -10   16   16      1.80      0.00
   -8   16   16      0.76      0.00
   -6   16   16     -0.20      0.00
   -4   16   16     -2.26      0.00
  -21    1   17      1.64      0.00
  -19    1   17      3.23      0.00
    5    1   17     -7.44      0.00
  -20    2   17      3.00      0.00
    4    2   17      5.00      0.00
    6    2   17      0.32      0.00
  -21    3   17     -2.07      0.00
  -19    3   17     -0.19      0.00
    5    3   17     -0.86      0.00
  -20    4   17     -0.26      0.00
    4    4   17      0.31      0.00
  -19    5   17      0.07      0.00
    5    5   17     -1.63      0.00
  -20    6   17     -0.76      0.00
  -18    6   17      0.01      0.00
    4    6   17      0.28      0.00
  -19    7   17      1.48      0.00
    3    7   17      2.40      0.00
  -18    8   17     -0.85      0.00
    2    8   17     -4.77      0.00
    4    8   17     -1.40      0.00
  -17    9   17     -1.71      0.00
    1    9   17     -5.60      0.00
    3    9   17     -0.04      0.00
  -18   10   17     -0.54      0.00
  -16   10   17     -2.69      0.00
    0   10   17      3.77      0.00
    2   10   17      3.16      0.00
  -17   11   17      0.61      0.00
  -15   11   17     -0.71      0.00
   -1   11   17      2.03      0.00
    1   11   17      2.32      0.00
  -16   12   17      1.05      0.00
  -14   12   17      3.05      0.00
   -2   12   17     -3.54      0.00
    0   12   17     -1.78      0.00
  -15   13   17     -1.33      0.00
  -13   13   17     -3.98      0.00
  -11   13   17     -2.40      0.00
   -5   13   17      2.78      0.00
   -3   13   17      2.91      0.00
   -1   13   17      0.98      0.00
  -12   14   17     -0.48      0.00
  -10   14   17     -0.45      0.00
   -8   14   17     -2.21      0.00
   -6   14   17     -0.54      0.00
   -4   14   17      4.27      0.00
   -2   14   17     -0.42      0.00
  -11   15   17      1.57      0.00
   -9   15   17      0.61      0.00
   -7   15   17     -2.13      0.00
   -5   15   17     -3.17      0.00
  -20    0   18      2.77      0.00
    2    0   18     -0.89      0.00
    4    0   18     -7.52      0.00
  -19    1   18      0.34      0.00
    3    1   18      2.88      0.00
  -20    2   18     -1.32      0.00
  -18    2   18      1.61      0.00
    2    2   18     -3.01      0.00
    4    2   18      0.71      0.00
  -19    3   18     -2.68      0.00
    3    3   18     -2.72      0.00
  -20    4   18      0.23      0.00
  -18    4   18     -2.73      0.00
    2    4   18      3.42      0.00
    4    4   18      2.12      0.00
  -19    5   18      1.61      0.00
    1    5   18      0.29      0.00
    3    5   18     -0.46      0.00
  -18    6   18     -0.43      0.00
    2    6   18      0.52      0.00
  -17    7   18     -2.10      0.00
    1    7   18     -4.11      0.00
  -18    8   18     -1.81      0.00
  -16    8   18      2.68      0.00
    0    8   18     -2.67      0.00
    2    8   18     -1.60      0.00
  -17    9   18     -0.57      0.00
  -15    9   18     -3.61      0.00
   -1    9   18      1.97      0.00
    1    9   18      5.34      0.00
  -16   10   18     -1.42      0.00
  -14   10   18     -0.84      0.00
   -2   10   18      4.30      0.00
    0   10   18      3.81      0.00
  -15   11   18      2.28      0.00
  -13   11   18      2.03      0.00
  -11   11   18     -1.43      0.00
   -5   11   18     -1.39      0.00
   -3   11   18     -2.61      0.00
   -1   11   18     -2.13      0.00
  -14   12   18     -1.32      0.00
  -12   12   18     -0.71      0.00
  -10   12   18     -3.35      0.00
   -8   12   18     -2.69      0.00
   -6   12   18     -0.16      0.00
   -4   12   18      0.77      0.00
   -2   12   18      1.02      0.00
  -13   13   18     -0.25      0.00
  -11   13   18      0.42      0.00
   -9   13   18     -0.62      0.00
   -7   13   18     -1.36      0.00
   -5   13   18      2.58      0.00
   -3   13   18      2.24      0.00
  -10   14   18      1.97      0.00
   -8   14   18     -0.40      0.00
   -6   14   18     -1.72      0.00
  -19    1   19     -0.53      0.00
  -17    1   19     -2.07      0.00
    1    1   19     -1.40      0.00
  -18    2   19      1.94      0.00
    0    2   19     -1.54      0.00
    2    2   19     -0.99      0.00
  -19    3   19     -2.93      0.00
  -17    3   19     -1.58      0.00
    1    3   19      2.98      0.00
  -18    4   19      0.96      0.00
  -16    4   19      3.28      0.00
    0    4   19     -1.17      0.00
    2    4   19     -0.50      0.00
  -17    5   19     -1.66      0.00
  -15    5   19     -4.13      0.00
   -1    5   19     -1.20      0.00
    1    5   19     -1.20      0.00
  -18    6   19     -1.30      0.00
  -16    6   19     -2.31      0.00
   -2    6   19      0.23      0.00
    0    6   19      0.86      0.00
  -17    7   19      3.21      0.00
  -15    7   19      1.83      0.00
   -1    7   19     -0.22      0.00
  -16    8   19     -1.83      0.00
  -14    8   19     -1.63      0.00
   -4    8   19     -3.05      0.00
   -2    8   19     -2.00      0.00
    0    8   19      2.88      0.00
  -15    9   19      0.77      0.00
  -13    9   19     -1.47      0.00
  -11    9   19     -4.29      0.00
   -5    9   19      1.98      0.00
   -3    9   19      3.18      0.00
   -1    9   19      2.01      0.00
  -14   10   19      0.61      0.00
  -12   10   19     -1.51      0.00
  -10   10   19     -0.46      0.00
   -8   10   19     -1.67      0.00
   -6   10   19     -1.84      0.00
   -4   10   19      0.67      0.00
   -2   10   19      0.69      0.00
  -13   11   19      1.43      0.00
  -11   11   19      0.63      0.00
   -9   11   19     -0.91      0.00
   -7   11   19      1.58      0.00
   -5   11   19      0.65      0.00
   -3   11   19     -0.57      0.00
  -12   12   19      0.92      0.00
  -10   12   19      0.16      0.00
   -8   12   19     -1.63      0.00
   -6   12   19      0.26      0.00
  -18    0   20     -0.19      0.00
  -16    0   20      1.39      0.00
   -2    0   20      2.22      0.00
    0    0   20      0.56      0.00
  -17    1   20      0.46      0.00
  -15    1   20      1.42      0.00
   -3    1   20      1.85      0.00
   -1    1   20     -1.48      0.00
  -18    2   20     -1.40      0.00
  -16    2   20     -1.63      0.00
   -2    2   20     -2.18      0.00
    0    2   20      0.78      0.00
  -17    3   20      0.29      0.00
  -15    3   20      0.23      0.00
   -3    3   20     -0.77      0.00
   -1    3   20      0.84      0.00
  -16    4   20     -1.43      0.00
  -14    4   20     -0.67      0.00
   -4    4   20      2.56      0.00
   -2    4   20      0.40      0.00
  -17    5   20     -1.84      0.00
  -15    5   20     -2.33      0.00
  -13    5   20      2.49      0.00
   -5    5   20     -0.07      0.00
   -3    5   20     -1.76      0.00
   -1    5   20      2.01      0.00
  -16    6   20      2.91      0.00
  -14    6   20     -0.03      0.00
  -12    6   20      5.45      0.00
   -6    6   20      2.98      0.00
   -4    6   20      0.84      0.00
   -2    6   20      0.99      0.00
  -15    7   20     -1.10      0.00
  -13    7   20      1.31      0.00
  -11    7   20     -0.89      0.00
   -9    7   20      1.53      0.00
   -7    7   20      1.80      0.00
   -5    7   20      0.81      0.00
   -3    7   20     -0.49      0.00
  -14    8   20      2.27      0.00
  -12    8   20     -4.49      0.00
  -10    8   20     -3.90      0.00
   -8    8   20     -3.49      0.00
   -6    8   20      0.04      0.00
   -4    8   20      0.24      0.00
  -13    9   20     -1.73      0.00
  -11    9   20      2.17      0.00
   -9    9   20     -0.96      0.00
   -7    9   20     -3.21      0.00
   -5    9   20     -0.83      0.00
  -12   10   20      1.48      0.00
  -10   10   20     -1.15      0.00
   -8   10   20      2.61      0.00
   -6   10   20      2.21      0.00
    0    0    0      0.00      0.00
# SQUEEZE RESULTS (Version =  11015)
# Note: Data are Listed for all Voids in the P1 Unit Cell
# i.e. Centre of Gravity, Solvent Accessible Volume,
# Recovered number of Electrons in the Void and
# Details about the Squeezed Material
loop_
  _platon_squeeze_void_nr
  _platon_squeeze_void_average_x
  _platon_squeeze_void_average_y
  _platon_squeeze_void_average_z
  _platon_squeeze_void_volume
  _platon_squeeze_void_count_electrons
  _platon_squeeze_void_content
   1 -0.000  0.279  0.250       375        82 ' '
   2  0.500  0.779  0.250       375        82 ' '
   3 -0.000  0.721  0.750       375        83 ' '
   4  0.500  0.221  0.750       375        83 ' '
# Missing Reflections Below sin(th)/lambda = 0.25
loop_
  _platon_missing_refln_index_h
  _platon_missing_refln_index_k
  _platon_missing_refln_index_l
  _platon_missing_refln_theta
    2    0    0     2.533
    1    1    0     1.679
    0    2    0     2.205
   -1    1    1     1.766
    1    1    1     2.444
   -2    2    1     3.186
    0    2    1     2.567
   -2    0    2     2.759
    0    0    2     2.629
   -1    1    2     2.621
_platon_squeeze_void_probe_radius                  1.20
_platon_squeeze_details
)
TITL Br-DSMSAL in C2/c; 130K; Xcalibur
CELL   17.8034   18.4763   17.1568     90.00    115.41     90.00
SPGR C2/c
# Solvent Accessible Volume =    1495.3
# Electrons Found in S.A.V. =     326.3
# Note: Atoms in Void as Cxxx and Qxxx all others
C101 0.093 0.225 0.091 !       3.78 eA-3
C102 1.000 0.094 0.251 !       2.53 eA-3
Q103 0.580 0.346 0.056 !       1.97 eA-3
C104 1.000 0.406 0.254 !       1.87 eA-3
C105 0.830 0.365 0.218 !       1.44 eA-3
C106 0.031 0.137 0.248 !       1.39 eA-3
C107 1.000 0.141 0.251 !       1.36 eA-3
C108 0.033 0.392 0.307 !       1.31 eA-3
C109 0.215 0.374 0.329 !       1.31 eA-3
C110 0.012 0.170 0.160 !       1.28 eA-3
C111 0.019 0.213 0.108 !       1.25 eA-3
C112 0.014 0.156 0.289 !       1.24 eA-3
C113 0.145 0.390 0.246 !       1.21 eA-3
C114 0.939 0.312 0.379 !       1.19 eA-3
C115 0.921 0.359 0.357 !       1.14 eA-3
C116 0.930 0.388 0.329 !       1.12 eA-3
C117 0.095 0.342 0.200 !       1.11 eA-3
Q118 0.872 0.407 0.072 !       1.10 eA-3
Q119 0.218 0.378 0.097 !       1.02 eA-3
Q120 1.003 0.403 0.092 !       1.02 eA-3
C121 0.010 0.408 0.184 !       1.02 eA-3
C122 0.131 0.250 0.324 !       0.94 eA-3
C123 0.907 0.221 0.215 !       0.94 eA-3
Q124 0.765 0.360 0.124 !       0.91 eA-3
C125 0.099 0.204 0.324 !       0.88 eA-3
C126 0.822 0.346 0.152 !       0.87 eA-3
Q127 0.770 0.423 0.130 !       0.86 eA-3
C128 0.114 0.344 0.289 !       0.85 eA-3
Q129 0.452 0.096 0.463 !       0.84 eA-3
C130 0.960 0.346 0.343 !       0.84 eA-3
C131 0.806 0.330 0.126 !       0.84 eA-3
Q132 0.113 0.032 0.500 !       0.83 eA-3
C133 0.920 0.362 0.155 !       0.83 eA-3
C134 0.041 0.272 0.099 !       0.81 eA-3
Q135 0.411 0.047 0.399 !       0.81 eA-3
Q136 0.988 0.417 0.474 !       0.79 eA-3
Q137 0.796 0.349 0.083 !       0.78 eA-3
Q138 0.204 0.339 0.427 !       0.77 eA-3
C139 0.187 0.226 0.392 !       0.76 eA-3
Q140 0.190 0.303 0.249 !       0.72 eA-3
C141 0.982 0.359 0.428 !       0.70 eA-3
C142 0.088 0.279 0.176 !       0.69 eA-3
C143 0.890 0.390 0.177 !       0.69 eA-3
C144 0.966 0.378 0.136 !       0.68 eA-3
C145 0.091 0.407 0.342 !       0.68 eA-3
Q146 0.934 0.393 0.094 !       0.67 eA-3
C147 0.172 0.276 0.372 !       0.67 eA-3
C148 0.890 0.278 0.281 !       0.64 eA-3
C149 0.149 0.301 0.310 !       0.62 eA-3
Q150 0.247 0.407 0.482 !       0.62 eA-3
Q151 0.039 0.066 0.221 !       0.62 eA-3
C152 0.945 0.083 0.157 !       0.61 eA-3
C153 0.852 0.269 0.100 !       0.61 eA-3
Q154 0.065 0.484 0.141 !       0.60 eA-3
Q155 0.814 0.170 0.312 !       0.60 eA-3
C156 1.003 0.296 0.358 !       0.59 eA-3
Q157 0.335 0.251 0.412 !       0.58 eA-3
C158 0.930 0.158 0.146 !       0.58 eA-3
C159 0.964 0.444 0.359 !       0.58 eA-3
Q160 0.485 0.030 0.482 !       0.54 eA-3
C161 0.890 0.296 0.144 !       0.54 eA-3
Q162 0.667 0.123 0.029 !       0.53 eA-3
Q163 0.999 0.237 0.488 !       0.53 eA-3
Q164 0.862 0.356 0.390 !       0.53 eA-3
C165 0.124 0.327 0.361 !       0.52 eA-3
Q166 0.553 0.423 0.439 !       0.52 eA-3
Q167 0.490 0.009 0.003 !       0.51 eA-3
C168 0.269 0.262 0.484 !       0.51 eA-3
Q169 0.141 0.168 0.391 !       0.51 eA-3
Q170 0.754 0.187 0.280 !       0.50 eA-3
C171 0.861 0.355 0.333 !       0.50 eA-3
)
;
_shelx_fab_checksum              93030
loop_
_space_group_symop_operation_xyz
'x, y, z'
'-x, y, -z+1/2'
'x+1/2, y+1/2, z'
'-x+1/2, y+1/2, -z+1/2'
'-x, -y, -z'
'x, -y, z-1/2'
'-x+1/2, -y+1/2, -z'
'x+1/2, -y+1/2, z-1/2'
loop_
_atom_site_label
_atom_site_type_symbol
_atom_site_fract_x
_atom_site_fract_y
_atom_site_fract_z
_atom_site_U_iso_or_equiv
_atom_site_adp_type
_atom_site_occupancy
_atom_site_site_symmetry_order
_atom_site_calc_flag
_atom_site_refinement_flags_posn
_atom_site_refinement_flags_adp
_atom_site_refinement_flags_occupancy
_atom_site_disorder_assembly
_atom_site_disorder_group
Li1 Li 0.4226(5) 0.3895(4) 0.2535(4) 0.0269(17) Uani 1 1 d . . . . .
Zn1 Zn 0.25807(3) 0.37637(3) 0.07843(3) 0.0253(2) Uani 1 1 d . . . . .
O11 O 0.53710(18) 0.39169(18) 0.34034(18) 0.0262(7) Uani 1 1 d . . . . .
O12 O 0.65636(19) 0.4045(2) 0.45749(19) 0.0344(8) Uani 1 1 d . . . . .
C11 C 0.5796(3) 0.4151(3) 0.4144(3) 0.0247(10) Uani 1 1 d . . . . .
C12 C 0.5386(3) 0.4598(3) 0.4583(3) 0.0281(10) Uani 1 1 d . . . . .
C13 C 0.4627(3) 0.4389(3) 0.4535(3) 0.0364(12) Uani 1 1 d . . . . .
H13 H 0.4364 0.3968 0.4217 0.044 Uiso 1 1 calc R U . . .
C14 C 0.5765(3) 0.5212(3) 0.5048(3) 0.0341(11) Uani 1 1 d . . . . .
Br1 Br 0.67825(8) 0.56297(7) 0.50995(9) 0.0560(4) Uani 0.5 1 d . . P . .
O21 O 0.2268(2) 0.4617(2) 0.1237(2) 0.0525(11) Uani 1 1 d . . . . .
O22 O 0.3506(2) 0.4693(2) 0.2324(2) 0.0440(10) Uani 1 1 d . . . . .
C21 C 0.2800(3) 0.4925(3) 0.1886(3) 0.0392(13) Uani 1 1 d . . . . .
C22 C 0.2549(3) 0.5633(3) 0.2134(3) 0.0395(13) Uani 1 1 d . . . . .
C23 C 0.2932(4) 0.5856(3) 0.2974(3) 0.0443(14) Uani 1 1 d . . . . .
H23 H 0.3348 0.5561 0.3389 0.053 Uiso 1 1 calc R U . . .
C24 C 0.2723(4) 0.6504(3) 0.3227(3) 0.0409(13) Uani 1 1 d . . . . .
H24 H 0.2994 0.6641 0.3817 0.049 Uiso 1 1 calc R U . . .
C25 C 0.2141(3) 0.6954(3) 0.2656(3) 0.0310(11) Uani 1 1 d . . . . .
C26 C 0.1811(14) 0.6766(14) 0.1714(10) 0.042(3) Uani 0.5 1 d . U P A 1
C27 C 0.2020(15) 0.6141(12) 0.1481(12) 0.037(4) Uani 0.5 1 d . U P A 1
Br2 Br 0.11089(11) 0.73439(9) 0.08025(9) 0.0521(6) Uani 0.3836(19) 1 d . U P A
1
Br3 Br 0.1358(3) 0.5955(2) 0.03080(18) 0.0779(14) Uani 0.264(3) 1 d . U P A 1
Br3' Br 0.2114(9) 0.6197(5) 0.0346(5) 0.089(3) Uani 0.090(2) 1 d . U P A 1
C26' C 0.1682(14) 0.6698(14) 0.1914(10) 0.047(4) Uani 0.5 1 d . U P A 2
H26' H 0.1224 0.6973 0.1523 0.056 Uiso 0.5 1 calc R U P A 2
C27' C 0.1851(15) 0.5982(13) 0.1656(13) 0.049(5) Uani 0.5 1 d . U P A 2
Br4 Br 0.0946(3) 0.5645(2) 0.0570(3) 0.0899(16) Uani 0.262(3) 1 d . U P A 2
C28 C 0.1940(3) 0.7663(3) 0.2951(3) 0.0296(11) Uani 1 1 d . . . . .
O23 O 0.2434(2) 0.78446(18) 0.3720(2) 0.0340(8) Uani 1 1 d . . . . .
O24 O 0.1326(2) 0.80167(19) 0.2467(2) 0.0351(8) Uani 1 1 d . . . . .
N1 N 0.1615(2) 0.3689(2) -0.0400(2) 0.0269(9) Uani 1 1 d . . . . .
C31 C 0.1157(3) 0.3093(3) -0.0712(3) 0.0276(10) Uani 1 1 d . . . . .
H31 H 0.1276 0.2675 -0.0357 0.033 Uiso 1 1 calc R U . . .
C32 C 0.0515(3) 0.3063(3) -0.1535(3) 0.0298(11) Uani 1 1 d . . . . .
H32 H 0.0200 0.2632 -0.1740 0.036 Uiso 1 1 calc R U . . .
C33 C 0.0341(3) 0.3672(3) -0.2053(3) 0.0290(11) Uani 1 1 d . . . . .
C34 C 0.0809(3) 0.4288(3) -0.1723(3) 0.0391(13) Uani 1 1 d . . . . .
H34 H 0.0699 0.4715 -0.2063 0.047 Uiso 1 1 calc R U . . .
C35 C 0.1436(3) 0.4277(3) -0.0898(3) 0.0365(12) Uani 1 1 d . . . . .
H35 H 0.1753 0.4705 -0.0675 0.044 Uiso 1 1 calc R U . . .
loop_
_atom_site_aniso_label
_atom_site_aniso_U_11
_atom_site_aniso_U_22
_atom_site_aniso_U_33
_atom_site_aniso_U_23
_atom_site_aniso_U_13
_atom_site_aniso_U_12
Li1 0.028(4) 0.027(4) 0.016(3) 0.000(3) 0.001(3) 0.003(3)
Zn1 0.0232(3) 0.0243(3) 0.0192(3) -0.0007(2) 0.0003(2) -0.0005(2)
O11 0.0190(15) 0.0347(18) 0.0186(15) -0.0059(13) 0.0022(12) 0.0011(13)
O12 0.0261(18) 0.051(2) 0.0162(15) -0.0067(15) -0.0004(13) 0.0123(16)
C11 0.026(2) 0.027(2) 0.017(2) 0.0039(18) 0.0045(18) 0.0054(19)
C12 0.025(2) 0.036(3) 0.014(2) -0.0021(19) -0.0005(17) 0.004(2)
C13 0.029(3) 0.038(3) 0.034(3) -0.010(2) 0.005(2) -0.006(2)
C14 0.023(2) 0.045(3) 0.032(3) -0.006(2) 0.010(2) -0.002(2)
Br1 0.0431(7) 0.0483(7) 0.0831(9) -0.0188(7) 0.0332(6) -0.0097(6)
O21 0.043(2) 0.051(3) 0.043(2) -0.0234(19) -0.0017(18) 0.0148(19)
O22 0.035(2) 0.040(2) 0.040(2) -0.0122(17) -0.0007(16) 0.0127(17)
C21 0.040(3) 0.034(3) 0.040(3) -0.008(2) 0.013(2) 0.007(2)
C22 0.039(3) 0.034(3) 0.034(3) -0.005(2) 0.004(2) 0.012(2)
C23 0.049(3) 0.038(3) 0.030(3) -0.002(2) 0.002(2) 0.016(3)
C24 0.057(3) 0.036(3) 0.024(2) -0.007(2) 0.013(2) 0.007(3)
C25 0.029(2) 0.034(3) 0.027(2) -0.008(2) 0.009(2) 0.007(2)
C26 0.060(5) 0.044(5) 0.015(5) -0.002(5) 0.010(4) 0.029(4)
C27 0.059(10) 0.038(9) 0.013(6) 0.003(5) 0.013(5) 0.007(7)
Br2 0.0670(11) 0.0489(10) 0.0275(7) 0.0047(6) 0.0081(7) 0.0304(8)
Br3 0.083(2) 0.075(2) 0.0368(14) -0.0215(13) -0.0116(14) 0.0396(19)
Br3' 0.139(7) 0.071(5) 0.034(4) -0.008(3) 0.016(4) 0.050(5)
C26' 0.060(6) 0.046(5) 0.021(7) -0.007(6) 0.004(5) 0.031(5)
C27' 0.056(10) 0.049(11) 0.027(9) -0.013(7) 0.003(6) 0.003(8)
Br4 0.068(2) 0.080(2) 0.067(2) -0.0461(18) -0.0233(16) 0.0273(18)
C28 0.028(2) 0.028(3) 0.030(2) -0.005(2) 0.010(2) 0.000(2)
O23 0.0344(18) 0.0304(19) 0.0291(18) -0.0080(14) 0.0060(15) 0.0022(15)
O24 0.0360(19) 0.0306(19) 0.0324(17) -0.0045(15) 0.0088(15) 0.0079(16)
N1 0.0220(19) 0.029(2) 0.0176(18) -0.0031(16) -0.0029(15) 0.0004(16)
C31 0.024(2) 0.030(3) 0.021(2) 0.0020(19) 0.0028(18) -0.002(2)
C32 0.026(2) 0.028(3) 0.027(2) -0.003(2) 0.0030(19) -0.004(2)
C33 0.025(2) 0.030(3) 0.021(2) -0.0011(19) 0.000(2) 0.003(2)
C34 0.040(3) 0.028(3) 0.030(3) 0.007(2) -0.003(2) -0.006(2)
C35 0.033(3) 0.027(3) 0.029(2) 0.002(2) -0.006(2) -0.008(2)
loop_
_atom_type_symbol
_atom_type_description
_atom_type_scat_dispersion_real
_atom_type_scat_dispersion_imag
_atom_type_scat_source
C C 0.0033 0.0016 'International Tables Vol C Tables 4.2.6.8 and 6.1.1.4'
H H 0.0000 0.0000 'International Tables Vol C Tables 4.2.6.8 and 6.1.1.4'
Li Li -0.0003 0.0001 'International Tables Vol C Tables 4.2.6.8 and 6.1.1.4'
N N 0.0061 0.0033 'International Tables Vol C Tables 4.2.6.8 and 6.1.1.4'
O O 0.0106 0.0060 'International Tables Vol C Tables 4.2.6.8 and 6.1.1.4'
Zn Zn 0.2839 1.4301 'International Tables Vol C Tables 4.2.6.8 and 6.1.1.4'
Br Br -0.2901 2.4595 'International Tables Vol C Tables 4.2.6.8 and 6.1.1.4'
loop_
_geom_angle_atom_site_label_1
_geom_angle_atom_site_label_2
_geom_angle_atom_site_label_3
_geom_angle
_geom_angle_site_symmetry_1
_geom_angle_site_symmetry_3
_geom_angle_publ_flag
Li1 Li1 Zn1 118.9(4) 2_655 . ?
O11 Li1 Li1 43.7(2) 2_655 2_655 ?
O11 Li1 Li1 46.1(2) . 2_655 ?
O11 Li1 Zn1 75.4(2) 2_655 . ?
O11 Li1 Zn1 164.8(4) . . ?
O11 Li1 O11 89.8(4) . 2_655 yes
O22 Li1 Li1 126.2(3) . 2_655 ?
O22 Li1 Zn1 66.6(2) . . ?
O22 Li1 O11 106.0(4) . 2_655 yes
O22 Li1 O11 122.3(4) . . yes
O22 Li1 O24 111.1(4) . 4_545 yes
O24 Li1 Li1 121.2(3) 4_545 2_655 ?
O24 Li1 Zn1 70.5(2) 4_545 . ?
O24 Li1 O11 112.1(4) 4_545 2_655 yes
O24 Li1 O11 113.1(4) 4_545 . yes
O12 Zn1 Li1 75.47(17) 2_655 . ?
O12 Zn1 N1 98.25(14) 2_655 . yes
O21 Zn1 Li1 82.32(18) . . ?
O21 Zn1 O12 107.93(18) . 2_655 yes
O21 Zn1 N1 101.01(15) . . yes
O23 Zn1 Li1 80.20(17) 4_545 . ?
O23 Zn1 O12 122.87(16) 4_545 2_655 yes
O23 Zn1 O21 118.98(18) 4_545 . yes
O23 Zn1 N1 102.63(15) 4_545 . yes
N1 Zn1 Li1 173.61(18) . . ?
Li1 O11 Li1 90.2(3) . 2_655 yes
C11 O11 Li1 123.5(4) . 2_655 ?
C11 O11 Li1 140.3(4) . . ?
C11 O12 Zn1 131.0(3) . 2_655 ?
O11 C11 O12 125.2(4) . . ?
O11 C11 C12 119.3(4) . . ?
O12 C11 C12 115.4(4) . . ?
C13 C12 C11 119.5(4) . . ?
C13 C12 C14 119.3(5) . . ?
C14 C12 C11 121.2(4) . . ?
C12 C13 H13 119.6 . . ?
C12 C13 C14 120.8(5) . 5_666 ?
C14 C13 H13 119.6 5_666 . ?
C12 C14 C13 119.9(5) . 5_666 ?
C12 C14 Br1 124.6(4) . . ?
C13 C14 Br1 115.3(4) 5_666 . ?
C14 Br1 Br3' 162.3(2) . 2_655 ?
C21 O21 Zn1 119.3(3) . . ?
C21 O22 Li1 145.2(4) . . ?
O21 C21 C22 116.5(5) . . ?
O22 C21 O21 124.8(5) . . ?
O22 C21 C22 118.7(5) . . ?
C23 C22 C21 119.2(5) . . ?
C23 C22 C27 118.8(10) . . ?
C27 C22 C21 121.1(9) . . ?
C27' C22 C21 124.2(11) . . ?
C27' C22 C23 114.6(11) . . ?
C22 C23 H23 119.5 . . ?
C22 C23 C24 121.0(5) . . ?
C24 C23 H23 119.5 . . ?
C23 C24 H24 119.0 . . ?
C25 C24 C23 121.9(5) . . ?
C25 C24 H24 119.0 . . ?
C24 C25 C26 117.3(10) . . ?
C24 C25 C28 120.5(4) . . ?
C26' C25 C24 117.1(12) . . ?
C26' C25 C28 121.2(11) . . ?
C28 C25 C26 121.6(10) . . ?
C25 C26 Br2 125.6(15) . . ?
C27 C26 C25 119.6(17) . . ?
C27 C26 Br2 114.8(13) . . ?
C22 C27 Br3 127.5(15) . . ?
C22 C27 Br3' 118.6(14) . . ?
C26 C27 C22 120.1(16) . . ?
C26 C27 Br3 110.8(16) . . ?
C26 C27 Br3' 113.3(12) . . ?
Br3 C27 Br3' 41.6(5) . . ?
Br3' Br3 C27 75.0(7) . . ?
C27 Br3' Br1 130.0(8) . 2_655 ?
Br3 Br3' Br1 133.7(5) . 2_655 ?
Br3 Br3' C27 63.4(8) . . ?
C25 C26' H26' 119.6 . . ?
C25 C26' C27' 120.7(19) . . ?
C27' C26' H26' 119.6 . . ?
C22 C27' C26' 120.7(18) . . ?
C22 C27' Br4 127.0(16) . . ?
C26' C27' Br4 112.3(17) . . ?
O23 C28 C25 114.8(4) . . ?
O24 C28 C25 120.2(4) . . ?
O24 C28 O23 124.9(4) . . ?
C28 O23 Zn1 124.1(3) . 4 ?
C28 O24 Li1 139.5(4) . 4 ?
C31 N1 Zn1 124.5(3) . . ?
C35 N1 Zn1 116.9(3) . . ?
C35 N1 C31 118.5(4) . . ?
N1 C31 H31 118.8 . . ?
N1 C31 C32 122.4(4) . . ?
C32 C31 H31 118.8 . . ?
C31 C32 H32 120.6 . . ?
C33 C32 C31 118.8(4) . . ?
C33 C32 H32 120.6 . . ?
C32 C33 C33 121.3(3) . 2_554 ?
C34 C33 C32 118.5(4) . . ?
C34 C33 C33 120.2(3) . 2_554 ?
C33 C34 H34 120.3 . . ?
C35 C34 C33 119.4(5) . . ?
C35 C34 H34 120.3 . . ?
N1 C35 C34 122.3(5) . . ?
N1 C35 H35 118.8 . . ?
C34 C35 H35 118.8 . . ?
loop_
_geom_bond_atom_site_label_1
_geom_bond_atom_site_label_2
_geom_bond_distance
_geom_bond_site_symmetry_2
_geom_bond_publ_flag
Li1 Li1 2.809(16) 2_655 ?
Li1 Zn1 3.179(7) . ?
Li1 O11 1.942(8) . yes
Li1 O11 2.024(8) 2_655 yes
Li1 O22 1.884(8) . yes
Li1 O24 1.896(9) 4_545 yes
Zn1 O12 1.944(3) 2_655 yes
Zn1 O21 1.941(4) . yes
Zn1 O23 1.904(3) 4_545 yes
Zn1 N1 2.026(3) . yes
O11 Li1 2.024(8) 2_655 ?
O11 C11 1.244(5) . ?
O12 Zn1 1.944(3) 2_655 ?
O12 C11 1.259(5) . ?
C11 C12 1.502(6) . ?
C12 C13 1.373(7) . ?
C12 C14 1.384(7) . ?
C13 H13 0.9500 . ?
C13 C14 1.403(7) 5_666 ?
C14 C13 1.403(7) 5_666 ?
C14 Br1 1.937(5) . ?
Br1 Br3' 2.614(12) 2_655 ?
O21 C21 1.248(6) . ?
O22 C21 1.232(6) . ?
C21 C22 1.501(7) . ?
C22 C23 1.367(7) . ?
C22 C27 1.46(2) . ?
C22 C27' 1.33(3) . ?
C23 H23 0.9500 . ?
C23 C24 1.377(8) . ?
C24 H24 0.9500 . ?
C24 C25 1.362(7) . ?
C25 C26 1.504(17) . ?
C25 C26' 1.27(2) . ?
C25 C28 1.502(7) . ?
C26 C27 1.33(3) . ?
C26 Br2 1.86(2) . ?
C27 Br3 1.88(2) . ?
C27 Br3' 2.027(18) . ?
Br3 Br3' 1.393(15) . ?
Br3' Br1 2.614(12) 2_655 ?
C26' H26' 0.9500 . ?
C26' C27' 1.47(3) . ?
C27' Br4 1.97(2) . ?
C28 O23 1.277(5) . ?
C28 O24 1.238(6) . ?
O23 Zn1 1.904(3) 4 ?
O24 Li1 1.896(9) 4 ?
N1 C31 1.338(6) . ?
N1 C35 1.334(6) . ?
C31 H31 0.9500 . ?
C31 C32 1.384(6) . ?
C32 H32 0.9500 . ?
C32 C33 1.384(7) . ?
C33 C33 1.492(8) 2_554 ?
C33 C34 1.380(7) . ?
C34 H34 0.9500 . ?
C34 C35 1.378(7) . ?
C35 H35 0.9500 . ?
