#------------------------------------------------------------------------------
#$Date: 2017-03-04 15:23:06 +0200 (Sat, 04 Mar 2017) $
#$Revision: 193451 $
#$URL: file:///home/coder/svn-repositories/cod/cif/4/34/50/4345055.cif $
#------------------------------------------------------------------------------
#
# This file is available in the Crystallography Open Database (COD),
# http://www.crystallography.net/
#
# All data on this site have been placed in the public domain by the
# contributors.
#
data_4345055
loop_
_publ_author_name
'Cheng, Qing'
'Han, Xiao'
'Tong, Yue'
'Huang, Chao'
'Ding, Jie'
'Hou, Hongwei'
_publ_section_title
;
 Two 3D Cd(II) Metal-Organic Frameworks Linked by Benzothiadiazole
 Dicarboxylates: Fantastic S@Cd6 Cage, Benzothiadiazole Antidimmer, and
 Dual Emission.
;
_journal_issue                   3
_journal_name_full               'Inorganic chemistry'
_journal_page_first              1696
_journal_page_last               1705
_journal_paper_doi               10.1021/acs.inorgchem.6b02863
_journal_volume                  56
_journal_year                    2017
_chemical_formula_moiety
'0.33(C144 H36 Cd18 N36 O72 S21), 3(O), 3(H2 O)'
_chemical_formula_sum            'C48 H24 Cd6 N12 O30 S7'
_chemical_formula_weight         2147.61
_space_group_crystal_system      trigonal
_space_group_IT_number           148
_space_group_name_Hall           '-R 3'
_space_group_name_H-M_alt        'R -3'
_symmetry_space_group_name_Hall  '-R 3'
_symmetry_space_group_name_H-M   'R -3 :H'
_atom_sites_solution_hydrogens   mixed
_audit_creation_date             2016-11-21
_audit_creation_method
;
Olex2 1.2
(compiled 2016.11.07 svn.r3352 for OlexSys, GUI svn.r5261)
;
_cell_angle_alpha                90
_cell_angle_beta                 90
_cell_angle_gamma                120
_cell_formula_units_Z            3
_cell_length_a                   19.377(3)
_cell_length_b                   19.377(3)
_cell_length_c                   19.810(4)
_cell_measurement_reflns_used    6167
_cell_measurement_temperature    293.1500
_cell_measurement_theta_max      27.8924
_cell_measurement_theta_min      2.1020
_cell_volume                     6441.5(19)
_computing_cell_refinement       'CrystalClear (Rigaku/MSC Inc., 2006)'
_computing_data_collection       'CrystalClear (Rigaku/MSC Inc., 2006)'
_computing_data_reduction        'CrystalClear (Rigaku/MSC Inc., 2006)'
_computing_molecular_graphics    'Olex2 (Dolomanov et al., 2009)'
_computing_publication_material  'Olex2 (Dolomanov et al., 2009)'
_computing_structure_refinement  'ShelXL (Sheldrick, 2015)'
_computing_structure_solution
;
????
;
_diffrn_ambient_temperature      293.1500
_diffrn_detector_area_resol_mean 28.5714
_diffrn_measured_fraction_theta_full 0.998
_diffrn_measured_fraction_theta_max 0.995
_diffrn_measurement_details
;
scan:
    Number of images: 360
               Slice: -110.0000 - 70.0000
         Image width: 0.5000
            Exp time: 10.0000
       Rotation axis: Omega
               Omega: 0.0000
                 Chi: 45.0000
                 Phi: 0.0000
                 XTD: 45.1929
              2theta: -19.8941
scan:
    Number of images: 189
               Slice: -110.0000 - -15.5000
         Image width: 0.5000
            Exp time: 10.0000
       Rotation axis: Omega
               Omega: 0.0000
                 Chi: 45.0000
                 Phi: 90.0000
                 XTD: 45.1929
              2theta: -19.8941
;
_diffrn_measurement_device
;
Saturn724 (4x4 bin mode)
;
_diffrn_measurement_device_details
;
AFC10: Fixed Chi 2 circle
;
_diffrn_measurement_device_type  'Bruker APEX-II CCD'
_diffrn_measurement_method       dtprofit.ref
_diffrn_orient_matrix_type       d*Trek
_diffrn_orient_matrix_UB_11      -0.0013
_diffrn_orient_matrix_UB_12      0.0584
_diffrn_orient_matrix_UB_13      -0.0119
_diffrn_orient_matrix_UB_21      -0.0008
_diffrn_orient_matrix_UB_22      0.0395
_diffrn_orient_matrix_UB_23      0.0446
_diffrn_orient_matrix_UB_31      0.0505
_diffrn_orient_matrix_UB_32      0.0011
_diffrn_orient_matrix_UB_33      -0.0001
_diffrn_radiation_detector       CCD
_diffrn_radiation_monochromator  'Graphite Monochromator'
_diffrn_radiation_type           MoK\a
_diffrn_radiation_wavelength     0.71073
_diffrn_reflns_av_R_equivalents  0.0364
_diffrn_reflns_av_unetI/netI     0.0348
_diffrn_reflns_Laue_measured_fraction_full 0.998
_diffrn_reflns_Laue_measured_fraction_max 0.995
_diffrn_reflns_limit_h_max       13
_diffrn_reflns_limit_h_min       -25
_diffrn_reflns_limit_k_max       25
_diffrn_reflns_limit_k_min       -25
_diffrn_reflns_limit_l_max       25
_diffrn_reflns_limit_l_min       -25
_diffrn_reflns_number            13585
_diffrn_reflns_point_group_measured_fraction_full 0.998
_diffrn_reflns_point_group_measured_fraction_max 0.995
_diffrn_reflns_theta_full        25.242
_diffrn_reflns_theta_max         27.900
_diffrn_reflns_theta_min         2.102
_diffrn_source                   'Sealed Tube'
_diffrn_source_current           40.0000
_diffrn_source_power             2.0000
_diffrn_source_voltage           50.0000
_diffrn_standards_number         0
_exptl_absorpt_coefficient_mu    1.704
_exptl_absorpt_correction_T_max  1.0000
_exptl_absorpt_correction_T_min  0.8366
_exptl_absorpt_correction_type   multi-scan
_exptl_crystal_colour            Colorless
_exptl_crystal_density_diffrn    1.661
_exptl_crystal_description       Prism
_exptl_crystal_F_000             3108
_exptl_crystal_size_max          0.2
_exptl_crystal_size_mid          0.2
_exptl_crystal_size_min          0.2
_refine_diff_density_max         1.178
_refine_diff_density_min         -0.639
_refine_diff_density_rms         0.116
_refine_ls_extinction_method     none
_refine_ls_goodness_of_fit_ref   1.116
_refine_ls_hydrogen_treatment    constr
_refine_ls_matrix_type           full
_refine_ls_number_parameters     165
_refine_ls_number_reflns         3413
_refine_ls_number_restraints     0
_refine_ls_restrained_S_all      1.116
_refine_ls_R_factor_all          0.0447
_refine_ls_R_factor_gt           0.0401
_refine_ls_shift/su_max          0.002
_refine_ls_shift/su_mean         0.000
_refine_ls_structure_factor_coef Fsqd
_refine_ls_weighting_details
'w=1/[\s^2^(Fo^2^)+(0.0515P)^2^+15.0957P] where P=(Fo^2^+2Fc^2^)/3'
_refine_ls_weighting_scheme      calc
_refine_ls_wR_factor_gt          0.1017
_refine_ls_wR_factor_ref         0.1050
_reflns_Friedel_coverage         0.000
_reflns_number_gt                3124
_reflns_number_total             3413
_reflns_threshold_expression     'I > 2\s(I)'
_iucr_refine_instructions_details
;

    a_sq.res created by SHELXL-2014/7

TITL a in R-3
CELL 0.71073 19.3769 19.3769 19.8103 90 90 120
ZERR 3 0.00274 0.00274 0.00396 0 0 0
LATT 3
SYMM -Y,+X-Y,+Z
SYMM +Y-X,-X,+Z
SFAC C H N O S Cd
UNIT 144 72 36 90 21 18
 
L.S. 20 0 15
PLAN  10
TEMP 20
HTAB O6 O5
BOND $H
conf
ABIN
fmap 2
acta
MORE -1
OMIT 1 1 3
OMIT 0 2 1
OMIT -1 1 1
REM <olex2.extras>
REM <HklSrc "%.\\a_sq.hkl">
REM </olex2.extras>
 
WGHT    0.051500   15.095700
FVAR       0.09089
CD1   6    0.317037    0.778615    0.582148    11.00000    0.02336    0.02390 =
         0.02552    0.00006    0.00225    0.01020
O1    4    0.545855    0.808538    0.511333    11.00000    0.04291    0.04834 =
         0.06460    0.02471    0.01130    0.03026
O2    4    0.419788    0.766864    0.533267    11.00000    0.03471    0.02835 =
         0.03893    0.01031    0.00837    0.01700
O3    4    0.583110    1.143751    0.337667    11.00000    0.03426    0.02277 =
         0.03232    0.00277   -0.00186    0.01098
O4    4    0.470078    1.062999    0.286591    11.00000    0.03344    0.03603 =
         0.03784    0.00777   -0.00485    0.01366
N1    3    0.361068    0.870398    0.493053    11.00000    0.03198    0.04343 =
         0.03615    0.01512    0.01069    0.02226
N2    3    0.376516    0.977098    0.415892    11.00000    0.03734    0.04666 =
         0.04030    0.01352    0.00605    0.02556
S1    5    0.313853    0.915148    0.468505    11.00000    0.04301    0.06935 =
         0.05864    0.03079    0.02028    0.03999
S2    5    0.333333    0.666667    0.666667    10.16667    0.01920    0.01920 =
         0.02152    0.00000    0.00000    0.00960
C1    1    0.485966    0.815969    0.504937    11.00000    0.03440    0.02602 =
         0.02955    0.00170    0.00236    0.01733
C2    1    0.491048    0.881481    0.462457    11.00000    0.02646    0.02869 =
         0.02941    0.00399    0.00326    0.01306
C3    1    0.557272    0.924802    0.423061    11.00000    0.03322    0.03536 =
         0.05387    0.01389    0.00791    0.02016
AFIX  43
H3    2    0.597737    0.912271    0.424465    11.00000   -1.20000
AFIX   0
C4    1    0.567031    0.988081    0.380091    11.00000    0.02834    0.03311 =
         0.05277    0.01693    0.01137    0.01320
AFIX  43
H4    2    0.613313    1.015454    0.354601    11.00000   -1.20000
AFIX   0
C5    1    0.510008    1.009202    0.375640    11.00000    0.02681    0.02105 =
         0.03246    0.00562   -0.00248    0.00683
C6    1    0.439518    0.965309    0.414460    11.00000    0.02869    0.02861 =
         0.02856    0.00149   -0.00066    0.01404
C7    1    0.430251    0.902802    0.458525    11.00000    0.02715    0.02718 =
         0.02603    0.00247    0.00106    0.01286
C8    1    0.521126    1.075918    0.330450    11.00000    0.02709    0.02437 =
         0.03195    0.00405    0.00160    0.01387
 
O5    4    0.716994    0.912111    0.519246    10.50000    0.02972    0.09296 =
         0.10608    0.04008    0.00756    0.01815
O6    4    0.791619    1.026866    0.413258    10.50000    0.20628    0.17723 =
         0.09789    0.08972    0.09095    0.17079
AFIX   3
H6A   2    0.763499    0.996236    0.445058    10.50000   -1.20000
H6B   2    0.777609    1.060906    0.403838    10.50000   -1.20000
AFIX   0
HKLF 4
 
REM  a in R-3
REM R1 =  0.0401 for    3124 Fo > 4sig(Fo)  and  0.0447 for all    3413 data
REM    165 parameters refined using      0 restraints
 
END  
     
WGHT      0.0506     11.7527 

REM Highest difference peak  1.178,  deepest hole -0.639,  1-sigma level  0.116
Q1    1   0.4405  1.0776  0.4162  11.00000  0.05    1.18
Q2    1   0.7096  0.8898  0.4867  11.00000  0.05    0.79
Q3    1   0.5880  0.9840  0.4190  11.00000  0.05    0.67
Q4    1   0.7226  0.8752  0.5298  11.00000  0.05    0.66
Q5    1   0.8159  1.0331  0.4414  11.00000  0.05    0.59
Q6    1   0.8264  1.1211  0.4169  11.00000  0.05    0.58
Q7    1   0.4263  0.9117  0.4184  11.00000  0.05    0.55
Q8    1   0.7234  0.9479  0.5108  11.00000  0.05    0.54
Q9    1   0.7989  1.0524  0.4350  11.00000  0.05    0.54
Q10   1   0.7512  0.9277  0.5061  11.00000  0.05    0.52

  REM The information below was added by Olex2.
  REM
  REM R1 = 0.0401 for 3124 Fo > 4sig(Fo) and 0.0447 for all 13606 data
  REM n/a parameters refined using n/a restraints
  REM Highest difference peak 1.18, deepest hole -0.64
  REM Mean Shift 0, Max Shift -0.002.
  
  REM +++ Tabular Listing of Refinement Information +++
  REM R1_all = 0.0447
  REM R1_gt = 0.0401
  REM wR_ref = 0.1050
  REM GOOF = 1.116
  REM Shift_max = -0.002
  REM Shift_mean = 0
  REM Reflections_all = 13606
  REM Reflections_gt = 3124
  REM Parameters = n/a
  REM Hole = -0.64
  REM Peak = 1.18
  REM Flack = n/a
  
  
;
_cod_data_source_file            ic6b02863_si_003.cif
_cod_data_source_block           a_sq
_cod_depositor_comments
;
The following automatic conversions were performed:

'_exptl_absorpt_correction_type' value 'Multi-scan' changed to
'multi-scan' according to
/usr/data/users/saulius/crontab/automatic-downloads/rss-feeds/ACS/lib/dictionaries/cif_core.dic
dictionary named 'cif_core.dic' version 2.4.2 from 2011-04-26.

Automatic conversion script
Id: cif_fix_values 4268 2015-11-12 08:31:59Z antanas 

 Adding full bibliography for 4345055.cif.
;
_cod_original_cell_volume        6442(2)
_cod_database_code               4345055
_shelx_space_group_comment
;
The symmetry employed for this shelxl refinement is uniquely defined
by the following loop, which should always be used as a source of
symmetry information in preference to the above space-group names.
They are only intended as comments.
;
_diffrn_number_total             3416
_olex2_refinement_description
;
1. Fixed Uiso
 At 1.2 times of:
  All C(H) groups, All O(H,H) groups
2. Others
 Fixed Sof: O5(0.5) O6(0.5) H6a(0.5) H6b(0.5)
3.a Riding coordinates:
 O6(H6a,H6b)
3.b Aromatic/amide H refined with riding coordinates:
 C3(H3), C4(H4)
;
_shelx_fab_checksum              59372
_shelx_fab_file
;
    0    0    3     97.54      0.00
    0    0    6     21.94      0.00
    0    0    9     11.85      0.00
    0    0   12     -6.91      0.00
    0    0   18     -8.79      0.00
    0    0   21      1.21      0.00
    0    1   23      1.18      0.00
    0    1   20     -3.56      0.00
    0    1   17      0.74      0.00
    0    1   14    -12.53      0.00
    0    1   11     13.13      0.00
    0    1    8     -1.80      0.00
    0    1    5    -26.70      0.00
    0    1    2    -20.98      0.00
   -1    1    4    -18.69      0.00
   -1    1    7      0.45      0.00
   -1    1   10    -15.16      0.00
   -1    1   13      4.56      0.00
   -1    1   16     -4.23      0.00
   -1    1   19      7.05      0.00
   -1    1   22     -2.34      0.00
    1    1   21      5.67      0.00
    1    1   18     -0.93      0.00
    1    1   15      6.96      0.00
    1    1   12     -4.23      0.00
    1    1    9     -2.10      0.00
    1    1    6     -1.40      0.00
   -1    2    0     79.51      0.00
   -1    2    3     26.71      0.00
   -1    2    6      4.63      0.00
   -1    2    9     -8.37      0.00
   -1    2   12     -5.29      0.00
   -1    2   15      7.32      0.00
   -1    2   18     -0.54      0.00
   -1    2   21      3.84      0.00
   -1    2   24      0.62      0.00
    0    2   22     -8.05      0.00
    0    2   19      0.77      0.00
    0    2   16     -0.46      0.00
    0    2   13     -1.20      0.00
    0    2   10      5.29      0.00
    0    2    7      8.54      0.00
    0    2    4     58.86      0.00
   -2    2    2     40.39      0.00
   -2    2    5      2.85      0.00
   -2    2    8      5.06      0.00
   -2    2   11     18.49      0.00
   -2    2   14     -0.09      0.00
   -2    2   17     -3.83      0.00
   -2    2   20     -3.11      0.00
   -2    2   23     -3.53      0.00
   -3    2   22     -1.85      0.00
   -3    2   19     -0.49      0.00
   -3    2   16      0.93      0.00
   -3    2   13     -8.60      0.00
   -3    2   10     -6.48      0.00
   -3    2    7     28.03      0.00
   -3    2    4     48.70      0.00
   -3    2    1    -14.47      0.00
   -1    3    2    -82.57      0.00
   -1    3    5    -38.78      0.00
   -1    3    8     22.76      0.00
   -1    3   11      5.15      0.00
   -1    3   14      4.86      0.00
   -1    3   17     -2.41      0.00
   -1    3   20     -0.37      0.00
   -1    3   23      0.27      0.00
    1    2   23      2.07      0.00
    1    2   20     -1.46      0.00
    1    2   17     -1.90      0.00
    1    2   14      3.71      0.00
    1    2   11      0.81      0.00
    1    2    8     -3.05      0.00
    1    2    5    -60.60      0.00
    1    2    2    -51.79      0.00
   -2    3    1    -10.82      0.00
   -2    3    4     -3.72      0.00
   -2    3    7      0.06      0.00
   -2    3   10     -8.40      0.00
   -2    3   13     -9.76      0.00
   -2    3   16     -0.13      0.00
   -2    3   19     -1.39      0.00
   -2    3   22      2.06      0.00
   -2    3   25      4.11      0.00
    0    3   24      1.98      0.00
    0    3   21      7.17      0.00
    0    3   18     -1.18      0.00
    0    3   15     -3.67      0.00
    0    3   12      2.09      0.00
    0    3    9    -32.62      0.00
    0    3    6      9.50      0.00
    0    3    3      3.74      0.00
    0    3    0    -27.88      0.00
   -3    3    3    -26.31      0.00
   -3    3    6    -39.56      0.00
   -3    3    9     -6.06      0.00
   -3    3   12     -3.63      0.00
   -3    3   15      0.48      0.00
   -3    3   18      6.24      0.00
   -3    3   21     -1.54      0.00
   -3    3   24      1.60      0.00
   -4    3   23      0.38      0.00
   -4    3   20      2.35      0.00
   -4    3   17     -7.87      0.00
   -4    3   14      8.75      0.00
   -4    3   11     15.29      0.00
   -4    3    8     -8.36      0.00
   -4    3    5     -6.11      0.00
   -4    3    2    -17.71      0.00
   -1    4    1     41.32      0.00
   -1    4    4     21.99      0.00
   -1    4    7    -11.85      0.00
   -1    4   10     16.57      0.00
   -1    4   13    -10.58      0.00
   -1    4   16      2.60      0.00
   -1    4   19      1.83      0.00
   -1    4   22     -3.78      0.00
    2    2   24     -0.51      0.00
    2    2   21      1.46      0.00
    2    2   18      2.36      0.00
    2    2   15     -0.10      0.00
    2    2   12      0.73      0.00
    2    2    9    -11.03      0.00
    2    2    6     -7.52      0.00
    2    2    3      2.22      0.00
   -2    4    0     18.93      0.00
   -2    4    3     50.37      0.00
   -2    4    6      4.52      0.00
   -2    4    9    -20.69      0.00
   -2    4   12      2.00      0.00
   -2    4   15      0.41      0.00
   -2    4   18      2.83      0.00
   -2    4   21     -1.70      0.00
   -2    4   24     -0.82      0.00
    1    3   22     -6.56      0.00
    1    3   19      1.34      0.00
    1    3   16      1.27      0.00
    1    3   13     -6.18      0.00
    1    3   10     23.20      0.00
    1    3    7     20.50      0.00
    1    3    4     55.51      0.00
    1    3    1     34.61      0.00
   -3    4    2     -9.04      0.00
   -3    4    5     28.72      0.00
   -3    4    8     14.42      0.00
   -3    4   11     19.79      0.00
   -3    4   14      9.11      0.00
   -3    4   17     -6.31      0.00
   -3    4   20      3.73      0.00
   -3    4   23     -3.96      0.00
    0    4   23      0.98      0.00
    0    4   20     -3.77      0.00
    0    4   17      0.55      0.00
    0    4   14      7.86      0.00
    0    4   11     -7.74      0.00
    0    4    8     24.17      0.00
    0    4    5    -17.43      0.00
    0    4    2    -14.29      0.00
   -4    4    1     22.86      0.00
   -4    4    4      4.93      0.00
   -4    4    7     31.96      0.00
   -4    4   10    -14.02      0.00
   -4    4   13    -15.07      0.00
   -4    4   16      3.13      0.00
   -4    4   19     -4.12      0.00
   -4    4   22      1.86      0.00
   -4    4   25      1.91      0.00
   -5    4   24      0.19      0.00
   -5    4   21      0.14      0.00
   -5    4   18      5.69      0.00
   -5    4   15     -0.08      0.00
   -5    4   12      3.71      0.00
   -5    4    9      2.13      0.00
   -5    4    6    -19.85      0.00
   -5    4    3     26.96      0.00
   -1    5    0     -6.72      0.00
   -1    5    3    -18.33      0.00
   -1    5    6     -9.96      0.00
   -1    5    9    -31.77      0.00
   -1    5   12      5.36      0.00
   -1    5   15      0.77      0.00
   -1    5   18     -2.24      0.00
   -1    5   21      1.15      0.00
   -1    5   24     -3.39      0.00
   -5    3   22     -3.12      0.00
   -5    3   19     -1.36      0.00
   -5    3   16      1.57      0.00
   -5    3   13     -7.97      0.00
   -5    3   10     -4.08      0.00
   -5    3    7     16.21      0.00
   -5    3    4      6.26      0.00
   -5    3    1      8.94      0.00
   -2    5    2    -22.04      0.00
   -2    5    5    -11.07      0.00
   -2    5    8     25.12      0.00
   -2    5   11      5.55      0.00
   -2    5   14      3.12      0.00
   -2    5   17     -3.90      0.00
   -2    5   20      1.05      0.00
   -2    5   23      2.50      0.00
    2    3   23      4.51      0.00
    2    3   20      0.70      0.00
    2    3   17     -0.73      0.00
    2    3   14      0.31      0.00
    2    3   11      1.45      0.00
    2    3    8      4.82      0.00
    2    3    5    -15.90      0.00
    2    3    2    -30.10      0.00
   -3    5    1    -33.96      0.00
   -3    5    4    -26.45      0.00
   -3    5    7     -5.13      0.00
   -3    5   10    -13.01      0.00
   -3    5   13    -12.66      0.00
   -3    5   16     -0.73      0.00
   -3    5   19     -1.80      0.00
   -3    5   22      1.31      0.00
   -3    5   25      4.51      0.00
    1    4   24     -0.39      0.00
    1    4   21      2.79      0.00
    1    4   18     -4.06      0.00
    1    4   15      1.02      0.00
    1    4   12     -0.71      0.00
    1    4    9    -37.94      0.00
    1    4    6    -39.01      0.00
    1    4    3    -35.46      0.00
   -4    5    0      9.65      0.00
   -4    5    3     11.32      0.00
   -4    5    6    -37.96      0.00
   -4    5    9     -4.00      0.00
   -4    5   12      2.15      0.00
   -4    5   15      2.63      0.00
   -4    5   18      4.76      0.00
   -4    5   21     -1.92      0.00
   -4    5   24      1.17      0.00
    0    5   25      5.20      0.00
    0    5   22      0.41      0.00
    0    5   19      5.68      0.00
    0    5   16     -1.79      0.00
    0    5   13     -7.84      0.00
    0    5   10     22.37      0.00
    0    5    7     28.97      0.00
    0    5    4     39.80      0.00
    0    5    1     -4.96      0.00
   -5    5    2    -36.12      0.00
   -5    5    5      6.87      0.00
   -5    5    8     -7.38      0.00
   -5    5   11      6.40      0.00
   -5    5   14      5.12      0.00
   -5    5   17     -7.03      0.00
   -5    5   20     -0.20      0.00
   -5    5   23     -1.57      0.00
   -6    5   25     -1.79      0.00
   -6    5   22     -1.64      0.00
   -6    5   19      0.13      0.00
   -6    5   16      2.52      0.00
   -6    5   13     -7.61      0.00
   -6    5   10     -0.71      0.00
   -6    5    7      7.69      0.00
   -6    5    4     -4.10      0.00
   -6    5    1     15.63      0.00
   -1    6    2     -7.57      0.00
   -1    6    5    -23.74      0.00
   -1    6    8     -4.10      0.00
   -1    6   11     -1.69      0.00
   -1    6   14      1.25      0.00
   -1    6   17     -1.68      0.00
   -1    6   20     -1.03      0.00
   -1    6   23      2.40      0.00
   -6    4   23      1.46      0.00
   -6    4   20      0.79      0.00
   -6    4   17     -2.47      0.00
   -6    4   14     -2.35      0.00
   -6    4   11      4.62      0.00
   -6    4    8      2.17      0.00
   -6    4    5     -0.84      0.00
   -6    4    2    -37.10      0.00
   -2    6    1     -7.75      0.00
   -2    6    4     39.51      0.00
   -2    6    7      9.06      0.00
   -2    6   10      2.03      0.00
   -2    6   13     -5.80      0.00
   -2    6   16     -1.56      0.00
   -2    6   19      2.67      0.00
   -2    6   22     -2.39      0.00
   -2    6   25      4.12      0.00
    3    3   24      1.13      0.00
    3    3   21     -0.87      0.00
    3    3   18     -3.76      0.00
    3    3   15      7.79      0.00
    3    3   12     -1.62      0.00
    3    3    9    -10.87      0.00
    3    3    6    -14.27      0.00
    3    3    3     12.03      0.00
   -3    6    0     35.86      0.00
   -3    6    3     -1.89      0.00
   -3    6    6     -3.34      0.00
   -3    6    9     -6.19      0.00
   -3    6   12      1.34      0.00
   -3    6   15      9.47      0.00
   -3    6   18      0.41      0.00
   -3    6   21     -1.64      0.00
   -3    6   24     -2.78      0.00
    2    4   25     -3.22      0.00
    2    4   22     -1.98      0.00
    2    4   19      5.79      0.00
    2    4   16     -2.49      0.00
    2    4   13      1.14      0.00
    2    4   10     10.41      0.00
    2    4    7     33.43      0.00
    2    4    4     44.73      0.00
    2    4    1      6.34      0.00
   -4    6    2     20.90      0.00
   -4    6    5     19.53      0.00
   -4    6    8     12.68      0.00
   -4    6   11     16.04      0.00
   -4    6   14     -1.11      0.00
   -4    6   17     -2.10      0.00
   -4    6   20      0.95      0.00
   -4    6   23     -0.97      0.00
    1    5   23     -1.36      0.00
    1    5   20     -3.94      0.00
    1    5   17     -0.21      0.00
    1    5   14      0.63      0.00
    1    5   11      4.02      0.00
    1    5    8     -0.56      0.00
    1    5    5     -5.05      0.00
    1    5    2      4.23      0.00
   -5    6    1     -6.18      0.00
   -5    6    4      5.18      0.00
   -5    6    7     17.11      0.00
   -5    6   10     -4.23      0.00
   -5    6   13     -7.65      0.00
   -5    6   16     -0.17      0.00
   -5    6   19      1.65      0.00
   -5    6   22      0.36      0.00
   -5    6   25     -0.11      0.00
    0    6   24     -3.13      0.00
    0    6   21     -3.06      0.00
    0    6   18      0.42      0.00
    0    6   15      4.23      0.00
    0    6   12      1.67      0.00
    0    6    9     -7.75      0.00
    0    6    6    -17.55      0.00
    0    6    3      7.23      0.00
    0    6    0     14.56      0.00
   -6    6    3     15.64      0.00
   -6    6    6     -1.55      0.00
   -6    6    9     -6.81      0.00
   -6    6   12      7.64      0.00
   -6    6   15      1.51      0.00
   -6    6   18      0.64      0.00
   -6    6   21      2.68      0.00
   -6    6   24      2.74      0.00
   -7    6   23     -0.67      0.00
   -7    6   20     -2.27      0.00
   -7    6   17     -3.32      0.00
   -7    6   14     -1.09      0.00
   -7    6   11     -4.40      0.00
   -7    6    8     11.76      0.00
   -7    6    5    -15.33      0.00
   -7    6    2    -19.28      0.00
   -1    7    1      2.96      0.00
   -1    7    4     -4.25      0.00
   -1    7    7     13.47      0.00
   -1    7   10     -6.25      0.00
   -1    7   13     -4.08      0.00
   -1    7   16      2.47      0.00
   -1    7   19      1.12      0.00
   -1    7   22      1.21      0.00
   -7    5   24      0.28      0.00
   -7    5   21      0.08      0.00
   -7    5   18     -1.30      0.00
   -7    5   15      6.42      0.00
   -7    5   12      3.05      0.00
   -7    5    9     -9.65      0.00
   -7    5    6     -0.64      0.00
   -7    5    3     19.04      0.00
   -2    7    0     22.68      0.00
   -2    7    3      2.23      0.00
   -2    7    6      4.72      0.00
   -2    7    9      6.02      0.00
   -2    7   12      1.23      0.00
   -2    7   15      4.27      0.00
   -2    7   18     -1.53      0.00
   -2    7   21     -0.68      0.00
   -2    7   24     -2.00      0.00
   -7    4   25     -3.27      0.00
   -7    4   22      0.43      0.00
   -7    4   19      4.46      0.00
   -7    4   16     -4.30      0.00
   -7    4   13      2.97      0.00
   -7    4   10      0.19      0.00
   -7    4    7     10.86      0.00
   -7    4    4     12.04      0.00
   -7    4    1     -9.34      0.00
   -3    7    2     -1.12      0.00
   -3    7    5    -33.88      0.00
   -3    7    8     -6.94      0.00
   -3    7   11      7.60      0.00
   -3    7   14     -6.30      0.00
   -3    7   17      0.56      0.00
   -3    7   20      0.75      0.00
   -3    7   23      3.60      0.00
    3    4   23     -1.23      0.00
    3    4   20     -2.29      0.00
    3    4   17      1.36      0.00
    3    4   14    -10.22      0.00
    3    4   11      8.49      0.00
    3    4    8     -8.13      0.00
    3    4    5    -27.84      0.00
    3    4    2    -13.28      0.00
   -4    7    1    -30.26      0.00
   -4    7    4     20.72      0.00
   -4    7    7      5.09      0.00
   -4    7   10    -10.66      0.00
   -4    7   13     -0.60      0.00
   -4    7   16     -6.04      0.00
   -4    7   19      2.63      0.00
   -4    7   22     -0.74      0.00
   -4    7   25      2.66      0.00
    2    5   24      3.72      0.00
    2    5   21      0.36      0.00
    2    5   18     -1.49      0.00
    2    5   15      7.89      0.00
    2    5   12     -6.68      0.00
    2    5    9     -2.28      0.00
    2    5    6    -12.70      0.00
    2    5    3    -24.26      0.00
   -5    7    0      5.46      0.00
   -5    7    3    -21.32      0.00
   -5    7    6    -19.14      0.00
   -5    7    9    -13.62      0.00
   -5    7   12     -5.41      0.00
   -5    7   15      6.30      0.00
   -5    7   18     -3.26      0.00
   -5    7   21      0.50      0.00
   -5    7   24      2.78      0.00
    1    6   22      4.96      0.00
    1    6   19      1.50      0.00
    1    6   16     -1.97      0.00
    1    6   13     -5.68      0.00
    1    6   10    -12.14      0.00
    1    6    7      7.99      0.00
    1    6    4      0.82      0.00
    1    6    1      3.16      0.00
   -6    7    2     -5.42      0.00
   -6    7    5    -12.95      0.00
   -6    7    8      9.34      0.00
   -6    7   11      1.40      0.00
   -6    7   14      0.48      0.00
   -6    7   17      0.22      0.00
   -6    7   20     -3.69      0.00
   -6    7   23     -4.71      0.00
    0    7   23     -1.23      0.00
    0    7   20      2.78      0.00
    0    7   17     -7.00      0.00
    0    7   14      0.12      0.00
    0    7   11     12.06      0.00
    0    7    8      5.02      0.00
    0    7    5     17.79      0.00
    0    7    2    -39.98      0.00
   -7    7    1     -6.15      0.00
   -7    7    4     14.84      0.00
   -7    7    7    -11.96      0.00
   -7    7   10      6.64      0.00
   -7    7   13     -7.74      0.00
   -7    7   16      1.58      0.00
   -7    7   19      4.54      0.00
   -7    7   22      1.30      0.00
   -8    7   24     -2.96      0.00
   -8    7   21     -0.34      0.00
   -8    7   18     -3.46      0.00
   -8    7   15      0.74      0.00
   -8    7   12      9.42      0.00
   -8    7    9    -13.08      0.00
   -8    7    6     17.82      0.00
   -8    7    3      6.64      0.00
   -1    8    0     15.21      0.00
   -1    8    3     43.48      0.00
   -1    8    6    -21.75      0.00
   -1    8    9     -2.09      0.00
   -1    8   12      0.93      0.00
   -1    8   15      2.05      0.00
   -1    8   18      4.69      0.00
   -1    8   21     -2.59      0.00
   -1    8   24      1.90      0.00
   -8    6   22      0.19      0.00
   -8    6   19      4.82      0.00
   -8    6   16      2.98      0.00
   -8    6   13     -3.10      0.00
   -8    6   10      4.04      0.00
   -8    6    7     -4.24      0.00
   -8    6    4      6.20      0.00
   -8    6    1    -15.28      0.00
   -2    8    2    -24.33      0.00
   -2    8    5      1.00      0.00
   -2    8    8     -5.95      0.00
   -2    8   11      5.90      0.00
   -2    8   14     -4.00      0.00
   -2    8   17     -6.70      0.00
   -2    8   20     -0.38      0.00
   -2    8   23      0.50      0.00
   -8    5   23      0.63      0.00
   -8    5   20     -3.00      0.00
   -8    5   17     -3.02      0.00
   -8    5   14     -8.89      0.00
   -8    5   11      3.87      0.00
   -8    5    8     -0.17      0.00
   -8    5    5    -12.47      0.00
   -8    5    2     -5.12      0.00
   -3    8    1    -17.42      0.00
   -3    8    4     15.74      0.00
   -3    8    7      6.89      0.00
   -3    8   10    -10.00      0.00
   -3    8   13      3.23      0.00
   -3    8   16      2.48      0.00
   -3    8   19      3.81      0.00
   -3    8   22     -2.42      0.00
    4    4   24      2.03      0.00
    4    4   21      0.84      0.00
    4    4   18      0.64      0.00
    4    4   15     13.11      0.00
    4    4   12     -6.04      0.00
    4    4    9      3.85      0.00
    4    4    6      6.41      0.00
    4    4    3     -3.60      0.00
   -4    8    0     33.79      0.00
   -4    8    3     -2.31      0.00
   -4    8    6      9.44      0.00
   -4    8    9      6.82      0.00
   -4    8   12     -4.78      0.00
   -4    8   15      4.92      0.00
   -4    8   18     -5.95      0.00
   -4    8   21     -1.70      0.00
   -4    8   24     -2.74      0.00
    3    5   22      0.71      0.00
    3    5   19      0.27      0.00
    3    5   16     -5.50      0.00
    3    5   13      3.73      0.00
    3    5   10    -15.11      0.00
    3    5    7      4.05      0.00
    3    5    4     35.75      0.00
    3    5    1      0.31      0.00
   -5    8    2      4.11      0.00
   -5    8    5    -12.90      0.00
   -5    8    8      4.94      0.00
   -5    8   11     12.32      0.00
   -5    8   14     -1.48      0.00
   -5    8   17      5.71      0.00
   -5    8   20      0.68      0.00
   -5    8   23     -0.09      0.00
    2    6   23     -4.30      0.00
    2    6   20      0.62      0.00
    2    6   17     -2.37      0.00
    2    6   14     -1.77      0.00
    2    6   11     19.98      0.00
    2    6    8      9.90      0.00
    2    6    5     -0.54      0.00
    2    6    2      3.02      0.00
   -6    8    1     11.50      0.00
   -6    8    4     27.69      0.00
   -6    8    7     11.35      0.00
   -6    8   10      7.92      0.00
   -6    8   13      0.35      0.00
   -6    8   16     -3.45      0.00
   -6    8   19      2.95      0.00
   -6    8   22      1.00      0.00
    1    7   24      0.17      0.00
    1    7   21     -5.51      0.00
    1    7   18      4.40      0.00
    1    7   15      5.20      0.00
    1    7   12      0.52      0.00
    1    7    9     -2.57      0.00
    1    7    6    -14.21      0.00
    1    7    3     23.85      0.00
   -7    8    0      0.91      0.00
   -7    8    3     -3.73      0.00
   -7    8    6      4.48      0.00
   -7    8    9    -17.46      0.00
   -7    8   12      2.93      0.00
   -7    8   15      1.19      0.00
   -7    8   18     -3.10      0.00
   -7    8   21      1.14      0.00
   -7    8   24      2.83      0.00
    0    8   22      2.86      0.00
    0    8   19     -1.76      0.00
    0    8   16      3.22      0.00
    0    8   13     -7.95      0.00
    0    8   10     -7.67      0.00
    0    8    7      8.33      0.00
    0    8    4    -26.26      0.00
    0    8    1     19.98      0.00
   -8    8    2     -6.61      0.00
   -8    8    5    -19.71      0.00
   -8    8    8     18.86      0.00
   -8    8   11     -3.35      0.00
   -8    8   14      1.75      0.00
   -8    8   17     -0.23      0.00
   -8    8   20     -2.07      0.00
   -8    8   23     -0.66      0.00
   -9    8   22     -3.41      0.00
   -9    8   19      3.06      0.00
   -9    8   16      2.03      0.00
   -9    8   13     -7.51      0.00
   -9    8   10      1.11      0.00
   -9    8    7    -15.12      0.00
   -9    8    4      9.85      0.00
   -9    8    1     -0.94      0.00
   -1    9    2    -33.97      0.00
   -1    9    5     15.85      0.00
   -1    9    8      1.35      0.00
   -1    9   11      4.12      0.00
   -1    9   14      1.01      0.00
   -1    9   17     -7.61      0.00
   -1    9   20     -0.29      0.00
   -1    9   23     -1.72      0.00
   -9    7   23      4.15      0.00
   -9    7   20     -0.08      0.00
   -9    7   17     -3.17      0.00
   -9    7   14     -0.45      0.00
   -9    7   11     -2.32      0.00
   -9    7    8      8.43      0.00
   -9    7    5    -12.13      0.00
   -9    7    2    -11.05      0.00
   -2    9    1     -1.22      0.00
   -2    9    4    -15.64      0.00
   -2    9    7     14.07      0.00
   -2    9   10     -2.06      0.00
   -2    9   13     -3.24      0.00
   -2    9   16      5.76      0.00
   -2    9   19      1.34      0.00
   -2    9   22     -0.08      0.00
   -9    6   24     -4.03      0.00
   -9    6   21     -0.28      0.00
   -9    6   18     -0.84      0.00
   -9    6   15      2.93      0.00
   -9    6   12      3.47      0.00
   -9    6    9     -0.49      0.00
   -9    6    6     -0.47      0.00
   -9    6    3     12.10      0.00
   -3    9    0     34.85      0.00
   -3    9    3     14.45      0.00
   -3    9    6     -8.90      0.00
   -3    9    9      0.80      0.00
   -3    9   12      1.00      0.00
   -3    9   15      0.85      0.00
   -3    9   18     -0.35      0.00
   -3    9   21      0.42      0.00
   -3    9   24     -0.49      0.00
   -9    5   22     -1.97      0.00
   -9    5   19      1.91      0.00
   -9    5   16     -0.30      0.00
   -9    5   13      0.55      0.00
   -9    5   10    -10.71      0.00
   -9    5    7      3.37      0.00
   -9    5    4      4.08      0.00
   -9    5    1    -22.26      0.00
   -4    9    2     -4.92      0.00
   -4    9    5    -12.41      0.00
   -4    9    8     -2.57      0.00
   -4    9   11      5.04      0.00
   -4    9   14     -3.66      0.00
   -4    9   17     -0.51      0.00
   -4    9   20      1.19      0.00
   -4    9   23      4.06      0.00
    4    5   23      0.60      0.00
    4    5   20     -0.91      0.00
    4    5   17     -4.21      0.00
    4    5   14     -6.92      0.00
    4    5   11     17.35      0.00
    4    5    8      4.08      0.00
    4    5    5    -15.93      0.00
    4    5    2      0.53      0.00
   -5    9    1     -9.10      0.00
   -5    9    4     10.61      0.00
   -5    9    7      0.99      0.00
   -5    9   10     -7.44      0.00
   -5    9   13      0.71      0.00
   -5    9   16     -1.02      0.00
   -5    9   19      1.26      0.00
   -5    9   22     -0.68      0.00
    3    6   24      1.42      0.00
    3    6   21     -1.00      0.00
    3    6   18      4.24      0.00
    3    6   15      7.80      0.00
    3    6   12     -6.13      0.00
    3    6    9     -4.12      0.00
    3    6    6     -2.12      0.00
    3    6    3    -20.35      0.00
   -6    9    0     -4.46      0.00
   -6    9    3     -2.72      0.00
   -6    9    6     -9.91      0.00
   -6    9    9     -9.91      0.00
   -6    9   12     -6.77      0.00
   -6    9   15     -0.55      0.00
   -6    9   18     -2.12      0.00
   -6    9   21     -1.88      0.00
   -6    9   24     -0.54      0.00
    2    7   22      4.39      0.00
    2    7   19     -0.35      0.00
    2    7   16     -1.69      0.00
    2    7   13     -8.75      0.00
    2    7   10    -10.05      0.00
    2    7    7     -5.14      0.00
    2    7    4     -2.20      0.00
    2    7    1     -4.48      0.00
   -7    9    2    -20.75      0.00
   -7    9    5     -9.56      0.00
   -7    9    8      0.70      0.00
   -7    9   11     -1.31      0.00
   -7    9   14      1.10      0.00
   -7    9   17     -0.04      0.00
   -7    9   20      1.50      0.00
   -7    9   23     -0.07      0.00
    1    8   23     -1.68      0.00
    1    8   20      0.13      0.00
    1    8   17     -6.31      0.00
    1    8   14      2.35      0.00
    1    8   11      4.08      0.00
    1    8    8      7.77      0.00
    1    8    5     14.11      0.00
    1    8    2    -17.29      0.00
   -8    9    1      6.85      0.00
   -8    9    4     10.91      0.00
   -8    9    7      1.36      0.00
   -8    9   10      7.63      0.00
   -8    9   13     -4.46      0.00
   -8    9   16      1.17      0.00
   -8    9   19      1.05      0.00
   -8    9   22     -2.62      0.00
    0    9   21      0.62      0.00
    0    9   18      3.51      0.00
    0    9   15      2.14      0.00
    0    9   12      6.06      0.00
    0    9    9     -2.05      0.00
    0    9    6    -14.91      0.00
    0    9    3     14.91      0.00
    0    9    0     -3.27      0.00
   -9    9    3     -0.08      0.00
   -9    9    6      6.60      0.00
   -9    9    9     -9.73      0.00
   -9    9   12      6.00      0.00
   -9    9   15      2.56      0.00
   -9    9   18     -2.39      0.00
   -9    9   21      5.53      0.00
  -10    9   23     -1.75      0.00
  -10    9   20     -3.25      0.00
  -10    9   17      0.81      0.00
  -10    9   14     -2.67      0.00
  -10    9   11      3.42      0.00
  -10    9    8     13.81      0.00
  -10    9    5     -5.93      0.00
  -10    9    2     -6.53      0.00
   -1   10    1     10.25      0.00
   -1   10    4      6.30      0.00
   -1   10    7      5.81      0.00
   -1   10   10     -5.55      0.00
   -1   10   13     -4.36      0.00
   -1   10   16      1.74      0.00
   -1   10   19      0.83      0.00
   -1   10   22     -2.89      0.00
  -10    8   21      2.46      0.00
  -10    8   18     -0.94      0.00
  -10    8   15      1.05      0.00
  -10    8   12      5.56      0.00
  -10    8    9     -4.25      0.00
  -10    8    6      2.33      0.00
  -10    8    3      9.31      0.00
   -2   10    0      6.22      0.00
   -2   10    3     14.18      0.00
   -2   10    6    -10.22      0.00
   -2   10    9     -3.86      0.00
   -2   10   12      3.28      0.00
   -2   10   15     -1.87      0.00
   -2   10   18      0.37      0.00
   -2   10   21      3.05      0.00
  -10    7   22     -3.74      0.00
  -10    7   19     -0.11      0.00
  -10    7   16      4.41      0.00
  -10    7   13     -6.20      0.00
  -10    7   10     -3.32      0.00
  -10    7    7      6.19      0.00
  -10    7    4     -5.20      0.00
  -10    7    1     -4.84      0.00
   -3   10    2    -10.92      0.00
   -3   10    5      2.22      0.00
   -3   10    8      1.56      0.00
   -3   10   11     -1.68      0.00
   -3   10   14      3.25      0.00
   -3   10   17     -2.05      0.00
   -3   10   20     -1.64      0.00
   -3   10   23     -0.39      0.00
  -10    6   23      5.58      0.00
  -10    6   20      2.15      0.00
  -10    6   17     -3.26      0.00
  -10    6   14      0.75      0.00
  -10    6   11      5.84      0.00
  -10    6    8     -2.01      0.00
  -10    6    5      7.21      0.00
  -10    6    2    -12.22      0.00
   -4   10    1    -14.32      0.00
   -4   10    4      4.45      0.00
   -4   10    7      4.65      0.00
   -4   10   10      1.60      0.00
   -4   10   13     -5.69      0.00
   -4   10   16     -0.47      0.00
   -4   10   19     -0.34      0.00
   -4   10   22     -1.41      0.00
    5    5   21     -0.59      0.00
    5    5   18      0.94      0.00
    5    5   15      3.51      0.00
    5    5   12     -1.68      0.00
    5    5    9     -0.90      0.00
    5    5    6     -5.82      0.00
    5    5    3      9.30      0.00
   -5   10    0     16.69      0.00
   -5   10    3      2.81      0.00
   -5   10    6     -0.41      0.00
   -5   10    9     -1.67      0.00
   -5   10   12      2.99      0.00
   -5   10   15      3.06      0.00
   -5   10   18      2.47      0.00
   -5   10   21     -1.76      0.00
    4    6   22      0.31      0.00
    4    6   19      1.41      0.00
    4    6   16     -0.99      0.00
    4    6   13     -5.54      0.00
    4    6   10     -7.90      0.00
    4    6    7     -3.23      0.00
    4    6    4     12.77      0.00
    4    6    1      3.72      0.00
   -6   10    2     -8.61      0.00
   -6   10    5      1.96      0.00
   -6   10    8      3.20      0.00
   -6   10   11      6.49      0.00
   -6   10   14      0.40      0.00
   -6   10   17     -5.41      0.00
   -6   10   20      2.81      0.00
   -6   10   23      3.06      0.00
    3    7   23     -1.06      0.00
    3    7   20     -1.78      0.00
    3    7   17     -3.71      0.00
    3    7   14      4.01      0.00
    3    7   11      7.15      0.00
    3    7    8     17.18      0.00
    3    7    5      2.44      0.00
    3    7    2      9.45      0.00
   -7   10    1     16.42      0.00
   -7   10    4      1.69      0.00
   -7   10    7     17.81      0.00
   -7   10   10      3.34      0.00
   -7   10   13      0.61      0.00
   -7   10   16      6.99      0.00
   -7   10   19     -2.68      0.00
   -7   10   22     -1.53      0.00
    2    8   21     -0.84      0.00
    2    8   18      1.79      0.00
    2    8   15      1.71      0.00
    2    8   12      8.33      0.00
    2    8    9     -8.67      0.00
    2    8    6     -5.57      0.00
    2    8    3      0.04      0.00
   -8   10    0      6.40      0.00
   -8   10    3     11.79      0.00
   -8   10    6    -14.98      0.00
   -8   10    9     -2.38      0.00
   -8   10   12      3.04      0.00
   -8   10   15     -3.48      0.00
   -8   10   18      0.57      0.00
   -8   10   21      0.07      0.00
    1    9   22      0.97      0.00
    1    9   19      2.95      0.00
    1    9   16      1.58      0.00
    1    9   13     -8.30      0.00
    1    9   10     -0.08      0.00
    1    9    7      3.80      0.00
    1    9    4      2.89      0.00
    1    9    1     -0.91      0.00
   -9   10    2     -7.40      0.00
   -9   10    5      1.19      0.00
   -9   10    8     -0.97      0.00
   -9   10   11     -3.85      0.00
   -9   10   14     -0.65      0.00
   -9   10   17      0.43      0.00
   -9   10   20     -1.03      0.00
   -9   10   23     -1.99      0.00
    0   10   23     -0.01      0.00
    0   10   20     -1.88      0.00
    0   10   17     -1.67      0.00
    0   10   14     -2.20      0.00
    0   10   11      4.03      0.00
    0   10    8      1.14      0.00
    0   10    5     -4.13      0.00
    0   10    2     -1.07      0.00
  -10   10    1     -1.16      0.00
  -10   10    4      4.40      0.00
  -10   10    7     -4.44      0.00
  -10   10   10     -1.51      0.00
  -10   10   13     -1.26      0.00
  -10   10   16     -4.88      0.00
  -10   10   19      1.29      0.00
  -10   10   22     -1.99      0.00
  -11   10   21      1.71      0.00
  -11   10   18     -2.37      0.00
  -11   10   15      7.59      0.00
  -11   10   12     -5.44      0.00
  -11   10    9     -5.45      0.00
  -11   10    6      3.63      0.00
  -11   10    3     -0.47      0.00
   -1   11    0      5.76      0.00
   -1   11    3    -15.53      0.00
   -1   11    6     -1.74      0.00
   -1   11    9     -0.45      0.00
   -1   11   12     -6.01      0.00
   -1   11   15      3.78      0.00
   -1   11   18     -3.06      0.00
   -1   11   21      3.26      0.00
  -11    9   22      0.25      0.00
  -11    9   19      1.36      0.00
  -11    9   16     -0.21      0.00
  -11    9   13     -0.06      0.00
  -11    9   10     -4.17      0.00
  -11    9    7     -4.47      0.00
  -11    9    4     -1.53      0.00
  -11    9    1     -0.13      0.00
   -2   11    2     -7.03      0.00
   -2   11    5     -8.14      0.00
   -2   11    8      5.75      0.00
   -2   11   11      6.93      0.00
   -2   11   14      2.47      0.00
   -2   11   17      2.71      0.00
   -2   11   20     -2.40      0.00
   -2   11   23      0.73      0.00
  -11    8   23     -0.13      0.00
  -11    8   20      1.23      0.00
  -11    8   17     -3.20      0.00
  -11    8   14      1.55      0.00
  -11    8   11      2.12      0.00
  -11    8    8     -0.07      0.00
  -11    8    5      8.09      0.00
  -11    8    2    -10.92      0.00
   -3   11    1      3.54      0.00
   -3   11    4      4.27      0.00
   -3   11    7     -2.25      0.00
   -3   11   10      1.72      0.00
   -3   11   13     -7.78      0.00
   -3   11   16     -1.37      0.00
   -3   11   19      0.88      0.00
   -3   11   22     -2.54      0.00
  -11    7   21     -0.97      0.00
  -11    7   18      0.70      0.00
  -11    7   15     -3.28      0.00
  -11    7   12      4.02      0.00
  -11    7    9      0.51      0.00
  -11    7    6    -19.21      0.00
  -11    7    3     13.35      0.00
   -4   11    0      4.59      0.00
   -4   11    3      4.69      0.00
   -4   11    6      2.76      0.00
   -4   11    9     -8.69      0.00
   -4   11   12      8.16      0.00
   -4   11   15      1.43      0.00
   -4   11   18      1.15      0.00
   -4   11   21      1.59      0.00
  -11    6   22     -3.21      0.00
  -11    6   19     -0.88      0.00
  -11    6   16      1.59      0.00
  -11    6   13     -6.40      0.00
  -11    6   10     -3.68      0.00
  -11    6    7      9.81      0.00
  -11    6    4     -7.59      0.00
  -11    6    1     11.61      0.00
   -5   11    2     -2.51      0.00
   -5   11    5     -9.70      0.00
   -5   11    8      4.45      0.00
   -5   11   11     -3.36      0.00
   -5   11   14      1.99      0.00
   -5   11   17     -2.79      0.00
   -5   11   20      0.10      0.00
   -5   11   23      1.49      0.00
    5    6   23      2.07      0.00
    5    6   20      0.56      0.00
    5    6   17      0.24      0.00
    5    6   14      4.17      0.00
    5    6   11      5.36      0.00
    5    6    8      9.27      0.00
    5    6    5      0.23      0.00
    5    6    2    -21.04      0.00
   -6   11    1      0.47      0.00
   -6   11    4      4.74      0.00
   -6   11    7      3.60      0.00
   -6   11   10     -1.56      0.00
   -6   11   13     -5.28      0.00
   -6   11   16      3.31      0.00
   -6   11   19     -1.73      0.00
   -6   11   22     -0.34      0.00
    4    7   21     -1.54      0.00
    4    7   18     -2.17      0.00
    4    7   15      0.75      0.00
    4    7   12      6.32      0.00
    4    7    9    -11.90      0.00
    4    7    6     -1.55      0.00
    4    7    3     -4.04      0.00
   -7   11    0     -7.67      0.00
   -7   11    3      5.44      0.00
   -7   11    6    -19.86      0.00
   -7   11    9     -4.14      0.00
   -7   11   12     -0.84      0.00
   -7   11   15     -3.26      0.00
   -7   11   18      5.78      0.00
   -7   11   21     -0.89      0.00
    3    8   22      1.20      0.00
    3    8   19      4.25      0.00
    3    8   16      0.97      0.00
    3    8   13    -12.33      0.00
    3    8   10      2.98      0.00
    3    8    7     -8.96      0.00
    3    8    4      3.69      0.00
    3    8    1     -7.48      0.00
   -8   11    2    -17.69      0.00
   -8   11    5     14.79      0.00
   -8   11    8     -9.09      0.00
   -8   11   11     -0.95      0.00
   -8   11   14      0.79      0.00
   -8   11   17     -7.25      0.00
   -8   11   20      3.66      0.00
   -8   11   23      0.69      0.00
    2    9   23     -1.22      0.00
    2    9   20     -3.17      0.00
    2    9   17     -3.33      0.00
    2    9   14      3.32      0.00
    2    9   11     -2.45      0.00
    2    9    8      9.16      0.00
    2    9    5     -2.14      0.00
    2    9    2      2.11      0.00
   -9   11    1     -0.96      0.00
   -9   11    4     -6.73      0.00
   -9   11    7     15.46      0.00
   -9   11   10      0.51      0.00
   -9   11   13     -1.48      0.00
   -9   11   16      4.38      0.00
   -9   11   19     -1.01      0.00
   -9   11   22      2.03      0.00
    1   10   21     -1.25      0.00
    1   10   18     -2.04      0.00
    1   10   15      3.44      0.00
    1   10   12      0.36      0.00
    1   10    9     -4.65      0.00
    1   10    6     -3.61      0.00
    1   10    3     -9.03      0.00
  -10   11    0      8.68      0.00
  -10   11    3     -2.52      0.00
  -10   11    6     -5.37      0.00
  -10   11    9      2.53      0.00
  -10   11   12      1.84      0.00
  -10   11   15      4.38      0.00
  -10   11   18     -0.85      0.00
  -10   11   21     -0.42      0.00
    0   11   22      0.62      0.00
    0   11   19      2.55      0.00
    0   11   16     -2.58      0.00
    0   11   13      7.28      0.00
    0   11   10     -2.92      0.00
    0   11    7      4.12      0.00
    0   11    4     18.68      0.00
    0   11    1     -7.31      0.00
  -11   11    2      7.13      0.00
  -11   11    5     -4.05      0.00
  -11   11    8      3.77      0.00
  -11   11   11      8.86      0.00
  -11   11   14     -3.72      0.00
  -11   11   17      4.25      0.00
  -11   11   20      1.14      0.00
  -12   11   22     -0.59      0.00
  -12   11   19      1.62      0.00
  -12   11   16     -5.36      0.00
  -12   11   13      2.03      0.00
  -12   11   10     -5.42      0.00
  -12   11    7     -0.98      0.00
  -12   11    4      7.08      0.00
  -12   11    1    -12.08      0.00
   -1   12    2     11.15      0.00
   -1   12    5     -8.63      0.00
   -1   12    8     -0.09      0.00
   -1   12   11      9.50      0.00
   -1   12   14     -8.51      0.00
   -1   12   17      2.90      0.00
   -1   12   20     -2.12      0.00
  -12   10   20     -0.05      0.00
  -12   10   17      0.30      0.00
  -12   10   14     -4.16      0.00
  -12   10   11      8.35      0.00
  -12   10    8      4.43      0.00
  -12   10    5     -3.46      0.00
  -12   10    2      0.79      0.00
   -2   12    1     -2.71      0.00
   -2   12    4     17.89      0.00
   -2   12    7      0.88      0.00
   -2   12   10     -5.04      0.00
   -2   12   13      2.54      0.00
   -2   12   16     -5.18      0.00
   -2   12   19      3.30      0.00
   -2   12   22     -2.34      0.00
  -12    9   21     -2.33      0.00
  -12    9   18      0.48      0.00
  -12    9   15     -0.41      0.00
  -12    9   12     -0.27      0.00
  -12    9    9      1.63      0.00
  -12    9    6     -4.62      0.00
  -12    9    3      3.83      0.00
   -3   12    0     -0.22      0.00
   -3   12    3     -1.63      0.00
   -3   12    6      2.25      0.00
   -3   12    9     -8.24      0.00
   -3   12   12     -0.63      0.00
   -3   12   15      1.86      0.00
   -3   12   18     -4.07      0.00
   -3   12   21      3.07      0.00
  -12    8   22      1.81      0.00
  -12    8   19     -0.93      0.00
  -12    8   16      4.74      0.00
  -12    8   13     -5.89      0.00
  -12    8   10     -3.95      0.00
  -12    8    7     11.12      0.00
  -12    8    4     -4.91      0.00
  -12    8    1      7.89      0.00
   -4   12    2     -9.54      0.00
   -4   12    5     -6.83      0.00
   -4   12    8     12.73      0.00
   -4   12   11     -1.14      0.00
   -4   12   14      3.10      0.00
   -4   12   17      2.53      0.00
   -4   12   20     -0.19      0.00
  -12    7   20      1.74      0.00
  -12    7   17     -1.10      0.00
  -12    7   14      5.78      0.00
  -12    7   11      2.53      0.00
  -12    7    8     -0.71      0.00
  -12    7    5     13.34      0.00
  -12    7    2    -16.38      0.00
   -5   12    1      2.62      0.00
   -5   12    4      5.56      0.00
   -5   12    7     -7.27      0.00
   -5   12   10      4.50      0.00
   -5   12   13     -7.37      0.00
   -5   12   16     -2.00      0.00
   -5   12   19      0.09      0.00
   -5   12   22     -0.16      0.00
    6    6   21      1.28      0.00
    6    6   18     -2.15      0.00
    6    6   15     -1.99      0.00
    6    6   12      0.75      0.00
    6    6    9     -7.28      0.00
    6    6    6    -10.86      0.00
    6    6    3      9.08      0.00
   -6   12    0     -6.97      0.00
   -6   12    3      0.25      0.00
   -6   12    6      3.93      0.00
   -6   12    9     -4.46      0.00
   -6   12   12      4.97      0.00
   -6   12   15      0.90      0.00
   -6   12   18      1.14      0.00
   -6   12   21      1.06      0.00
    5    7   22     -1.27      0.00
    5    7   19      3.30      0.00
    5    7   16     -1.35      0.00
    5    7   13     -6.84      0.00
    5    7   10      2.14      0.00
    5    7    7     -3.52      0.00
    5    7    4      9.37      0.00
    5    7    1     17.51      0.00
   -7   12    2     -6.83      0.00
   -7   12    5      3.78      0.00
   -7   12    8      2.60      0.00
   -7   12   11      2.52      0.00
   -7   12   14      0.57      0.00
   -7   12   17     -5.93      0.00
   -7   12   20     -2.63      0.00
    4    8   20     -0.67      0.00
    4    8   17     -0.28      0.00
    4    8   14      2.31      0.00
    4    8   11     -4.42      0.00
    4    8    8     13.28      0.00
    4    8    5     -5.98      0.00
    4    8    2     -1.77      0.00
   -8   12    1     12.34      0.00
   -8   12    4     -6.22      0.00
   -8   12    7     13.83      0.00
   -8   12   10      1.06      0.00
   -8   12   13      0.60      0.00
   -8   12   16      6.82      0.00
   -8   12   19     -0.53      0.00
   -8   12   22      2.00      0.00
    3    9   21     -0.16      0.00
    3    9   18      0.09      0.00
    3    9   15      2.65      0.00
    3    9   12      8.78      0.00
    3    9    9     -7.26      0.00
    3    9    6      5.17      0.00
    3    9    3     -1.99      0.00
   -9   12    0      2.72      0.00
   -9   12    3      9.52      0.00
   -9   12    6    -15.46      0.00
   -9   12    9      1.49      0.00
   -9   12   12      0.01      0.00
   -9   12   15     -2.69      0.00
   -9   12   18      0.72      0.00
   -9   12   21     -6.90      0.00
    2   10   22      2.52      0.00
    2   10   19      2.97      0.00
    2   10   16     -1.03      0.00
    2   10   13     -4.20      0.00
    2   10   10     -0.04      0.00
    2   10    7     -2.85      0.00
    2   10    4      7.25      0.00
    2   10    1     -0.50      0.00
  -10   12    2      1.38      0.00
  -10   12    5      2.13      0.00
  -10   12    8     -6.04      0.00
  -10   12   11      2.29      0.00
  -10   12   14     -1.09      0.00
  -10   12   17     -2.20      0.00
  -10   12   20      5.03      0.00
    1   11   20      0.89      0.00
    1   11   17      0.90      0.00
    1   11   14     -5.27      0.00
    1   11   11      5.25      0.00
    1   11    8      2.67      0.00
    1   11    5     -4.27      0.00
    1   11    2      0.87      0.00
  -11   12    1     -9.89      0.00
  -11   12    4     10.48      0.00
  -11   12    7      2.12      0.00
  -11   12   10     -8.23      0.00
  -11   12   13     -2.56      0.00
  -11   12   16     -3.37      0.00
  -11   12   19     -2.88      0.00
  -11   12   22     -1.29      0.00
    0   12   21     -0.82      0.00
    0   12   18     -0.24      0.00
    0   12   15      6.65      0.00
    0   12   12     -9.47      0.00
    0   12    9     -1.82      0.00
    0   12    6     -3.81      0.00
    0   12    3    -11.84      0.00
    0   12    0     12.04      0.00
  -12   12    3    -12.11      0.00
  -12   12    6     -1.42      0.00
  -12   12    9      1.63      0.00
  -12   12   12     -3.32      0.00
  -12   12   15      4.95      0.00
  -12   12   18     -2.04      0.00
  -12   12   21      0.25      0.00
  -13   12   20     -2.93      0.00
  -13   12   17      0.28      0.00
  -13   12   14     -2.23      0.00
  -13   12   11      5.01      0.00
  -13   12    8     -0.19      0.00
  -13   12    5      0.38      0.00
  -13   12    2      9.56      0.00
   -1   13    1     -8.68      0.00
   -1   13    4     10.40      0.00
   -1   13    7      4.77      0.00
   -1   13   10     -3.70      0.00
   -1   13   13      5.54      0.00
   -1   13   16     -3.84      0.00
   -1   13   19     -1.58      0.00
  -13   11   21      0.63      0.00
  -13   11   18     -0.06      0.00
  -13   11   15      5.78      0.00
  -13   11   12     -0.62      0.00
  -13   11    9     -1.85      0.00
  -13   11    6     -1.50      0.00
  -13   11    3     -5.76      0.00
   -2   13    0      9.55      0.00
   -2   13    3    -10.88      0.00
   -2   13    6     -4.57      0.00
   -2   13    9      0.46      0.00
   -2   13   12     -5.26      0.00
   -2   13   15      7.82      0.00
   -2   13   18     -1.18      0.00
   -2   13   21      3.10      0.00
  -13   10   22      1.58      0.00
  -13   10   19     -1.10      0.00
  -13   10   16     -0.02      0.00
  -13   10   13     -3.12      0.00
  -13   10   10     -3.79      0.00
  -13   10    7      1.97      0.00
  -13   10    4      6.96      0.00
  -13   10    1      0.01      0.00
   -3   13    2     -1.55      0.00
   -3   13    5     -3.53      0.00
   -3   13    8      3.28      0.00
   -3   13   11      5.35      0.00
   -3   13   14     -2.40      0.00
   -3   13   17      3.91      0.00
   -3   13   20     -3.20      0.00
  -13    9   20      2.90      0.00
  -13    9   17     -2.12      0.00
  -13    9   14      5.25      0.00
  -13    9   11      2.66      0.00
  -13    9    8     -3.54      0.00
  -13    9    5     -1.10      0.00
  -13    9    2     -6.31      0.00
   -4   13    1      5.71      0.00
   -4   13    4      3.31      0.00
   -4   13    7     -1.68      0.00
   -4   13   10      2.45      0.00
   -4   13   13     -2.25      0.00
   -4   13   16     -1.75      0.00
   -4   13   19      2.95      0.00
   -4   13   22     -1.14      0.00
  -13    8   21     -1.52      0.00
  -13    8   18     -0.48      0.00
  -13    8   15     -5.42      0.00
  -13    8   12      1.93      0.00
  -13    8    9      0.05      0.00
  -13    8    6    -12.00      0.00
  -13    8    3      2.57      0.00
   -5   13    0     -1.80      0.00
   -5   13    3      4.04      0.00
   -5   13    6      1.08      0.00
   -5   13    9    -10.76      0.00
   -5   13   12      1.92      0.00
   -5   13   15      0.12      0.00
   -5   13   18     -4.99      0.00
   -5   13   21     -2.18      0.00
  -13    7   22     -2.76      0.00
  -13    7   19      1.67      0.00
  -13    7   16      2.04      0.00
  -13    7   13     -1.78      0.00
  -13    7   10      0.09      0.00
  -13    7    7      5.61      0.00
  -13    7    4      0.45      0.00
  -13    7    1      6.50      0.00
   -6   13    2     -1.11      0.00
   -6   13    5     -2.09      0.00
   -6   13    8      9.40      0.00
   -6   13   11      0.77      0.00
   -6   13   14      1.68      0.00
   -6   13   17      4.88      0.00
   -6   13   20      0.04      0.00
    6    7   20     -3.35      0.00
    6    7   17      0.69      0.00
    6    7   14      0.32      0.00
    6    7   11      3.17      0.00
    6    7    8      7.37      0.00
    6    7    5     -2.42      0.00
    6    7    2     -6.65      0.00
   -7   13    1     -0.23      0.00
   -7   13    4     -2.69      0.00
   -7   13    7     -6.31      0.00
   -7   13   10     -2.35      0.00
   -7   13   13     -1.04      0.00
   -7   13   16     -1.05      0.00
   -7   13   19      3.65      0.00
   -7   13   22      1.13      0.00
    5    8   21      0.92      0.00
    5    8   18     -0.81      0.00
    5    8   15      5.26      0.00
    5    8   12      3.33      0.00
    5    8    9     -5.58      0.00
    5    8    6      2.66      0.00
    5    8    3     -9.32      0.00
   -8   13    0     -5.38      0.00
   -8   13    3      9.24      0.00
   -8   13    6     -2.57      0.00
   -8   13    9     -2.66      0.00
   -8   13   12     -2.33      0.00
   -8   13   15      0.72      0.00
   -8   13   18      0.02      0.00
   -8   13   21      1.53      0.00
    4    9   22     -2.03      0.00
    4    9   19     -0.88      0.00
    4    9   16     -3.89      0.00
    4    9   13     -3.80      0.00
    4    9   10      2.02      0.00
    4    9    7     -6.17      0.00
    4    9    4      8.48      0.00
    4    9    1      0.73      0.00
   -9   13    2    -14.29      0.00
   -9   13    5      2.47      0.00
   -9   13    8     -1.97      0.00
   -9   13   11      1.26      0.00
   -9   13   14     -1.32      0.00
   -9   13   17     -2.90      0.00
   -9   13   20      1.53      0.00
    3   10   20     -0.11      0.00
    3   10   17     -0.55      0.00
    3   10   14     -0.68      0.00
    3   10   11     -1.27      0.00
    3   10    8      3.09      0.00
    3   10    5     -3.56      0.00
    3   10    2     -5.80      0.00
  -10   13    1      2.67      0.00
  -10   13    4      2.15      0.00
  -10   13    7      4.64      0.00
  -10   13   10     -0.82      0.00
  -10   13   13     -1.03      0.00
  -10   13   16      3.44      0.00
  -10   13   19      0.37      0.00
  -10   13   22      4.01      0.00
    2   11   21     -2.13      0.00
    2   11   18     -0.69      0.00
    2   11   15      3.85      0.00
    2   11   12      1.45      0.00
    2   11    9      2.09      0.00
    2   11    6     -1.22      0.00
    2   11    3      2.76      0.00
  -11   13    0      0.99      0.00
  -11   13    3     -7.45      0.00
  -11   13    6      1.70      0.00
  -11   13    9      1.51      0.00
  -11   13   12      1.14      0.00
  -11   13   15      2.44      0.00
  -11   13   18      1.76      0.00
  -11   13   21     -3.27      0.00
    1   12   19     -1.32      0.00
    1   12   16     -2.46      0.00
    1   12   13      1.94      0.00
    1   12   10     -4.25      0.00
    1   12    7      1.33      0.00
    1   12    4      3.52      0.00
    1   12    1      0.93      0.00
  -12   13    2      7.09      0.00
  -12   13    5     -6.45      0.00
  -12   13    8      0.86      0.00
  -12   13   11      6.66      0.00
  -12   13   14     -0.28      0.00
  -12   13   17     -0.54      0.00
  -12   13   20      2.84      0.00
    0   13   20      2.22      0.00
    0   13   17      0.03      0.00
    0   13   14     -1.16      0.00
    0   13   11      7.03      0.00
    0   13    8      2.64      0.00
    0   13    5     -0.66      0.00
    0   13    2      2.53      0.00
  -13   13    1     -5.91      0.00
  -13   13    4      5.45      0.00
  -13   13    7      3.32      0.00
  -13   13   10     -5.28      0.00
  -13   13   13     -1.87      0.00
  -13   13   16      0.28      0.00
  -13   13   19      2.92      0.00
  -14   13   18     -0.30      0.00
  -14   13   15      1.96      0.00
  -14   13   12      0.63      0.00
  -14   13    9      0.47      0.00
  -14   13    6     -5.70      0.00
  -14   13    3     -0.03      0.00
   -1   14    0      4.45      0.00
   -1   14    3     -3.11      0.00
   -1   14    6     -2.34      0.00
   -1   14    9     -3.24      0.00
   -1   14   12     -3.71      0.00
   -1   14   15     -1.02      0.00
   -1   14   18      2.61      0.00
  -14   12   19      1.79      0.00
  -14   12   16     -0.84      0.00
  -14   12   13     -2.71      0.00
  -14   12   10      1.81      0.00
  -14   12    7      2.38      0.00
  -14   12    4      0.20      0.00
  -14   12    1     -6.31      0.00
   -2   14    2      1.47      0.00
   -2   14    5      1.14      0.00
   -2   14    8     -1.70      0.00
   -2   14   11      4.90      0.00
   -2   14   14     -2.65      0.00
   -2   14   17     -1.07      0.00
   -2   14   20     -0.24      0.00
  -14   11   20      0.19      0.00
  -14   11   17     -2.09      0.00
  -14   11   14     -0.78      0.00
  -14   11   11     -2.41      0.00
  -14   11    8      2.79      0.00
  -14   11    5     -3.04      0.00
  -14   11    2      0.63      0.00
   -3   14    1     -0.65      0.00
   -3   14    4      0.54      0.00
   -3   14    7      6.94      0.00
   -3   14   10     -3.42      0.00
   -3   14   13      0.44      0.00
   -3   14   16     -3.17      0.00
   -3   14   19      0.85      0.00
  -14   10   21     -1.58      0.00
  -14   10   18      2.30      0.00
  -14   10   15     -0.87      0.00
  -14   10   12      5.07      0.00
  -14   10    9     -0.74      0.00
  -14   10    6      0.53      0.00
  -14   10    3     -3.58      0.00
   -4   14    0     -1.68      0.00
   -4   14    3      4.54      0.00
   -4   14    6     -7.07      0.00
   -4   14    9     -2.55      0.00
   -4   14   12     -2.01      0.00
   -4   14   15      0.32      0.00
   -4   14   18     -3.95      0.00
   -4   14   21      1.03      0.00
  -14    9   19     -2.26      0.00
  -14    9   16      2.60      0.00
  -14    9   13     -5.97      0.00
  -14    9   10     -1.58      0.00
  -14    9    7      4.39      0.00
  -14    9    4      8.60      0.00
  -14    9    1      3.25      0.00
   -5   14    2     -6.73      0.00
   -5   14    5      2.04      0.00
   -5   14    8      3.40      0.00
   -5   14   11      4.17      0.00
   -5   14   14      2.77      0.00
   -5   14   17      4.56      0.00
   -5   14   20      2.29      0.00
  -14    8   20      0.75      0.00
  -14    8   17     -0.62      0.00
  -14    8   14      2.17      0.00
  -14    8   11      2.03      0.00
  -14    8    8      2.08      0.00
  -14    8    5      0.40      0.00
  -14    8    2     -1.22      0.00
   -6   14    1     -5.71      0.00
   -6   14    4     -1.20      0.00
   -6   14    7      0.38      0.00
   -6   14   10     -1.06      0.00
   -6   14   13     -2.31      0.00
   -6   14   16     -3.93      0.00
   -6   14   19      1.71      0.00
    7    7   21      3.03      0.00
    7    7   18     -0.77      0.00
    7    7   15      1.45      0.00
    7    7   12     -4.56      0.00
    7    7    9     -4.93      0.00
    7    7    6     -3.60      0.00
    7    7    3     -4.58      0.00
   -7   14    0     11.42      0.00
   -7   14    3      0.47      0.00
   -7   14    6      0.47      0.00
   -7   14    9     -1.06      0.00
   -7   14   12     -1.40      0.00
   -7   14   15      2.63      0.00
   -7   14   18     -6.80      0.00
   -7   14   21     -1.20      0.00
    6    8   19      3.02      0.00
    6    8   16     -3.35      0.00
    6    8   13      1.84      0.00
    6    8   10     -2.38      0.00
    6    8    7     -2.00      0.00
    6    8    4      9.88      0.00
    6    8    1     -6.55      0.00
   -8   14    2     -0.44      0.00
   -8   14    5      1.89      0.00
   -8   14    8      4.87      0.00
   -8   14   11      4.60      0.00
   -8   14   14     -3.48      0.00
   -8   14   17      3.34      0.00
   -8   14   20     -3.96      0.00
    5    9   20     -0.74      0.00
    5    9   17      0.19      0.00
    5    9   14     -4.27      0.00
    5    9   11      1.11      0.00
    5    9    8      1.46      0.00
    5    9    5     -3.69      0.00
    5    9    2      6.40      0.00
   -9   14    1      2.20      0.00
   -9   14    4     -4.21      0.00
   -9   14    7     -2.09      0.00
   -9   14   10     -0.37      0.00
   -9   14   13      1.89      0.00
   -9   14   16     -0.91      0.00
   -9   14   19      1.93      0.00
    4   10   21      2.03      0.00
    4   10   18      3.57      0.00
    4   10   15      4.68      0.00
    4   10   12      0.36      0.00
    4   10    9      2.49      0.00
    4   10    6     -0.59      0.00
    4   10    3      0.74      0.00
  -10   14    0      1.59      0.00
  -10   14    3      6.89      0.00
  -10   14    6      2.42      0.00
  -10   14    9     -2.62      0.00
  -10   14   12      1.77      0.00
  -10   14   15      1.26      0.00
  -10   14   21     -1.02      0.00
    3   11   19     -2.42      0.00
    3   11   16     -1.98      0.00
    3   11   13     -1.67      0.00
    3   11   10     -4.68      0.00
    3   11    7      1.44      0.00
    3   11    4     -5.92      0.00
    3   11    1      4.81      0.00
  -11   14    2     -2.90      0.00
  -11   14    5     -6.07      0.00
  -11   14    8      3.98      0.00
  -11   14   11     -0.68      0.00
  -11   14   14     -0.55      0.00
  -11   14   17     -4.67      0.00
  -11   14   20     -1.40      0.00
    2   12   20      3.42      0.00
    2   12   17      1.55      0.00
    2   12   14     -0.25      0.00
    2   12   11      1.19      0.00
    2   12    8     -2.22      0.00
    2   12    5      7.02      0.00
    2   12    2     -7.61      0.00
  -12   14    1      0.53      0.00
  -12   14    4      6.24      0.00
  -12   14    7     -4.70      0.00
  -12   14   10     -0.68      0.00
  -12   14   13     -3.10      0.00
  -12   14   16      2.10      0.00
  -12   14   19      0.56      0.00
    1   13   18     -1.99      0.00
    1   13   15     -1.52      0.00
    1   13   12     -0.79      0.00
    1   13    9      0.07      0.00
    1   13    6     -4.40      0.00
    1   13    3     -0.36      0.00
  -13   14    0     -1.03      0.00
  -13   14    3     -0.54      0.00
  -13   14    6      1.38      0.00
  -13   14    9     -0.53      0.00
  -13   14   12      1.07      0.00
  -13   14   15      1.44      0.00
  -13   14   18     -1.45      0.00
    0   14   19      0.75      0.00
    0   14   16      3.72      0.00
    0   14   13     -1.06      0.00
    0   14   10      0.03      0.00
    0   14    7     -2.12      0.00
    0   14    4      3.91      0.00
    0   14    1     -0.17      0.00
  -14   14    2     -5.86      0.00
  -14   14    5      1.19      0.00
  -14   14    8     -2.55      0.00
  -14   14   11      2.98      0.00
  -14   14   14     -1.55      0.00
  -14   14   17     -2.43      0.00
  -14   14   20     -1.75      0.00
  -15   14   19     -0.30      0.00
  -15   14   16      1.12      0.00
  -15   14   13     -0.22      0.00
  -15   14   10     -2.16      0.00
  -15   14    7      4.32      0.00
  -15   14    4     -5.72      0.00
  -15   14    1      4.87      0.00
   -1   15    2      0.54      0.00
   -1   15    5     -1.28      0.00
   -1   15    8      6.88      0.00
   -1   15   11     -2.10      0.00
   -1   15   14      0.80      0.00
   -1   15   17     -4.95      0.00
  -15   13   20     -1.85      0.00
  -15   13   17     -3.04      0.00
  -15   13   14     -0.40      0.00
  -15   13   11     -1.63      0.00
  -15   13    8     -0.09      0.00
  -15   13    5      5.47      0.00
  -15   13    2     -1.90      0.00
   -2   15    1     -0.84      0.00
   -2   15    4     -3.29      0.00
   -2   15    7     -0.06      0.00
   -2   15   10      2.25      0.00
   -2   15   13      0.94      0.00
   -2   15   16      4.07      0.00
   -2   15   19     -1.43      0.00
  -15   12   18      1.91      0.00
  -15   12   15      1.14      0.00
  -15   12   12      5.11      0.00
  -15   12    9     -5.00      0.00
  -15   12    6      0.01      0.00
  -15   12    3      0.75      0.00
   -3   15    0      2.84      0.00
   -3   15    3      8.83      0.00
   -3   15    6     -4.69      0.00
   -3   15    9     -0.18      0.00
   -3   15   12     -3.21      0.00
   -3   15   15      0.54      0.00
   -3   15   18      2.05      0.00
  -15   11   19     -1.88      0.00
  -15   11   16      2.62      0.00
  -15   11   13     -3.01      0.00
  -15   11   10      3.68      0.00
  -15   11    7     -4.77      0.00
  -15   11    4      5.85      0.00
  -15   11    1      1.86      0.00
   -4   15    2     -9.66      0.00
   -4   15    5      4.31      0.00
   -4   15    8     -3.83      0.00
   -4   15   11      6.26      0.00
   -4   15   14      1.90      0.00
   -4   15   17      1.82      0.00
   -4   15   20      1.21      0.00
  -15   10   20      2.85      0.00
  -15   10   17     -3.44      0.00
  -15   10   14      0.46      0.00
  -15   10   11     -2.31      0.00
  -15   10    8      4.78      0.00
  -15   10    5     -7.94      0.00
  -15   10    2     -2.84      0.00
   -5   15    1      5.16      0.00
   -5   15    4     -1.76      0.00
   -5   15    7      8.24      0.00
   -5   15   10     -5.34      0.00
   -5   15   13     -3.37      0.00
   -5   15   16     -1.23      0.00
   -5   15   19     -0.97      0.00
  -15    9   21     -0.66      0.00
  -15    9   18      2.38      0.00
  -15    9   15      1.23      0.00
  -15    9   12      2.95      0.00
  -15    9    9     -3.28      0.00
  -15    9    6     -0.94      0.00
  -15    9    3     -4.99      0.00
   -6   15    0      4.53      0.00
   -6   15    3      1.84      0.00
   -6   15    6     -6.16      0.00
   -6   15    9      1.59      0.00
   -6   15   12     -1.25      0.00
   -6   15   15      0.98      0.00
   -6   15   18     -2.47      0.00
   -6   15   21     -2.88      0.00
  -15    8   19     -1.21      0.00
  -15    8   16     -2.04      0.00
  -15    8   13     -0.08      0.00
  -15    8   10     -1.43      0.00
  -15    8    7     -0.81      0.00
  -15    8    4      6.12      0.00
  -15    8    1     -8.42      0.00
   -7   15    2      7.00      0.00
   -7   15    5      0.77      0.00
   -7   15    8     -2.80      0.00
   -7   15   11      4.69      0.00
   -7   15   14     -2.25      0.00
   -7   15   17      5.31      0.00
   -7   15   20      2.23      0.00
    7    8   20     -2.82      0.00
    7    8   17      0.51      0.00
    7    8   14     -0.45      0.00
    7    8   11      8.25      0.00
    7    8    8      4.62      0.00
    7    8    5     -2.40      0.00
    7    8    2      7.05      0.00
   -8   15    1    -14.58      0.00
   -8   15    4      1.14      0.00
   -8   15    7      0.60      0.00
   -8   15   10     -5.78      0.00
   -8   15   13      3.28      0.00
   -8   15   16     -3.85      0.00
   -8   15   19      2.89      0.00
    6    9   21      0.72      0.00
    6    9   18     -0.22      0.00
    6    9   15      1.63      0.00
    6    9   12     -5.94      0.00
    6    9    9      1.33      0.00
    6    9    6     -0.41      0.00
    6    9    3     -5.79      0.00
   -9   15    0     13.08      0.00
   -9   15    3     -0.01      0.00
   -9   15    6     -0.51      0.00
   -9   15    9      0.75      0.00
   -9   15   12     -2.17      0.00
   -9   15   15      4.46      0.00
   -9   15   18     -1.68      0.00
   -9   15   21      5.28      0.00
    5   10   19     -1.40      0.00
    5   10   16      1.27      0.00
    5   10   13      4.74      0.00
    5   10   10     -2.98      0.00
    5   10    7      1.74      0.00
    5   10    4     -2.79      0.00
    5   10    1     -6.55      0.00
  -10   15    2     -2.52      0.00
  -10   15    5     -0.32      0.00
  -10   15    8      1.97      0.00
  -10   15   11     -0.74      0.00
  -10   15   14     -3.16      0.00
  -10   15   17     -0.65      0.00
  -10   15   20     -3.54      0.00
    4   11   20      0.82      0.00
    4   11   17     -4.53      0.00
    4   11   14     -2.52      0.00
    4   11   11      2.71      0.00
    4   11    8     -2.57      0.00
    4   11    5     11.22      0.00
    4   11    2     -4.78      0.00
  -11   15    1     -0.54      0.00
  -11   15    4     -0.36      0.00
  -11   15    7     -4.15      0.00
  -11   15   10      1.60      0.00
  -11   15   13     -3.44      0.00
  -11   15   16      3.05      0.00
  -11   15   19      4.57      0.00
    3   12   18      2.94      0.00
    3   12   15      0.89      0.00
    3   12   12      1.18      0.00
    3   12    9      4.35      0.00
    3   12    6    -11.17      0.00
    3   12    3      8.30      0.00
  -12   15    0     -1.42      0.00
  -12   15    3      1.65      0.00
  -12   15    6      4.90      0.00
  -12   15    9     -4.92      0.00
  -12   15   12      4.38      0.00
  -12   15   15     -0.86      0.00
  -12   15   18      0.32      0.00
    2   13   19     -0.73      0.00
    2   13   16      1.71      0.00
    2   13   13      0.29      0.00
    2   13   10     -0.14      0.00
    2   13    7      6.39      0.00
    2   13    4     -3.58      0.00
    2   13    1      5.02      0.00
  -13   15    2     -3.98      0.00
  -13   15    5     -2.29      0.00
  -13   15    8      3.91      0.00
  -13   15   11     -3.01      0.00
  -13   15   14     -0.71      0.00
  -13   15   17     -2.25      0.00
  -13   15   20     -0.17      0.00
    1   14   17     -0.28      0.00
    1   14   14      0.08      0.00
    1   14   11     -1.09      0.00
    1   14    8      0.72      0.00
    1   14    5     -1.28      0.00
    1   14    2     -1.17      0.00
  -14   15    1      5.95      0.00
  -14   15    4     -1.26      0.00
  -14   15    7      1.66      0.00
  -14   15   10      0.18      0.00
  -14   15   13     -0.95      0.00
  -14   15   16      0.29      0.00
  -14   15   19      1.25      0.00
    0   15   18     -0.23      0.00
    0   15   15      0.17      0.00
    0   15   12      3.36      0.00
    0   15    9     -4.30      0.00
    0   15    6      4.25      0.00
    0   15    3     -3.09      0.00
    0   15    0     -2.70      0.00
  -15   15    3      7.55      0.00
  -15   15    6     -2.40      0.00
  -15   15    9      3.05      0.00
  -15   15   12     -0.72      0.00
  -15   15   15      4.14      0.00
  -15   15   18      3.48      0.00
  -16   15   17     -4.66      0.00
  -16   15   14     -3.98      0.00
  -16   15   11      0.25      0.00
  -16   15    8     -4.94      0.00
  -16   15    5      5.53      0.00
  -16   15    2     -5.32      0.00
   -1   16    1      0.27      0.00
   -1   16    4      2.64      0.00
   -1   16    7     -5.34      0.00
   -1   16   10      7.33      0.00
   -1   16   13     -1.52      0.00
   -1   16   16      0.41      0.00
  -16   14   18      3.37      0.00
  -16   14   12      2.94      0.00
  -16   14    9      3.39      0.00
  -16   14    6     -4.44      0.00
  -16   14    3      3.15      0.00
   -2   16    0     -1.53      0.00
   -2   16    3      3.23      0.00
   -2   16    6      1.68      0.00
   -2   16    9     -8.33      0.00
   -2   16   12      2.09      0.00
   -2   16   15     -0.46      0.00
   -2   16   18      2.06      0.00
  -16   13   19      0.07      0.00
  -16   13   16      4.05      0.00
  -16   13   13     -3.21      0.00
  -16   13   10     -0.53      0.00
  -16   13    7     -0.88      0.00
  -16   13    4     -0.54      0.00
  -16   13    1      0.71      0.00
   -3   16    2     -7.21      0.00
   -3   16    5      1.61      0.00
   -3   16    8      2.45      0.00
   -3   16   11      1.26      0.00
   -3   16   14     -0.42      0.00
   -3   16   17     -3.86      0.00
  -16   12   17     -5.77      0.00
  -16   12   14     -0.82      0.00
  -16   12   11     -0.99      0.00
  -16   12    8      6.75      0.00
  -16   12    5     -5.75      0.00
  -16   12    2     -3.24      0.00
   -4   16    1      3.55      0.00
   -4   16    4     -5.58      0.00
   -4   16    7      4.39      0.00
   -4   16   10     -3.14      0.00
   -4   16   13     -0.41      0.00
   -4   16   16     -0.16      0.00
   -4   16   19     -3.00      0.00
  -16   11   18      3.87      0.00
  -16   11   15      1.01      0.00
  -16   11   12      1.06      0.00
  -16   11    9     -6.72      0.00
  -16   11    6      7.92      0.00
  -16   11    3      1.20      0.00
   -5   16    0     -0.83      0.00
   -5   16    3      6.09      0.00
   -5   16    6     -6.11      0.00
   -5   16    9      3.98      0.00
   -5   16   12     -0.22      0.00
   -5   16   15     -0.03      0.00
   -5   16   18     -0.57      0.00
  -16   10   19     -3.44      0.00
  -16   10   16     -0.12      0.00
  -16   10   13     -0.72      0.00
  -16   10   10      2.40      0.00
  -16   10    7     -4.07      0.00
  -16   10    4      5.47      0.00
  -16   10    1     -0.33      0.00
   -6   16    2     -4.50      0.00
   -6   16    5      0.60      0.00
   -6   16    8     -4.81      0.00
   -6   16   11      3.86      0.00
   -6   16   14      1.24      0.00
   -6   16   17      2.53      0.00
   -6   16   20      3.43      0.00
  -16    9   20      2.36      0.00
  -16    9   17     -0.20      0.00
  -16    9   14     -0.86      0.00
  -16    9   11      0.44      0.00
  -16    9    8      3.71      0.00
  -16    9    5     -1.53      0.00
  -16    9    2      3.69      0.00
   -7   16    1     -5.06      0.00
   -7   16    4      2.47      0.00
   -7   16    7      5.15      0.00
   -7   16   10     -3.20      0.00
   -7   16   13      1.17      0.00
   -7   16   16     -4.33      0.00
   -7   16   19     -4.18      0.00
    8    8   18      2.13      0.00
    8    8   15      1.11      0.00
    8    8   12     -2.76      0.00
    8    8    9      0.28      0.00
    8    8    6      0.29      0.00
    8    8    3     -5.84      0.00
   -8   16    0     10.59      0.00
   -8   16    3     -5.70      0.00
   -8   16    6     -0.65      0.00
   -8   16    9      4.09      0.00
   -8   16   12     -3.51      0.00
   -8   16   15      6.30      0.00
   -8   16   18      1.72      0.00
    7    9   19      0.74      0.00
    7    9   16      0.82      0.00
    7    9   13      0.29      0.00
    7    9   10     -7.28      0.00
    7    9    7     -3.58      0.00
    7    9    4      3.22      0.00
    7    9    1     -7.83      0.00
   -9   16    2      7.26      0.00
   -9   16    5     -1.90      0.00
   -9   16    8     -2.33      0.00
   -9   16   11      5.91      0.00
   -9   16   14     -6.29      0.00
   -9   16   17     -1.32      0.00
   -9   16   20     -4.62      0.00
    6   10   20     -0.43      0.00
    6   10   17     -2.95      0.00
    6   10   14      0.75      0.00
    6   10   11      6.42      0.00
    6   10    8      3.12      0.00
    6   10    5      4.32      0.00
    6   10    2      0.92      0.00
  -10   16    1     -6.68      0.00
  -10   16    4      2.10      0.00
  -10   16    7      2.36      0.00
  -10   16   10     -4.82      0.00
  -10   16   13      1.18      0.00
  -10   16   16      0.03      0.00
  -10   16   19      3.08      0.00
    5   11   18      3.04      0.00
    5   11   15     -3.86      0.00
    5   11   12     -4.76      0.00
    5   11    9     -2.41      0.00
    5   11    6    -10.41      0.00
    5   11    3      5.56      0.00
  -11   16    0      4.81      0.00
  -11   16    3      1.78      0.00
  -11   16    6     -0.72      0.00
  -11   16    9      2.64      0.00
  -11   16   12      5.80      0.00
  -11   16   15      2.03      0.00
  -11   16   18     -2.56      0.00
    4   12   19     -1.97      0.00
    4   12   16      6.80      0.00
    4   12   13      1.87      0.00
    4   12   10      0.31      0.00
    4   12    7     10.32      0.00
    4   12    4     -8.09      0.00
    4   12    1      2.82      0.00
  -12   16    2     -2.71      0.00
  -12   16    5     -0.47      0.00
  -12   16    8      2.48      0.00
  -12   16   11     -3.58      0.00
  -12   16   14      0.11      0.00
  -12   16   17     -2.29      0.00
    3   13   17     -6.96      0.00
    3   13   14     -3.35      0.00
    3   13   11     -2.91      0.00
    3   13    8     -9.23      0.00
    3   13    5      5.13      0.00
    3   13    2     -6.18      0.00
  -13   16    1      3.00      0.00
  -13   16    4      0.70      0.00
  -13   16    7     -2.54      0.00
  -13   16   10      4.51      0.00
  -13   16   13     -0.05      0.00
  -13   16   16      3.34      0.00
  -13   16   19      0.66      0.00
    2   14   18      1.93      0.00
    2   14   15      0.75      0.00
    2   14   12      0.03      0.00
    2   14    9      3.32      0.00
    2   14    6      0.17      0.00
    2   14    3      1.83      0.00
  -14   16    0     -3.47      0.00
  -14   16    3     -0.42      0.00
  -14   16    6     -0.56      0.00
  -14   16    9     -1.14      0.00
  -14   16   12      1.88      0.00
  -14   16   15      1.54      0.00
  -14   16   18      1.28      0.00
    1   15   16     -1.44      0.00
    1   15   13      0.28      0.00
    1   15   10     -1.15      0.00
    1   15    7     -4.59      0.00
    1   15    4      3.07      0.00
    1   15    1      0.51      0.00
  -15   16    2     -3.19      0.00
  -15   16    5     -0.06      0.00
  -15   16    8     -5.14      0.00
  -15   16   11      0.55      0.00
  -15   16   14     -2.98      0.00
  -15   16   17     -3.40      0.00
    0   16   17      1.43      0.00
    0   16   14     -2.72      0.00
    0   16   11     -3.17      0.00
    0   16    8      4.62      0.00
    0   16    5     -4.11      0.00
    0   16    2      0.10      0.00
  -16   16    1      0.18      0.00
  -16   16    4     -5.00      0.00
  -16   16    7      4.41      0.00
  -16   16   10     -1.13      0.00
  -16   16   13      2.17      0.00
  -16   16   16      0.21      0.00
  -17   16   15      0.84      0.00
  -17   16   12      1.87      0.00
  -17   16    9      1.54      0.00
  -17   16    6     -4.28      0.00
  -17   16    3      3.30      0.00
   -1   17    0      3.15      0.00
   -1   17    3      3.02      0.00
   -1   17    6      2.95      0.00
   -1   17    9     -5.13      0.00
   -1   17   12      2.70      0.00
   -1   17   15      3.96      0.00
  -17   15   16      4.66      0.00
  -17   15   13     -1.23      0.00
  -17   15   10     -2.50      0.00
  -17   15    7      4.38      0.00
  -17   15    4     -1.23      0.00
  -17   15    1      0.83      0.00
   -2   17    2     -4.12      0.00
   -2   17    5     -5.45      0.00
   -2   17    8      4.93      0.00
   -2   17   11     -4.63      0.00
   -2   17   14     -1.57      0.00
   -2   17   17     -0.19      0.00
  -17   14   17     -7.03      0.00
  -17   14   14     -0.88      0.00
  -17   14   11      0.28      0.00
  -17   14    8     -3.45      0.00
  -17   14    5     -2.18      0.00
  -17   14    2     -0.86      0.00
   -3   17    1      2.59      0.00
   -3   17    4      3.35      0.00
   -3   17    7     -0.14      0.00
   -3   17   10      2.32      0.00
   -3   17   13     -1.88      0.00
   -3   17   16      1.25      0.00
  -17   13   18      3.25      0.00
  -17   13   15     -0.21      0.00
  -17   13   12      1.73      0.00
  -17   13    9      0.83      0.00
  -17   13    6      6.34      0.00
  -17   13    3      1.16      0.00
   -4   17    0      1.89      0.00
   -4   17    3      2.48      0.00
   -4   17    6     -2.78      0.00
   -4   17    9     -0.24      0.00
   -4   17   12      0.13      0.00
   -4   17   15      0.23      0.00
   -4   17   18      2.24      0.00
  -17   12   19      0.71      0.00
  -17   12   16      3.42      0.00
  -17   12   13     -0.35      0.00
  -17   12   10     -0.72      0.00
  -17   12    7     -7.33      0.00
  -17   12    4      1.43      0.00
  -17   12    1     -1.45      0.00
   -5   17    2     -2.92      0.00
   -5   17    5      3.14      0.00
   -5   17    8     -2.23      0.00
   -5   17   11      0.49      0.00
   -5   17   14      0.64      0.00
   -5   17   17      1.35      0.00
  -17   11   17     -3.72      0.00
  -17   11   14     -1.41      0.00
  -17   11   11      2.09      0.00
  -17   11    8      5.90      0.00
  -17   11    5     -3.48      0.00
  -17   11    2     -1.71      0.00
   -6   17    1      1.74      0.00
   -6   17    4     -0.08      0.00
   -6   17    7      1.87      0.00
   -6   17   10     -1.19      0.00
   -6   17   13     -2.86      0.00
   -6   17   16     -2.89      0.00
   -6   17   19     -0.18      0.00
  -17   10   18      3.87      0.00
  -17   10   15      2.14      0.00
  -17   10   12     -1.46      0.00
  -17   10    9     -3.07      0.00
  -17   10    6     -1.34      0.00
  -17   10    3     -1.10      0.00
   -7   17    0      1.09      0.00
   -7   17    3      0.77      0.00
   -7   17    6      2.25      0.00
   -7   17    9     -0.46      0.00
   -7   17   12      0.52      0.00
   -7   17   15      3.87      0.00
   -7   17   18      0.91      0.00
  -17    9   19     -5.63      0.00
  -17    9   16     -2.44      0.00
  -17    9   13      0.67      0.00
  -17    9   10     -1.51      0.00
  -17    9    7     -0.02      0.00
  -17    9    4      1.55      0.00
  -17    9    1     -2.53      0.00
   -8   17    2      1.09      0.00
   -8   17    5     -5.17      0.00
   -8   17    8     -1.05      0.00
   -8   17   11      0.84      0.00
   -8   17   14     -5.78      0.00
   -8   17   17     -0.89      0.00
    8    9   17     -0.64      0.00
    8    9   14      0.64      0.00
    8    9   11      3.32      0.00
    8    9    8      1.51      0.00
    8    9    5     -0.03      0.00
    8    9    2      3.31      0.00
   -9   17    1     -2.05      0.00
   -9   17    4      5.47      0.00
   -9   17    7      1.63      0.00
   -9   17   10     -3.77      0.00
   -9   17   13      3.98      0.00
   -9   17   16     -1.43      0.00
   -9   17   19     -1.80      0.00
    7   10   18      0.27      0.00
    7   10   15     -1.80      0.00
    7   10   12      0.43      0.00
    7   10    9     -0.78      0.00
    7   10    6     -1.00      0.00
    7   10    3     -1.29      0.00
  -10   17    0      2.49      0.00
  -10   17    3     -2.52      0.00
  -10   17    6     -3.54      0.00
  -10   17    9      3.97      0.00
  -10   17   12     -1.12      0.00
  -10   17   15      4.15      0.00
  -10   17   18      1.31      0.00
    6   11   19      1.05      0.00
    6   11   16      4.87      0.00
    6   11   13     -2.43      0.00
    6   11   10      1.53      0.00
    6   11    7      1.39      0.00
    6   11    4     -1.90      0.00
    6   11    1      0.67      0.00
  -11   17    2     -2.47      0.00
  -11   17    5      2.29      0.00
  -11   17    8     -3.76      0.00
  -11   17   11     -0.24      0.00
  -11   17   14     -4.16      0.00
  -11   17   17      0.27      0.00
    5   12   17     -4.98      0.00
    5   12   14      3.28      0.00
    5   12   11     -1.08      0.00
    5   12    8     -1.54      0.00
    5   12    5      4.54      0.00
    5   12    2     -5.09      0.00
  -12   17    1      2.03      0.00
  -12   17    4     -2.09      0.00
  -12   17    7      0.75      0.00
  -12   17   10     -3.28      0.00
  -12   17   13     -2.67      0.00
  -12   17   16     -0.87      0.00
  -12   17   19      2.15      0.00
    4   13   18      3.69      0.00
    4   13   15     -3.05      0.00
    4   13   12      3.02      0.00
    4   13    9      4.74      0.00
    4   13    6     -3.72      0.00
    4   13    3      4.08      0.00
  -13   17    0     -2.07      0.00
  -13   17    3      1.05      0.00
  -13   17    6      0.54      0.00
  -13   17    9     -0.04      0.00
  -13   17   12      1.31      0.00
  -13   17   15      0.78      0.00
  -13   17   18      0.72      0.00
    3   14   16      6.18      0.00
    3   14   13      2.23      0.00
    3   14   10     -2.84      0.00
    3   14    7      2.78      0.00
    3   14    4     -0.41      0.00
    3   14    1      1.46      0.00
  -14   17    2      0.29      0.00
  -14   17    5     -1.84      0.00
  -14   17    8     -1.26      0.00
  -14   17   11     -2.85      0.00
  -14   17   14     -4.82      0.00
  -14   17   17     -4.05      0.00
    2   15   17     -2.35      0.00
    2   15   14     -2.13      0.00
    2   15   11      5.40      0.00
    2   15    8      1.02      0.00
    2   15    5     -3.09      0.00
    2   15    2      0.24      0.00
  -15   17    1     -0.13      0.00
  -15   17    4      5.72      0.00
  -15   17    7      5.58      0.00
  -15   17   10      0.38      0.00
  -15   17   13      3.50      0.00
  -15   17   16      2.75      0.00
    1   16   15      3.30      0.00
    1   16   12     -1.54      0.00
    1   16    9      0.14      0.00
    1   16    6      3.01      0.00
    1   16    3      0.18      0.00
  -16   17    0      4.35      0.00
  -16   17    3     -1.11      0.00
  -16   17    6     -2.88      0.00
  -16   17    9      1.69      0.00
  -16   17   12     -4.18      0.00
  -16   17   15      0.05      0.00
    0   17   16     -2.89      0.00
    0   17   13      0.36      0.00
    0   17   10      1.01      0.00
    0   17    7      1.13      0.00
    0   17    4     -1.26      0.00
    0   17    1     -3.99      0.00
  -17   17    2      0.22      0.00
  -17   17    5      5.60      0.00
  -17   17    8      1.32      0.00
  -17   17   11      1.59      0.00
  -17   17   14      0.01      0.00
  -18   17   13     -3.92      0.00
  -18   17   10     -0.39      0.00
  -18   17    7     -3.73      0.00
  -18   17    4     -2.50      0.00
  -18   17    1      0.11      0.00
   -1   18    2     -4.25      0.00
   -1   18    5     -1.54      0.00
   -1   18    8     -3.29      0.00
   -1   18   11     -0.60      0.00
   -1   18   14     -2.79      0.00
  -18   16   14      1.85      0.00
  -18   16   11     -1.20      0.00
  -18   16    8     -0.31      0.00
  -18   16    5     -0.75      0.00
  -18   16    2     -2.09      0.00
   -2   18    1     -0.36      0.00
   -2   18    4      3.53      0.00
   -2   18    7      1.30      0.00
   -2   18   10      1.81      0.00
   -2   18   13      1.28      0.00
   -2   18   16     -1.91      0.00
  -18   15   15     -3.11      0.00
  -18   15   12      2.04      0.00
  -18   15    9      3.09      0.00
  -18   15    6      2.40      0.00
  -18   15    3     -1.31      0.00
   -3   18    0      2.69      0.00
   -3   18    3     -1.89      0.00
   -3   18    6     -0.01      0.00
   -3   18    9     -1.05      0.00
   -3   18   12      1.50      0.00
   -3   18   15      1.60      0.00
  -18   14   16      7.03      0.00
  -18   14   13      0.28      0.00
  -18   14   10     -2.40      0.00
  -18   14    7     -1.39      0.00
  -18   14    4      4.43      0.00
  -18   14    1     -4.02      0.00
   -4   18    2     -0.13      0.00
   -4   18    5     -1.60      0.00
   -4   18    8      0.03      0.00
   -4   18   11      2.30      0.00
   -4   18   14      2.43      0.00
   -4   18   17     -2.71      0.00
  -18   13   17     -6.84      0.00
  -18   13   14     -2.51      0.00
  -18   13   11      1.20      0.00
  -18   13    8      0.76      0.00
  -18   13    5     -5.97      0.00
  -18   13    2      1.33      0.00
   -5   18    1     -2.61      0.00
   -5   18    4      0.51      0.00
   -5   18    7      0.21      0.00
   -5   18   10     -2.06      0.00
   -5   18   13     -3.23      0.00
   -5   18   16      0.34      0.00
  -18   12   18      2.95      0.00
  -18   12   15      2.20      0.00
  -18   12   12      0.21      0.00
  -18   12    9     -0.89      0.00
  -18   12    6      2.56      0.00
  -18   12    3      2.76      0.00
   -6   18    0      3.47      0.00
   -6   18    3     -0.90      0.00
   -6   18    6      1.72      0.00
   -6   18    9      0.91      0.00
   -6   18   12      4.93      0.00
   -6   18   15      1.78      0.00
   -6   18   18     -3.96      0.00
  -18   11   16     -0.98      0.00
  -18   11   13     -0.53      0.00
  -18   11   10     -1.27      0.00
  -18   11    7      1.83      0.00
  -18   11    4     -3.08      0.00
  -18   11    1     -0.89      0.00
   -7   18    2     -2.10      0.00
   -7   18    5     -5.37      0.00
   -7   18    8      2.48      0.00
   -7   18   11     -4.70      0.00
   -7   18   14     -2.17      0.00
   -7   18   17      1.93      0.00
  -18   10   17      0.23      0.00
  -18   10   14     -0.76      0.00
  -18   10   11      3.31      0.00
  -18   10    8     -0.39      0.00
  -18   10    5      5.37      0.00
  -18   10    2     -0.25      0.00
   -8   18    1      3.45      0.00
   -8   18    4      4.40      0.00
   -8   18    7     -4.22      0.00
   -8   18   10      5.34      0.00
   -8   18   13      3.04      0.00
   -8   18   16      0.42      0.00
    9    9   18      3.73      0.00
    9    9   15      2.82      0.00
    9    9   12     -1.77      0.00
    9    9    9      0.48      0.00
    9    9    6     -3.06      0.00
    9    9    3     -1.16      0.00
   -9   18    0     -3.90      0.00
   -9   18    3     -1.80      0.00
   -9   18    6      2.23      0.00
   -9   18    9     -2.15      0.00
   -9   18   12     -0.46      0.00
   -9   18   15      1.72      0.00
   -9   18   18      2.06      0.00
    8   10   16     -0.99      0.00
    8   10   13     -1.31      0.00
    8   10   10      1.28      0.00
    8   10    7      0.15      0.00
    8   10    4      0.92      0.00
    8   10    1      0.37      0.00
  -10   18    2     -3.54      0.00
  -10   18    5      1.66      0.00
  -10   18    8     -1.06      0.00
  -10   18   11     -0.44      0.00
  -10   18   14     -3.13      0.00
  -10   18   17     -0.48      0.00
    7   11   17     -0.91      0.00
    7   11   14      1.00      0.00
    7   11   11     -4.88      0.00
    7   11    8      2.75      0.00
    7   11    5     -0.59      0.00
    7   11    2     -0.67      0.00
  -11   18    1      5.27      0.00
  -11   18    4     -2.91      0.00
  -11   18    7      5.63      0.00
  -11   18   10     -0.24      0.00
  -11   18   13      2.18      0.00
  -11   18   16     -1.58      0.00
    6   12   18     -1.18      0.00
    6   12   15     -1.37      0.00
    6   12   12      7.23      0.00
    6   12    9     -2.88      0.00
    6   12    6      1.70      0.00
    6   12    3      1.74      0.00
  -12   18    0     -2.24      0.00
  -12   18    3      6.03      0.00
  -12   18    6     -5.42      0.00
  -12   18    9      2.58      0.00
  -12   18   12      1.86      0.00
  -12   18   15      3.93      0.00
  -12   18   18     -1.01      0.00
    5   13   16      1.98      0.00
    5   13   13     -6.90      0.00
    5   13   10     -1.61      0.00
    5   13    7     -2.18      0.00
    5   13    4     -0.15      0.00
    5   13    1      1.57      0.00
  -13   18    2     -4.32      0.00
  -13   18    5      2.57      0.00
  -13   18    8      0.15      0.00
  -13   18   11      2.46      0.00
  -13   18   14     -0.79      0.00
  -13   18   17      0.92      0.00
    4   14   17     -3.62      0.00
    4   14   14      0.32      0.00
    4   14   11      0.65      0.00
    4   14    8     -1.39      0.00
    4   14    5     -1.71      0.00
    4   14    2      0.87      0.00
  -14   18    1      0.87      0.00
  -14   18    4      2.45      0.00
  -14   18    7      0.95      0.00
  -14   18   10     -0.31      0.00
  -14   18   13      2.86      0.00
  -14   18   16      0.50      0.00
    3   15   15     -1.87      0.00
    3   15   12     -4.47      0.00
    3   15    9     -0.21      0.00
    3   15    6      0.77      0.00
    3   15    3     -1.41      0.00
  -15   18    0      3.55      0.00
  -15   18    3     -6.89      0.00
  -15   18    6     -3.79      0.00
  -15   18    9      0.25      0.00
  -15   18   12     -1.15      0.00
  -15   18   15      2.98      0.00
    2   16   16      0.57      0.00
    2   16   13      1.24      0.00
    2   16   10     -4.59      0.00
    2   16    7      0.08      0.00
    2   16    4      1.09      0.00
    2   16    1     -6.88      0.00
  -16   18    2      2.68      0.00
  -16   18    5     -0.49      0.00
  -16   18    8     -1.16      0.00
  -16   18   11      3.74      0.00
  -16   18   14     -3.05      0.00
    1   17   14     -0.48      0.00
    1   17   11      2.55      0.00
    1   17    8     -3.41      0.00
    1   17    5      0.24      0.00
    1   17    2      2.02      0.00
  -17   18    1     -2.29      0.00
  -17   18    4     -2.13      0.00
  -17   18    7     -3.73      0.00
  -17   18   10     -2.97      0.00
  -17   18   13      3.11      0.00
    0   18   15      1.81      0.00
    0   18   12      1.54      0.00
    0   18    9      3.98      0.00
    0   18    6     -3.00      0.00
    0   18    3      5.75      0.00
    0   18    0      1.53      0.00
  -18   18    3     -0.20      0.00
  -18   18    6      1.56      0.00
  -18   18    9     -1.20      0.00
  -18   18   12      0.05      0.00
  -18   18   15     -1.56      0.00
  -19   18   14      3.65      0.00
  -19   18   11     -1.10      0.00
  -19   18    8      3.99      0.00
  -19   18    5     -0.66      0.00
  -19   18    2      0.23      0.00
   -1   19    1      3.43      0.00
   -1   19    4     -2.49      0.00
   -1   19    7      5.73      0.00
   -1   19   10     -3.48      0.00
   -1   19   13     -0.37      0.00
  -19   17   12      3.74      0.00
  -19   17    9     -0.15      0.00
  -19   17    6      6.29      0.00
  -19   17    3      0.38      0.00
   -2   19    0      0.91      0.00
   -2   19    3      1.94      0.00
   -2   19    6     -2.39      0.00
   -2   19    9      4.02      0.00
   -2   19   12     -2.25      0.00
  -19   16   13     -2.50      0.00
  -19   16   10     -0.42      0.00
  -19   16    7     -4.42      0.00
  -19   16    4      4.38      0.00
  -19   16    1     -1.49      0.00
   -3   19    2      0.14      0.00
   -3   19    5     -0.86      0.00
   -3   19    8     -2.17      0.00
   -3   19   11      1.94      0.00
   -3   19   14     -3.17      0.00
  -19   15   14      0.45      0.00
  -19   15   11     -0.12      0.00
  -19   15    8      0.62      0.00
  -19   15    5     -6.88      0.00
  -19   15    2      3.64      0.00
   -4   19    1     -2.59      0.00
   -4   19    4      2.73      0.00
   -4   19    7      0.79      0.00
   -4   19   10     -4.02      0.00
   -4   19   13     -1.22      0.00
   -4   19   16      1.83      0.00
  -19   14   15     -2.12      0.00
  -19   14   12     -0.63      0.00
  -19   14    9     -0.87      0.00
  -19   14    6      4.00      0.00
  -19   14    3     -4.42      0.00
   -5   19    0      4.87      0.00
   -5   19    3     -1.30      0.00
   -5   19    6      0.91      0.00
   -5   19    9      2.27      0.00
   -5   19   12     -1.22      0.00
   -5   19   15     -3.67      0.00
  -19   13   16      4.26      0.00
  -19   13   13      1.07      0.00
  -19   13   10      1.80      0.00
  -19   13    7      2.13      0.00
  -19   13    4      2.01      0.00
  -19   13    1     -3.53      0.00
   -6   19    2      2.09      0.00
   -6   19    5     -2.05      0.00
   -6   19    8     -0.01      0.00
   -6   19   11     -0.48      0.00
   -6   19   14      3.16      0.00
  -19   12   17     -3.37      0.00
  -19   12   14     -2.94      0.00
  -19   12   11     -1.94      0.00
  -19   12    8     -3.97      0.00
  -19   12    5      2.72      0.00
  -19   12    2     -1.50      0.00
   -7   19    1     -0.64      0.00
   -7   19    4      4.57      0.00
   -7   19    7     -3.70      0.00
   -7   19   10      3.31      0.00
   -7   19   13     -2.17      0.00
   -7   19   16     -2.56      0.00
  -19   11   15      4.40      0.00
  -19   11   12      2.31      0.00
  -19   11    9      3.19      0.00
  -19   11    6     -6.46      0.00
  -19   11    3      4.34      0.00
   -8   19    0     -1.44      0.00
   -8   19    3     -2.07      0.00
   -8   19    6      5.20      0.00
   -8   19    9     -6.04      0.00
   -8   19   12      2.18      0.00
   -8   19   15      2.03      0.00
  -19   10   16     -4.17      0.00
  -19   10   13     -2.01      0.00
  -19   10   10     -5.18      0.00
  -19   10    7      2.22      0.00
  -19   10    4     -4.81      0.00
  -19   10    1      3.06      0.00
   -9   19    2     -2.85      0.00
   -9   19    5     -1.96      0.00
   -9   19    8      5.13      0.00
   -9   19   11     -5.50      0.00
   -9   19   14     -4.10      0.00
   -9   19   17     -4.63      0.00
    9   10   17     -0.95      0.00
    9   10   14     -1.32      0.00
    9   10   11      3.50      0.00
    9   10    8      0.69      0.00
    9   10    5      2.03      0.00
    9   10    2     -0.08      0.00
  -10   19    1      8.36      0.00
  -10   19    4     -0.65      0.00
  -10   19    7     -0.61      0.00
  -10   19   10      5.00      0.00
  -10   19   13      3.54      0.00
  -10   19   16      4.81      0.00
    8   11   15      3.65      0.00
    8   11   12      1.64      0.00
    8   11    9     -5.20      0.00
    8   11    6      0.81      0.00
    8   11    3      0.39      0.00
  -11   19    0     -5.01      0.00
  -11   19    3      3.35      0.00
  -11   19    6     -7.35      0.00
  -11   19    9     -2.75      0.00
  -11   19   12     -1.84      0.00
  -11   19   15     -2.93      0.00
    7   12   16     -1.87      0.00
    7   12   13     -4.29      0.00
    7   12   10      5.33      0.00
    7   12    7     -4.52      0.00
    7   12    4     -0.89      0.00
    7   12    1      0.13      0.00
  -12   19    2     -6.22      0.00
  -12   19    5      8.79      0.00
  -12   19    8     -0.43      0.00
  -12   19   11      0.29      0.00
  -12   19   14     -0.18      0.00
  -12   19   17      2.16      0.00
    6   13   14      2.08      0.00
    6   13   11     -2.43      0.00
    6   13    8      5.41      0.00
    6   13    5     -2.50      0.00
    6   13    2      0.13      0.00
  -13   19    1      2.02      0.00
  -13   19    4     -6.49      0.00
  -13   19    7      0.93      0.00
  -13   19   10     -4.14      0.00
  -13   19   13     -3.12      0.00
  -13   19   16     -3.29      0.00
    5   14   15      1.39      0.00
    5   14   12      3.02      0.00
    5   14    9     -0.40      0.00
    5   14    6      4.78      0.00
    5   14    3     -2.05      0.00
  -14   19    0      0.92      0.00
  -14   19    3      0.85      0.00
  -14   19    6     -1.84      0.00
  -14   19    9      1.51      0.00
  -14   19   12      0.50      0.00
  -14   19   15      2.09      0.00
    4   15   16      1.43      0.00
    4   15   13      2.89      0.00
    4   15   10      0.99      0.00
    4   15    7     -0.12      0.00
    4   15    4      2.58      0.00
    4   15    1     -5.09      0.00
  -15   19    2      2.94      0.00
  -15   19    5      1.02      0.00
  -15   19    8     -0.47      0.00
  -15   19   11     -1.37      0.00
  -15   19   14     -4.59      0.00
    3   16   14     -1.86      0.00
    3   16   11      3.58      0.00
    3   16    8      0.66      0.00
    3   16    5     -1.22      0.00
    3   16    2      5.27      0.00
  -16   19    1     -3.01      0.00
  -16   19    4      4.42      0.00
  -16   19    7      2.45      0.00
  -16   19   10     -0.88      0.00
  -16   19   13      2.55      0.00
    2   17   12      0.60      0.00
    2   17    9      2.78      0.00
    2   17    6     -1.50      0.00
    2   17    3     -0.84      0.00
  -17   19    0      5.51      0.00
  -17   19    3     -0.25      0.00
  -17   19    6      1.97      0.00
  -17   19    9      0.88      0.00
  -17   19   12     -4.34      0.00
    1   18   13     -4.63      0.00
    1   18   10     -4.13      0.00
    1   18    7      4.22      0.00
    1   18    4     -3.14      0.00
    1   18    1     -1.93      0.00
  -18   19    2      0.16      0.00
  -18   19    5      1.38      0.00
  -18   19    8      5.02      0.00
  -18   19   11      3.32      0.00
  -18   19   14      0.47      0.00
    0   19   11      1.03      0.00
    0   19    8     -3.30      0.00
    0   19    5      3.84      0.00
    0   19    2     -6.89      0.00
  -19   19    1      0.07      0.00
  -19   19    4      1.29      0.00
  -19   19    7     -4.20      0.00
  -19   19   10     -0.34      0.00
  -19   19   13     -1.85      0.00
  -20   19   12      3.23      0.00
  -20   19    9      0.78      0.00
  -20   19    6      0.58      0.00
  -20   19    3     -3.67      0.00
   -1   20    0     -0.24      0.00
   -1   20    3      3.32      0.00
   -1   20    6     -8.94      0.00
   -1   20    9      0.17      0.00
   -1   20   12      1.14      0.00
  -20   18   13     -4.42      0.00
  -20   18   10     -1.69      0.00
  -20   18    7     -6.14      0.00
  -20   18    4      0.55      0.00
  -20   18    1     -1.52      0.00
   -2   20    2     -2.50      0.00
   -2   20    5      5.55      0.00
   -2   20    8     -2.77      0.00
   -2   20   11      2.65      0.00
  -20   17   11      0.86      0.00
  -20   17    8      3.54      0.00
  -20   17    5     -5.72      0.00
  -20   17    2      0.54      0.00
   -3   20    1     -1.95      0.00
   -3   20    4     -2.44      0.00
   -3   20    7      0.49      0.00
   -3   20   10     -4.24      0.00
   -3   20   13      5.94      0.00
  -20   16   12     -1.35      0.00
  -20   16    9     -3.08      0.00
  -20   16    6      6.26      0.00
  -20   16    3     -4.14      0.00
   -4   20    0      3.65      0.00
   -4   20    3      0.79      0.00
   -4   20    6      0.32      0.00
   -4   20    9      3.81      0.00
   -4   20   12     -4.37      0.00
  -20   15   13      2.40      0.00
  -20   15   10      4.95      0.00
  -20   15    7     -1.46      0.00
  -20   15    4      5.99      0.00
  -20   15    1     -3.77      0.00
   -5   20    2     -0.75      0.00
   -5   20    5     -1.74      0.00
   -5   20    8     -1.86      0.00
   -5   20   11      5.22      0.00
   -5   20   14      6.05      0.00
  -20   14   14     -1.40      0.00
  -20   14   11     -4.58      0.00
  -20   14    8     -1.94      0.00
  -20   14    5     -2.27      0.00
  -20   14    2      4.01      0.00
   -6   20    1     -1.16      0.00
   -6   20    4      1.99      0.00
   -6   20    7      0.74      0.00
   -6   20   10     -0.79      0.00
   -6   20   13     -2.92      0.00
  -20   13   15      0.05      0.00
  -20   13   12      4.83      0.00
  -20   13    9      1.69      0.00
  -20   13    6     -4.31      0.00
  -20   13    3     -1.80      0.00
   -7   20    0      1.18      0.00
   -7   20    3     -3.68      0.00
   -7   20    6     -0.09      0.00
   -7   20    9     -2.50      0.00
   -7   20   12     -0.81      0.00
   -7   20   15      1.16      0.00
  -20   12   16      1.43      0.00
  -20   12   13     -3.37      0.00
  -20   12   10     -2.45      0.00
  -20   12    7      5.38      0.00
  -20   12    4     -2.55      0.00
  -20   12    1      1.10      0.00
   -8   20    2      1.16      0.00
   -8   20    5     -0.80      0.00
   -8   20    8      5.18      0.00
   -8   20   11     -0.83      0.00
   -8   20   14     -1.58      0.00
  -20   11   14     -2.15      0.00
  -20   11   11      3.77      0.00
  -20   11    8     -0.61      0.00
  -20   11    5      4.97      0.00
  -20   11    2     -4.06      0.00
   -9   20    1      3.03      0.00
   -9   20    4      1.26      0.00
   -9   20    7     -4.63      0.00
   -9   20   10      4.71      0.00
   -9   20   13      2.32      0.00
   -9   20   16      3.66      0.00
   10   10   15      7.18      0.00
   10   10   12     -1.27      0.00
   10   10    9      0.21      0.00
   10   10    6     -1.28      0.00
   10   10    3      3.58      0.00
  -10   20    0     -6.37      0.00
  -10   20    3     -1.13      0.00
  -10   20    6     -1.08      0.00
  -10   20    9     -4.36      0.00
  -10   20   12      0.63      0.00
  -10   20   15     -2.01      0.00
    9   11   16     -4.62      0.00
    9   11   13     -1.93      0.00
    9   11   10      0.61      0.00
    9   11    7      0.46      0.00
    9   11    4     -2.62      0.00
    9   11    1      1.28      0.00
  -11   20    2     -3.42      0.00
  -11   20    5      7.17      0.00
  -11   20    8      3.74      0.00
  -11   20   11     -1.90      0.00
  -11   20   14     -0.31      0.00
    8   12   14      1.18      0.00
    8   12   11      0.22      0.00
    8   12    8      3.28      0.00
    8   12    5      0.74      0.00
    8   12    2      1.61      0.00
  -12   20    1      4.44      0.00
  -12   20    4     -6.76      0.00
  -12   20    7     -0.36      0.00
  -12   20   10      0.37      0.00
  -12   20   13      2.07      0.00
  -12   20   16      4.10      0.00
    7   13   15      0.22      0.00
    7   13   12      0.69      0.00
    7   13    9     -4.69      0.00
    7   13    6      3.54      0.00
    7   13    3     -0.22      0.00
  -13   20    0     -0.36      0.00
  -13   20    3      4.73      0.00
  -13   20    6     -2.87      0.00
  -13   20    9      2.44      0.00
  -13   20   12      1.14      0.00
  -13   20   15     -1.73      0.00
    6   14   13     -0.93      0.00
    6   14   10     -0.47      0.00
    6   14    7     -5.57      0.00
    6   14    4      1.76      0.00
    6   14    1      1.04      0.00
  -14   20    2      1.34      0.00
  -14   20    5      3.32      0.00
  -14   20    8     -0.85      0.00
  -14   20   11      1.05      0.00
  -14   20   14      2.52      0.00
    5   15   14     -3.52      0.00
    5   15   11      0.58      0.00
    5   15    8      1.11      0.00
    5   15    5     -4.26      0.00
    5   15    2      0.93      0.00
  -15   20    1     -3.54      0.00
  -15   20    4     -0.40      0.00
  -15   20    7      0.54      0.00
  -15   20   10     -0.30      0.00
  -15   20   13     -0.73      0.00
    4   16   12     -3.99      0.00
    4   16    9     -3.58      0.00
    4   16    6      0.53      0.00
    4   16    3     -1.67      0.00
  -16   20    0      5.15      0.00
  -16   20    3     -1.81      0.00
  -16   20    6     -1.90      0.00
  -16   20    9      0.93      0.00
  -16   20   12      2.43      0.00
    3   17   13      1.35      0.00
    3   17   10     -0.56      0.00
    3   17    7      0.97      0.00
    3   17    4      1.35      0.00
    3   17    1     -5.92      0.00
  -17   20    2     -3.31      0.00
  -17   20    5     -4.20      0.00
  -17   20    8     -2.52      0.00
  -17   20   11      0.55      0.00
    2   18   11      0.98      0.00
    2   18    8     -0.50      0.00
    2   18    5      0.79      0.00
    2   18    2      0.65      0.00
  -18   20    1      1.20      0.00
  -18   20    4      1.19      0.00
  -18   20    7     -2.72      0.00
  -18   20   10     -1.70      0.00
  -18   20   13      1.20      0.00
    1   19   12      3.34      0.00
    1   19    9     -0.21      0.00
    1   19    6     -3.79      0.00
    1   19    3      4.78      0.00
  -19   20    0      0.31      0.00
  -19   20    3     -3.36      0.00
  -19   20    6     -1.05      0.00
  -19   20    9     -2.64      0.00
  -19   20   12     -1.85      0.00
    0   20   10      1.40      0.00
    0   20    7      5.67      0.00
    0   20    4     -1.29      0.00
    0   20    1      3.49      0.00
  -20   20    2      4.13      0.00
  -20   20    5      2.47      0.00
  -20   20    8      2.05      0.00
  -20   20   11     -0.14      0.00
  -21   20    7     -1.23      0.00
  -21   20    4     -0.79      0.00
  -21   20    1     -3.26      0.00
   -1   21    2     -1.58      0.00
   -1   21    5      4.58      0.00
   -1   21    8     -0.79      0.00
  -21   19    8      1.37      0.00
  -21   19    5      3.97      0.00
  -21   19    2      3.05      0.00
   -2   21    1     -1.42      0.00
   -2   21    4     -1.72      0.00
   -2   21    7      5.97      0.00
   -2   21   10      1.19      0.00
  -21   18    9      0.70      0.00
  -21   18    6      3.03      0.00
  -21   18    3      0.62      0.00
   -3   21    0      4.43      0.00
   -3   21    3      0.75      0.00
   -3   21    6     -5.20      0.00
   -3   21    9      0.84      0.00
  -21   17   10      0.31      0.00
  -21   17    7     -3.73      0.00
  -21   17    4      2.34      0.00
  -21   17    1     -1.15      0.00
   -4   21    2     -0.03      0.00
   -4   21    5      3.58      0.00
   -4   21    8      1.60      0.00
   -4   21   11      4.67      0.00
  -21   16   11     -0.49      0.00
  -21   16    8      2.43      0.00
  -21   16    5     -3.26      0.00
  -21   16    2     -0.32      0.00
   -5   21    1     -0.80      0.00
   -5   21    4     -0.66      0.00
   -5   21    7     -1.80      0.00
   -5   21   10     -3.46      0.00
   -5   21   13     -0.76      0.00
  -21   15   12      0.11      0.00
  -21   15    9     -3.29      0.00
  -21   15    6     -0.30      0.00
  -21   15    3     -2.10      0.00
   -6   21    0      1.82      0.00
   -6   21    3      0.69      0.00
   -6   21    6     -0.28      0.00
   -6   21    9      0.33      0.00
   -6   21   12     -2.71      0.00
  -21   14   13     -2.04      0.00
  -21   14   10      2.59      0.00
  -21   14    7      3.62      0.00
  -21   14    4      1.02      0.00
  -21   14    1     -3.27      0.00
   -7   21    2     -0.63      0.00
   -7   21    5      2.48      0.00
   -7   21    8      0.45      0.00
   -7   21   11      2.72      0.00
   -7   21   14      2.74      0.00
  -21   13   14      1.73      0.00
  -21   13   11     -0.41      0.00
  -21   13    8     -1.50      0.00
  -21   13    5      3.47      0.00
  -21   13    2      3.40      0.00
   -8   21    1      2.05      0.00
   -8   21    4     -0.60      0.00
   -8   21    7     -1.75      0.00
   -8   21   10     -0.06      0.00
   -8   21   13      2.04      0.00
  -21   12   12      0.69      0.00
  -21   12    9     -1.01      0.00
  -21   12    6     -3.47      0.00
  -21   12    3     -0.16      0.00
   -9   21    0     -3.93      0.00
   -9   21    3     -2.72      0.00
   -9   21    6      0.09      0.00
   -9   21    9     -1.47      0.00
   -9   21   12     -3.02      0.00
  -21   11   13     -0.21      0.00
  -21   11   10     -0.97      0.00
  -21   11    7     -0.69      0.00
  -21   11    4     -2.36      0.00
  -21   11    1      6.02      0.00
  -10   21    2      2.99      0.00
  -10   21    5      2.17      0.00
  -10   21    8      1.15      0.00
  -10   21   11     -1.44      0.00
  -10   21   14     -0.11      0.00
   10   11   14     -2.70      0.00
   10   11   11      1.94      0.00
   10   11    8     -0.25      0.00
   10   11    5      1.39      0.00
   10   11    2     -2.30      0.00
  -11   21    1      1.37      0.00
  -11   21    4     -1.94      0.00
  -11   21    7     -1.94      0.00
  -11   21   10      1.70      0.00
  -11   21   13      0.25      0.00
    9   12   12      0.05      0.00
    9   12    9     -2.28      0.00
    9   12    6     -2.97      0.00
    9   12    3     -0.43      0.00
  -12   21    0     -0.62      0.00
  -12   21    3      2.23      0.00
  -12   21    6     -0.64      0.00
  -12   21    9     -1.02      0.00
  -12   21   12     -0.83      0.00
    8   13   13     -2.66      0.00
    8   13   10      1.37      0.00
    8   13    7      3.04      0.00
    8   13    4      0.99      0.00
    8   13    1     -0.81      0.00
  -13   21    2     -3.26      0.00
  -13   21    5      2.03      0.00
  -13   21    8      1.81      0.00
  -13   21   11      0.66      0.00
  -13   21   14      0.53      0.00
    7   14   14      1.49      0.00
    7   14   11      1.93      0.00
    7   14    8     -0.27      0.00
    7   14    5     -3.17      0.00
    7   14    2     -2.53      0.00
  -14   21    1     -0.70      0.00
  -14   21    4     -0.31      0.00
  -14   21    7     -0.44      0.00
  -14   21   10     -2.52      0.00
  -14   21   13     -2.58      0.00
    6   15   12     -0.55      0.00
    6   15    9      1.97      0.00
    6   15    6      5.51      0.00
    6   15    3      2.73      0.00
  -15   21    0     -0.47      0.00
  -15   21    3     -3.07      0.00
  -15   21    6     -1.89      0.00
  -15   21    9      0.63      0.00
  -15   21   12      1.69      0.00
    5   16   13      1.77      0.00
    5   16   10     -0.61      0.00
    5   16    7     -0.69      0.00
    5   16    4      0.24      0.00
    5   16    1     -0.31      0.00
  -16   21    2      1.24      0.00
  -16   21    5      1.83      0.00
  -16   21    8      0.73      0.00
  -16   21   11     -2.04      0.00
    4   17   11      4.30      0.00
    4   17    8      2.90      0.00
    4   17    5     -1.16      0.00
    4   17    2      1.29      0.00
  -17   21    1      2.45      0.00
  -17   21    4      2.44      0.00
  -17   21    7      1.70      0.00
  -17   21   10     -0.57      0.00
    3   18    9     -4.00      0.00
    3   18    6     -0.83      0.00
    3   18    3     -1.20      0.00
  -18   21    0      0.72      0.00
  -18   21    3      3.50      0.00
  -18   21    6      3.88      0.00
  -18   21    9      3.60      0.00
    2   19   10      2.21      0.00
    2   19    7      1.60      0.00
    2   19    4      1.12      0.00
    2   19    1     -0.27      0.00
  -19   21    2     -2.03      0.00
  -19   21    5     -0.38      0.00
  -19   21    8      1.39      0.00
    1   20    8     -0.91      0.00
    1   20    5     -1.33      0.00
    1   20    2     -4.46      0.00
  -20   21    1     -1.55      0.00
  -20   21    4      1.10      0.00
  -20   21    7     -0.25      0.00
    0   21    6     -3.67      0.00
    0   21    3      0.02      0.00
    0   21    0      1.27      0.00
  -21   21    3     -2.77      0.00
  -21   21    6     -0.92      0.00
  -22   21    5     -0.97      0.00
  -22   21    2      0.36      0.00
   -1   22    1     -0.97      0.00
   -1   22    4      1.35      0.00
  -22   20    6      0.21      0.00
  -22   20    3      1.97      0.00
   -2   22    0      5.43      0.00
   -2   22    3     -0.97      0.00
   -2   22    6     -4.81      0.00
  -22   19    7     -3.99      0.00
  -22   19    4     -8.14      0.00
  -22   19    1     -5.29      0.00
   -3   22    2     -0.06      0.00
   -3   22    5      2.16      0.00
   -3   22    8     -1.96      0.00
  -22   18    8      2.05      0.00
  -22   18    5      4.94      0.00
  -22   18    2     -1.15      0.00
   -4   22    1     -0.81      0.00
   -4   22    4      1.05      0.00
   -4   22    7      1.14      0.00
   -4   22   10     -0.84      0.00
  -22   17    9     -1.26      0.00
  -22   17    6     -2.51      0.00
  -22   17    3      1.39      0.00
   -5   22    0     -0.91      0.00
   -5   22    3     -2.01      0.00
   -5   22    6     -2.77      0.00
   -5   22    9     -1.41      0.00
  -22   16   10      0.35      0.00
  -22   16    7      1.99      0.00
  -22   16    4      1.52      0.00
  -22   16    1      4.17      0.00
   -6   22    2     -0.01      0.00
   -6   22    5      3.43      0.00
   -6   22    8      3.06      0.00
   -6   22   11      1.50      0.00
  -22   15   11      2.25      0.00
  -22   15    8     -0.48      0.00
  -22   15    5     -0.65      0.00
  -22   15    2     -2.01      0.00
   -7   22    1      1.06      0.00
   -7   22    4     -3.55      0.00
   -7   22    7     -1.62      0.00
   -7   22   10      0.10      0.00
  -22   14   12     -2.16      0.00
  -22   14    9     -2.45      0.00
  -22   14    6     -1.03      0.00
  -22   14    3     -0.36      0.00
   -8   22    0     -0.03      0.00
   -8   22    3      2.02      0.00
   -8   22    6     -0.71      0.00
   -8   22    9      1.25      0.00
   -8   22   12     -5.37      0.00
  -22   13   10      1.91      0.00
  -22   13    7     -1.11      0.00
  -22   13    4     -2.29      0.00
  -22   13    1     -1.43      0.00
   -9   22    2     -0.33      0.00
   -9   22    5      3.48      0.00
   -9   22    8     -0.58      0.00
   -9   22   11      4.03      0.00
  -22   12   11     -0.19      0.00
  -22   12    8      3.05      0.00
  -22   12    5      3.05      0.00
  -22   12    2      0.44      0.00
  -10   22    1      0.41      0.00
  -10   22    4     -0.23      0.00
  -10   22    7     -0.29      0.00
  -10   22   10     -0.53      0.00
  -10   22   13      0.25      0.00
   11   11   12     -0.25      0.00
   11   11    9     -1.30      0.00
   11   11    6     -0.84      0.00
   11   11    3     -1.15      0.00
  -11   22    0     -3.59      0.00
  -11   22    3     -3.74      0.00
  -11   22    6      2.16      0.00
  -11   22    9      2.16      0.00
  -11   22   12      0.23      0.00
   10   12   13     -0.27      0.00
   10   12   10      0.85      0.00
   10   12    7      4.71      0.00
   10   12    4      2.11      0.00
   10   12    1      2.59      0.00
  -12   22    2      1.27      0.00
  -12   22    5     -2.81      0.00
  -12   22    8     -0.12      0.00
  -12   22   11      1.07      0.00
    9   13   11      0.51      0.00
    9   13    8     -4.11      0.00
    9   13    5     -0.35      0.00
    9   13    2     -0.80      0.00
  -13   22    1      1.05      0.00
  -13   22    4      2.82      0.00
  -13   22    7     -2.42      0.00
  -13   22   10     -2.35      0.00
  -13   22   13     -2.24      0.00
    8   14   12      0.94      0.00
    8   14    9     -0.86      0.00
    8   14    6     -3.45      0.00
    8   14    3      1.32      0.00
  -14   22    0      0.54      0.00
  -14   22    3     -0.86      0.00
  -14   22    6     -0.89      0.00
  -14   22    9     -0.27      0.00
  -14   22   12      3.39      0.00
    7   15   10      0.33      0.00
    7   15    7      3.70      0.00
    7   15    4     -1.03      0.00
    7   15    1      3.30      0.00
  -15   22    2      1.28      0.00
  -15   22    5      1.87      0.00
  -15   22    8      2.73      0.00
  -15   22   11     -1.41      0.00
    6   16   11     -0.25      0.00
    6   16    8     -5.05      0.00
    6   16    5     -2.98      0.00
    6   16    2     -4.78      0.00
  -16   22    1      1.97      0.00
  -16   22    4      0.65      0.00
  -16   22    7     -1.74      0.00
  -16   22   10      0.82      0.00
    5   17    9      0.51      0.00
    5   17    6      1.93      0.00
    5   17    3      2.61      0.00
  -17   22    0     -2.74      0.00
  -17   22    3     -0.08      0.00
  -17   22    6     -1.59      0.00
  -17   22    9     -0.23      0.00
    4   18   10     -0.75      0.00
    4   18    7     -0.91      0.00
    4   18    4      1.64      0.00
    4   18    1     -0.19      0.00
  -18   22    2     -6.86      0.00
  -18   22    5     -3.10      0.00
  -18   22    8     -3.43      0.00
    3   19    8      2.12      0.00
    3   19    5     -2.92      0.00
    3   19    2      0.27      0.00
  -19   22    1      2.93      0.00
  -19   22    4     -2.08      0.00
  -19   22    7     -1.98      0.00
    2   20    6      1.66      0.00
    2   20    3     -0.17      0.00
  -20   22    0      1.75      0.00
  -20   22    3      2.98      0.00
  -20   22    6      1.09      0.00
    1   21    4      4.09      0.00
    1   21    1      1.06      0.00
  -21   22    2     -1.18      0.00
  -21   22    5     -1.54      0.00
    0   22    2     -1.55      0.00
  -22   22    1      0.60      0.00
  -23   21    1     -3.35      0.00
  -23   20    5      4.90      0.00
  -23   20    2      1.11      0.00
   -3   23    1     -0.88      0.00
   -3   23    4      2.21      0.00
  -23   19    6     -1.05      0.00
  -23   19    3      5.01      0.00
   -4   23    0      1.96      0.00
   -4   23    3     -1.47      0.00
   -4   23    6     -1.09      0.00
  -23   18    7     -0.32      0.00
  -23   18    4     -5.01      0.00
  -23   18    1      3.56      0.00
   -5   23    2     -0.74      0.00
   -5   23    5     -0.32      0.00
   -5   23    8     -0.12      0.00
  -23   17    8      0.18      0.00
  -23   17    5      3.65      0.00
  -23   17    2     -7.12      0.00
   -6   23    1      2.11      0.00
   -6   23    4      2.57      0.00
   -6   23    7      1.02      0.00
  -23   16    9      0.38      0.00
  -23   16    6     -2.68      0.00
  -23   16    3      1.72      0.00
   -7   23    0     -4.31      0.00
   -7   23    3     -1.32      0.00
   -7   23    6     -3.97      0.00
   -7   23    9     -3.13      0.00
  -23   15   10     -1.19      0.00
  -23   15    7      1.06      0.00
  -23   15    4      1.81      0.00
  -23   15    1      3.19      0.00
   -8   23    2     -1.80      0.00
   -8   23    5      6.01      0.00
   -8   23    8      1.65      0.00
  -23   14    8      2.06      0.00
  -23   14    5     -1.39      0.00
  -23   14    2     -0.78      0.00
   -9   23    1      1.73      0.00
   -9   23    4     -5.62      0.00
   -9   23    7     -3.39      0.00
   -9   23   10     -3.53      0.00
  -23   13    9     -3.61      0.00
  -23   13    6      2.48      0.00
  -23   13    3      1.82      0.00
  -10   23    0      0.32      0.00
  -10   23    3     -0.10      0.00
  -10   23    6      1.29      0.00
  -10   23    9      3.25      0.00
  -23   12   10      2.88      0.00
  -23   12    7     -1.73      0.00
  -23   12    4     -2.10      0.00
  -23   12    1      0.24      0.00
  -11   23    2      3.16      0.00
  -11   23    5     -2.55      0.00
  -11   23    8     -3.48      0.00
  -11   23   11     -0.05      0.00
   11   12   11     -1.09      0.00
   11   12    8     -3.38      0.00
   11   12    5     -0.23      0.00
   11   12    2      0.68      0.00
  -12   23    1      0.25      0.00
  -12   23    4      5.70      0.00
  -12   23    7     -1.69      0.00
  -12   23   10     -2.50      0.00
   10   13    9      2.06      0.00
   10   13    6     -1.89      0.00
   10   13    3     -1.68      0.00
  -13   23    0     -2.72      0.00
  -13   23    3     -4.02      0.00
  -13   23    6      4.85      0.00
  -13   23    9      3.16      0.00
    9   14   10      0.60      0.00
    9   14    7      5.92      0.00
    9   14    4      0.97      0.00
    9   14    1      2.71      0.00
  -14   23    2     -1.31      0.00
  -14   23    5     -2.61      0.00
  -14   23    8      2.14      0.00
    8   15    8     -2.35      0.00
    8   15    5      3.06      0.00
    8   15    2     -4.37      0.00
  -15   23    1      0.13      0.00
  -15   23    4      0.51      0.00
  -15   23    7     -1.19      0.00
  -15   23   10      1.12      0.00
    7   16    9     -0.84      0.00
    7   16    6     -3.50      0.00
    7   16    3      5.37      0.00
  -16   23    0     -1.21      0.00
  -16   23    3      0.15      0.00
  -16   23    6     -1.57      0.00
  -16   23    9     -2.31      0.00
    6   17    7      5.67      0.00
    6   17    4     -0.97      0.00
    6   17    1      2.32      0.00
  -17   23    2     -4.06      0.00
  -17   23    5      1.51      0.00
  -17   23    8      2.18      0.00
    5   18    8     -3.65      0.00
    5   18    5     -4.02      0.00
    5   18    2     -2.28      0.00
  -18   23    1      6.20      0.00
  -18   23    4      1.00      0.00
  -18   23    7      2.34      0.00
    4   19    6      4.41      0.00
    4   19    3      0.38      0.00
  -19   23    0      0.16      0.00
  -19   23    3      6.54      0.00
  -19   23    6      2.16      0.00
    3   20    4      2.05      0.00
    3   20    1     -2.71      0.00
  -20   23    2     -7.04      0.00
  -20   23    5     -1.05      0.00
  -21   23    1      2.71      0.00
  -24   19    2     -4.87      0.00
   -5   24    1      2.10      0.00
  -24   18    3      5.00      0.00
   -6   24    0     -2.58      0.00
   -6   24    3     -2.35      0.00
  -24   17    4     -1.09      0.00
  -24   17    1      6.20      0.00
   -7   24    2     -0.04      0.00
   -7   24    5      2.48      0.00
  -24   16    5     -0.32      0.00
  -24   16    2     -3.32      0.00
   -8   24    1      3.57      0.00
   -8   24    4     -2.22      0.00
   -8   24    7     -0.30      0.00
  -24   15    6      1.28      0.00
  -24   15    3     -0.60      0.00
   -9   24    0     -2.89      0.00
   -9   24    3      3.03      0.00
   -9   24    6      0.88      0.00
  -24   14    7     -1.63      0.00
  -24   14    4      0.97      0.00
  -24   14    1      0.85      0.00
  -10   24    2     -0.94      0.00
  -10   24    5      2.35      0.00
  -10   24    8     -0.13      0.00
  -24   13    8     -0.09      0.00
  -24   13    5     -2.25      0.00
  -24   13    2     -2.02      0.00
  -11   24    1     -2.01      0.00
  -11   24    4      0.97      0.00
  -11   24    7     -0.76      0.00
   12   12    6      3.64      0.00
   12   12    3      2.95      0.00
  -12   24    0      1.62      0.00
  -12   24    3     -4.17      0.00
  -12   24    6      3.67      0.00
   11   13    7      1.09      0.00
   11   13    4     -1.79      0.00
   11   13    1     -0.15      0.00
  -13   24    2      0.44      0.00
  -13   24    5     -5.97      0.00
  -13   24    8     -1.66      0.00
   10   14    8     -3.76      0.00
   10   14    5      0.09      0.00
   10   14    2     -1.21      0.00
  -14   24    1      4.61      0.00
  -14   24    4      4.73      0.00
  -14   24    7     -3.36      0.00
    9   15    6     -3.28      0.00
    9   15    3      2.20      0.00
  -15   24    0     -2.06      0.00
  -15   24    3      0.76      0.00
  -15   24    6      0.44      0.00
    8   16    7      2.69      0.00
    8   16    4     -5.42      0.00
    8   16    1      0.84      0.00
  -16   24    2     -1.92      0.00
  -16   24    5      1.94      0.00
    7   17    5      3.64      0.00
    7   17    2     -2.54      0.00
  -17   24    1      1.88      0.00
  -17   24    4     -1.19      0.00
    6   18    3      2.17      0.00
  -18   24    0     -0.66      0.00
  -18   24    3      2.80      0.00
    5   19    1     -1.11      0.00
  -19   24    2     -8.09      0.00
  -25   16    1      1.60      0.00
   -9   25    2     -3.54      0.00
  -25   15    2     -0.33      0.00
  -10   25    1      2.01      0.00
  -10   25    4     -0.96      0.00
  -25   14    3      0.68      0.00
  -11   25    0      1.83      0.00
  -11   25    3     -0.83      0.00
  -25   13    4     -0.33      0.00
  -25   13    1     -1.40      0.00
  -12   25    2      1.53      0.00
  -12   25    5     -0.63      0.00
   12   13    5     -2.02      0.00
   12   13    2     -2.16      0.00
  -13   25    1      0.17      0.00
  -13   25    4      3.83      0.00
   11   14    3      5.34      0.00
  -14   25    0     -2.00      0.00
  -14   25    3     -2.95      0.00
   10   15    4     -3.64      0.00
   10   15    1      0.49      0.00
  -15   25    2     -3.54      0.00
    9   16    2      0.98      0.00
  -16   25    1      2.52      0.00
   -1    1    1   -143.82      0.00
    0    2    1     41.42      0.00
    1    1    3     -5.61      0.00
    0    0   15     16.86      0.00
  -16   14   15      0.92      0.00
  -10   14   18     -0.65      0.00
    0    0   24     -1.39      0.00
    1    1   24      2.28      0.00
   -1    1   25      1.70      0.00
   -3    2   25     -0.25      0.00
    0    2   25      0.05      0.00
   -5    3   25     -1.80      0.00
    1    3   25      0.05      0.00
   -1    4   25      3.32      0.00
    0    0    0      0.00      0.00
# SQUEEZE RESULTS (Version =  71116)
# Note: Data are Listed for all Voids in the P1 Unit Cell
# i.e. Centre of Gravity, Solvent Accessible Volume,
# Recovered number of Electrons in the Void and
# Details about the Squeezed Material
loop_
  _platon_squeeze_void_nr
  _platon_squeeze_void_average_x
  _platon_squeeze_void_average_y
  _platon_squeeze_void_average_z
  _platon_squeeze_void_volume
  _platon_squeeze_void_count_electrons
  _platon_squeeze_void_content
   1 -0.059 -0.049  0.421      1870       245 ' '
# Missing Reflections Below sin(th)/lambda = 0.25
loop_
  _platon_missing_refln_index_h
  _platon_missing_refln_index_k
  _platon_missing_refln_index_l
  _platon_missing_refln_theta
   -1    1    1     1.590
    0    2    1     2.636
    1    1    3     3.734
_platon_squeeze_void_probe_radius                  1.20
_platon_squeeze_details
)
TITL a in R-3
CELL   19.3770   19.3770   19.8100     90.00     90.00    120.00
SPGR R-3
# Solvent Accessible Volume =      1870
# Electrons Found in S.A.V. =       243
# Note: Atoms in Void as Cxxx and Qxxx all others
C101 1.000 0.998 0.734 !       3.74 eA-3
Q102 0.172 0.091 0.467 !       3.54 eA-3
C103 0.859 0.967 0.326 !       1.76 eA-3
C104 0.439 0.820 0.982 !       1.57 eA-3
Q105 0.045 0.216 0.423 !       1.23 eA-3
Q106 0.892 0.595 0.247 !       1.08 eA-3
C107 0.612 0.809 0.308 !       1.04 eA-3
C108 0.500 0.500 0.000 !       0.94 eA-3
C109 0.126 0.236 0.348 !       0.90 eA-3
Q110 0.452 0.498 0.154 !       0.84 eA-3
Q111 0.456 0.513 0.200 !       0.76 eA-3
Q112 0.411 0.483 0.170 !       0.74 eA-3
Q113 0.827 0.122 0.419 !       0.73 eA-3
Q114 0.908 0.485 0.075 !       0.69 eA-3
Q115 0.224 0.188 0.434 !       0.67 eA-3
Q116 0.434 0.146 0.895 !       0.67 eA-3
C117 0.125 0.151 0.619 !       0.66 eA-3
C118 0.875 0.849 0.381 !       0.66 eA-3
C119 0.610 0.248 0.049 !       0.65 eA-3
Q120 0.906 0.749 0.247 !       0.65 eA-3
C121 0.331 0.809 0.078 !       0.62 eA-3
Q122 0.231 0.793 0.281 !       0.61 eA-3
Q123 0.278 0.885 0.155 !       0.61 eA-3
Q124 0.223 0.096 0.610 !       0.60 eA-3
Q125 0.281 0.879 0.128 !       0.59 eA-3
Q126 0.876 0.593 0.873 !       0.59 eA-3
Q127 0.983 0.718 0.191 !       0.59 eA-3
C128 0.390 0.752 0.141 !       0.59 eA-3
Q129 0.606 0.497 0.985 !       0.59 eA-3
Q130 0.985 0.191 0.388 !       0.58 eA-3
Q131 0.704 0.141 0.111 !       0.58 eA-3
Q132 0.618 0.551 0.794 !       0.58 eA-3
Q133 0.249 0.012 0.611 !       0.57 eA-3
Q134 0.404 0.448 0.222 !       0.56 eA-3
Q135 0.718 0.766 0.030 !       0.56 eA-3
Q136 0.563 0.812 0.083 !       0.53 eA-3
Q137 0.824 0.795 0.440 !       0.53 eA-3
Q138 0.126 0.200 0.422 !       0.53 eA-3
Q139 0.454 0.908 0.170 !       0.53 eA-3
Q140 0.606 0.594 0.578 !       0.53 eA-3
Q141 1.000 1.002 0.797 !       0.53 eA-3
Q142 0.922 0.854 0.394 !       0.53 eA-3
Q143 0.702 0.202 0.438 !       0.51 eA-3
Q144 0.012 0.029 0.017 !       0.51 eA-3
C145 0.327 0.637 0.181 !       0.51 eA-3
)
;
_shelx_shelxl_version_number     2014/7
_olex2_submission_special_instructions 'No special instructions were received'
loop_
_space_group_symop_operation_xyz
'x, y, z'
'-y, x-y, z'
'-x+y, -x, z'
'x+2/3, y+1/3, z+1/3'
'-y+2/3, x-y+1/3, z+1/3'
'-x+y+2/3, -x+1/3, z+1/3'
'x+1/3, y+2/3, z+2/3'
'-y+1/3, x-y+2/3, z+2/3'
'-x+y+1/3, -x+2/3, z+2/3'
'-x, -y, -z'
'y, -x+y, -z'
'x-y, x, -z'
'-x+2/3, -y+1/3, -z+1/3'
'y+2/3, -x+y+1/3, -z+1/3'
'x-y+2/3, x+1/3, -z+1/3'
'-x+1/3, -y+2/3, -z+2/3'
'y+1/3, -x+y+2/3, -z+2/3'
'x-y+1/3, x+2/3, -z+2/3'
loop_
_atom_site_label
_atom_site_type_symbol
_atom_site_fract_x
_atom_site_fract_y
_atom_site_fract_z
_atom_site_U_iso_or_equiv
_atom_site_adp_type
_atom_site_occupancy
_atom_site_site_symmetry_order
_atom_site_calc_flag
_atom_site_refinement_flags_posn
_atom_site_refinement_flags_adp
_atom_site_refinement_flags_occupancy
Cd1 Cd 0.31704(2) 0.77862(2) 0.58215(2) 0.02498(11) Uani 1 1 d . . .
O1 O 0.54586(19) 0.80854(19) 0.51133(17) 0.0486(8) Uani 1 1 d . . .
O2 O 0.41979(17) 0.76686(16) 0.53327(15) 0.0335(6) Uani 1 1 d . . .
O3 O 0.58311(16) 1.14375(15) 0.33767(13) 0.0312(6) Uani 1 1 d . . .
O4 O 0.47008(17) 1.06300(17) 0.28659(15) 0.0374(7) Uani 1 1 d . . .
N1 N 0.3611(2) 0.8704(2) 0.49305(17) 0.0357(8) Uani 1 1 d . . .
N2 N 0.3765(2) 0.9771(2) 0.41589(18) 0.0394(8) Uani 1 1 d . . .
S1 S 0.31385(7) 0.91515(8) 0.46851(7) 0.0517(3) Uani 1 1 d . . .
S2 S 0.3333 0.6667 0.6667 0.0200(4) Uani 1 6 d S T P
C1 C 0.4860(2) 0.8160(2) 0.5049(2) 0.0290(8) Uani 1 1 d . . .
C2 C 0.4910(2) 0.8815(2) 0.46246(19) 0.0285(8) Uani 1 1 d . . .
C3 C 0.5573(2) 0.9248(2) 0.4231(2) 0.0395(10) Uani 1 1 d . . .
H3 H 0.5977 0.9123 0.4245 0.047 Uiso 1 1 calc R . .
C4 C 0.5670(2) 0.9881(2) 0.3801(2) 0.0390(10) Uani 1 1 d . . .
H4 H 0.6133 1.0155 0.3546 0.047 Uiso 1 1 calc R . .
C5 C 0.5100(2) 1.0092(2) 0.3756(2) 0.0291(8) Uani 1 1 d . . .
C6 C 0.4395(2) 0.9653(2) 0.41446(19) 0.0287(8) Uani 1 1 d . . .
C7 C 0.4303(2) 0.9028(2) 0.45853(18) 0.0271(8) Uani 1 1 d . . .
C8 C 0.5211(2) 1.0759(2) 0.33045(19) 0.0274(8) Uani 1 1 d . . .
O5 O 0.7170(4) 0.9121(5) 0.5192(5) 0.082(3) Uani 0.5 1 d . . .
O6 O 0.7916(8) 1.0269(7) 0.4133(5) 0.127(5) Uani 0.5 1 d . . .
H6A H 0.7635 0.9962 0.4451 0.153 Uiso 0.5 1 d R . .
H6B H 0.7776 1.0609 0.4038 0.153 Uiso 0.5 1 d R . .
loop_
_atom_site_aniso_label
_atom_site_aniso_U_11
_atom_site_aniso_U_22
_atom_site_aniso_U_33
_atom_site_aniso_U_23
_atom_site_aniso_U_13
_atom_site_aniso_U_12
Cd1 0.02336(15) 0.02390(16) 0.02552(18) 0.00006(10) 0.00225(10) 0.01020(11)
O1 0.0429(18) 0.0483(19) 0.065(2) 0.0247(17) 0.0113(16) 0.0303(16)
O2 0.0347(15) 0.0284(14) 0.0389(16) 0.0103(12) 0.0084(13) 0.0170(12)
O3 0.0343(15) 0.0228(13) 0.0323(15) 0.0028(11) -0.0019(12) 0.0110(11)
O4 0.0334(15) 0.0360(16) 0.0378(16) 0.0078(13) -0.0049(13) 0.0137(13)
N1 0.0320(18) 0.043(2) 0.0362(19) 0.0151(16) 0.0107(15) 0.0223(16)
N2 0.0373(19) 0.047(2) 0.040(2) 0.0135(17) 0.0060(16) 0.0256(17)
S1 0.0430(6) 0.0693(8) 0.0586(8) 0.0308(7) 0.0203(6) 0.0400(6)
S2 0.0192(6) 0.0192(6) 0.0215(10) 0.000 0.000 0.0096(3)
C1 0.034(2) 0.0260(18) 0.030(2) 0.0017(15) 0.0024(16) 0.0173(16)
C2 0.0265(18) 0.0287(19) 0.0294(19) 0.0040(15) 0.0033(15) 0.0131(16)
C3 0.033(2) 0.035(2) 0.054(3) 0.014(2) 0.008(2) 0.0202(18)
C4 0.028(2) 0.033(2) 0.053(3) 0.0169(19) 0.0114(19) 0.0132(17)
C5 0.0268(18) 0.0210(17) 0.032(2) 0.0056(15) -0.0025(16) 0.0068(15)
C6 0.0287(19) 0.0286(19) 0.0286(19) 0.0015(15) -0.0007(15) 0.0140(16)
C7 0.0271(18) 0.0272(18) 0.0260(19) 0.0025(15) 0.0011(15) 0.0129(15)
C8 0.0271(18) 0.0244(18) 0.032(2) 0.0041(15) 0.0016(15) 0.0139(15)
O5 0.030(4) 0.093(6) 0.106(7) 0.040(5) 0.008(4) 0.018(4)
O6 0.206(13) 0.177(11) 0.098(7) 0.090(8) 0.091(8) 0.171(11)
loop_
_atom_type_symbol
_atom_type_description
_atom_type_scat_dispersion_real
_atom_type_scat_dispersion_imag
_atom_type_scat_source
C C 0.0033 0.0016 'International Tables Vol C Tables 4.2.6.8 and 6.1.1.4'
H H 0.0000 0.0000 'International Tables Vol C Tables 4.2.6.8 and 6.1.1.4'
N N 0.0061 0.0033 'International Tables Vol C Tables 4.2.6.8 and 6.1.1.4'
O O 0.0106 0.0060 'International Tables Vol C Tables 4.2.6.8 and 6.1.1.4'
S S 0.1246 0.1234 'International Tables Vol C Tables 4.2.6.8 and 6.1.1.4'
Cd Cd -0.8075 1.2024 'International Tables Vol C Tables 4.2.6.8 and 6.1.1.4'
loop_
_geom_angle_atom_site_label_1
_geom_angle_atom_site_label_2
_geom_angle_atom_site_label_3
_geom_angle
_geom_angle_site_symmetry_1
_geom_angle_site_symmetry_3
O1 Cd1 S2 121.81(7) 2_665 .
O2 Cd1 O1 52.86(9) 2_665 2_665
O2 Cd1 O1 117.82(11) . 2_665
O2 Cd1 O2 84.82(14) . 2_665
O2 Cd1 O3 148.61(9) 2_665 10_676
O2 Cd1 O3 82.76(10) . 10_676
O2 Cd1 O3 149.63(9) . 6_465
O2 Cd1 O4 150.26(9) . 6_465
O2 Cd1 O4 119.67(10) 2_665 6_465
O2 Cd1 N1 75.87(10) . .
O2 Cd1 S2 74.88(7) 2_665 .
O2 Cd1 S2 75.32(7) . .
O3 Cd1 O1 81.99(11) 6_465 2_665
O3 Cd1 O1 155.54(10) 10_676 2_665
O3 Cd1 O2 91.07(10) 6_465 2_665
O3 Cd1 O3 85.40(3) 6_465 10_676
O3 Cd1 O4 82.74(10) 10_676 6_465
O3 Cd1 O4 53.80(9) 6_465 6_465
O3 Cd1 N1 133.74(10) 6_465 .
O3 Cd1 S2 74.56(6) 6_465 .
O3 Cd1 S2 74.11(6) 10_676 .
O4 Cd1 O1 72.89(10) 6_465 2_665
O4 Cd1 S2 124.73(7) 6_465 .
N1 Cd1 O1 75.73(11) . 2_665
N1 Cd1 O2 106.03(11) . 2_665
N1 Cd1 O3 98.70(11) . 10_676
N1 Cd1 O4 80.85(11) . 6_465
N1 Cd1 S2 150.97(8) . .
C1 O1 Cd1 88.7(2) . 3_565
Cd1 O2 Cd1 120.19(11) . 3_565
C1 O2 Cd1 134.2(2) . .
C1 O2 Cd1 97.5(2) . 3_565
Cd1 O3 Cd1 120.45(11) 8_664 10_676
C8 O3 Cd1 95.8(2) . 8_664
C8 O3 Cd1 141.4(2) . 10_676
C8 O4 Cd1 88.3(2) . 8_664
S1 N1 Cd1 122.98(18) . .
C7 N1 Cd1 129.5(3) . .
C7 N1 S1 107.2(3) . .
C6 N2 S1 107.4(3) . .
N2 S1 N1 100.26(18) . .
Cd1 S2 Cd1 90.401(12) . 15_556
Cd1 S2 Cd1 89.598(12) . 3_565
Cd1 S2 Cd1 89.597(12) . 2_665
Cd1 S2 Cd1 90.403(12) 13_566 2_665
Cd1 S2 Cd1 89.597(12) 14_456 13_566
Cd1 S2 Cd1 90.404(12) 13_566 3_565
Cd1 S2 Cd1 180.0 . 13_566
Cd1 S2 Cd1 90.402(12) . 14_456
Cd1 S2 Cd1 90.404(12) 14_456 3_565
Cd1 S2 Cd1 180.0 15_556 3_565
Cd1 S2 Cd1 89.597(12) 2_665 3_565
Cd1 S2 Cd1 89.595(12) 15_556 14_456
Cd1 S2 Cd1 180.0 14_456 2_665
Cd1 S2 Cd1 90.403(12) 15_556 2_665
Cd1 S2 Cd1 89.596(12) 15_556 13_566
O1 C1 O2 120.9(4) . .
O1 C1 C2 119.3(4) . .
O2 C1 C2 119.8(3) . .
C3 C2 C1 119.2(4) . .
C3 C2 C7 116.4(3) . .
C7 C2 C1 124.4(3) . .
C2 C3 H3 118.4 . .
C2 C3 C4 123.2(4) . .
C4 C3 H3 118.4 . .
C3 C4 H4 119.4 . .
C5 C4 C3 121.3(4) . .
C5 C4 H4 119.4 . .
C4 C5 C6 117.9(3) . .
C4 C5 C8 120.7(3) . .
C6 C5 C8 121.4(3) . .
N2 C6 C5 126.2(4) . .
N2 C6 C7 112.9(3) . .
C5 C6 C7 120.9(3) . .
N1 C7 C2 127.4(3) . .
N1 C7 C6 112.3(3) . .
C6 C7 C2 120.3(3) . .
O3 C8 C5 118.7(3) . .
O4 C8 O3 122.2(3) . .
O4 C8 C5 119.2(3) . .
H6A O6 H6B 111.3 . .
loop_
_geom_bond_atom_site_label_1
_geom_bond_atom_site_label_2
_geom_bond_distance
_geom_bond_site_symmetry_2
Cd1 O1 2.566(3) 2_665
Cd1 O2 2.325(3) .
Cd1 O2 2.356(3) 2_665
Cd1 O3 2.370(3) 10_676
Cd1 O3 2.338(3) 6_465
Cd1 O4 2.513(3) 6_465
Cd1 N1 2.343(3) .
Cd1 S2 2.8799(4) .
O1 Cd1 2.566(3) 3_565
O1 C1 1.245(5) .
O2 Cd1 2.357(3) 3_565
O2 C1 1.282(5) .
O3 Cd1 2.370(3) 10_676
O3 Cd1 2.338(3) 8_664
O3 C8 1.270(4) .
O4 Cd1 2.513(3) 8_664
O4 C8 1.244(5) .
N1 S1 1.618(3) .
N1 C7 1.348(5) .
N2 S1 1.595(4) .
N2 C6 1.350(5) .
S2 Cd1 2.8799(4) 14_456
S2 Cd1 2.8799(4) 2_665
S2 Cd1 2.8799(4) 13_566
S2 Cd1 2.8799(4) 3_565
S2 Cd1 2.8800(4) 15_556
C1 C2 1.485(5) .
C2 C3 1.372(5) .
C2 C7 1.432(5) .
C3 H3 0.9300 .
C3 C4 1.425(6) .
C4 H4 0.9300 .
C4 C5 1.360(5) .
C5 C6 1.421(5) .
C5 C8 1.497(5) .
C6 C7 1.430(5) .
O6 H6A 0.8501 .
O6 H6B 0.8501 .
loop_
_geom_hbond_atom_site_label_D
_geom_hbond_atom_site_label_H
_geom_hbond_atom_site_label_A
_geom_hbond_distance_DH
_geom_hbond_distance_HA
_geom_hbond_distance_DA
_geom_hbond_angle_DHA
O6 H6A O5 0.85 2.04 2.869(12) 164.8
loop_
_geom_torsion_atom_site_label_1
_geom_torsion_atom_site_label_2
_geom_torsion_atom_site_label_3
_geom_torsion_atom_site_label_4
_geom_torsion
_geom_torsion_site_symmetry_1
Cd1 O1 C1 O2 1.5(4) 3_565
Cd1 O1 C1 C2 -176.9(3) 3_565
Cd1 O2 C1 O1 145.0(3) .
Cd1 O2 C1 O1 -1.7(4) 3_565
Cd1 O2 C1 C2 -36.6(6) .
Cd1 O2 C1 C2 176.8(3) 3_565
Cd1 O3 C8 O4 159.4(3) 10_676
Cd1 O3 C8 O4 -1.3(4) 8_664
Cd1 O3 C8 C5 177.8(3) 8_664
Cd1 O3 C8 C5 -21.6(6) 10_676
Cd1 O4 C8 O3 1.2(4) 8_664
Cd1 O4 C8 C5 -177.9(3) 8_664
Cd1 N1 S1 N2 172.2(2) .
Cd1 N1 C7 C2 8.3(6) .
Cd1 N1 C7 C6 -171.3(3) .
O1 C1 C2 C3 9.8(6) .
O1 C1 C2 C7 -171.1(4) .
O2 C1 C2 C3 -168.6(4) .
O2 C1 C2 C7 10.4(6) .
N2 C6 C7 N1 -1.3(5) .
N2 C6 C7 C2 179.0(4) .
S1 N1 C7 C2 -178.9(3) .
S1 N1 C7 C6 1.5(4) .
S1 N2 C6 C5 -178.2(3) .
S1 N2 C6 C7 0.5(4) .
C1 C2 C3 C4 179.2(4) .
C1 C2 C7 N1 2.4(6) .
C1 C2 C7 C6 -178.0(4) .
C2 C3 C4 C5 -0.2(7) .
C3 C2 C7 N1 -178.6(4) .
C3 C2 C7 C6 1.0(6) .
C3 C4 C5 C6 -1.0(6) .
C3 C4 C5 C8 179.8(4) .
C4 C5 C6 N2 -179.2(4) .
C4 C5 C6 C7 2.1(6) .
C4 C5 C8 O3 -55.1(6) .
C4 C5 C8 O4 124.0(4) .
C5 C6 C7 N1 177.4(4) .
C5 C6 C7 C2 -2.2(6) .
C6 N2 S1 N1 0.3(3) .
C6 C5 C8 O3 125.7(4) .
C6 C5 C8 O4 -55.2(5) .
C7 N1 S1 N2 -1.1(3) .
C7 C2 C3 C4 0.1(6) .
C8 C5 C6 N2 -0.1(6) .
C8 C5 C6 C7 -178.7(3) .
loop_
_refln_index_h
_refln_index_k
_refln_index_l
_refln_F_squared_meas
_refln_F_squared_sigma
0 0 -3 758.34 7.94
0 0 3 780.5 7.74
0 0 -3 783.13 7.53
0 0 3 794.2 7.94
0 0 -6 1032.68 11.65
0 0 6 1005.34 11.02
0 0 -6 1035.63 11.48
0 0 6 1038.17 11.06
0 0 -9 2.27 2.04
0 0 9 0.12 1.52
0 0 -9 1.7 1.71
0 0 9 1.85 1.8
0 0 -12 2066.56 31
0 0 -12 2177.84 34.53
0 0 18 952.81 31.68
0 0 21 94.16 9.08
0 1 23 283.71 26.91
-1 0 20 4.1 2.23
1 -1 20 5.23 2.43
0 1 20 0.43 3.21
0 -1 -17 441.79 20.01
-1 0 17 447.05 24.93
1 -1 17 446.91 16.11
-1 1 -17 422.92 17.82
-1 1 -14 384.28 9.98
0 -1 -14 359.71 14.19
-1 0 14 360.15 12.27
-1 1 -14 362.06 13.66
-1 1 -11 1423.19 22.33
0 -1 -11 1420.6 23.15
1 -1 11 1402.1 21.96
-1 0 11 1432.83 22.04
-1 1 -11 1442.58 23.21
-1 0 11 1485.6 22.03
-1 1 -8 215.24 5.11
0 -1 -8 185.35 8.53
-1 0 8 198.48 7.5
0 1 8 213.32 5.54
1 -1 8 211.51 5.28
-1 0 8 190.39 7.27
0 -1 -8 205.31 7.59
1 0 -8 197.67 5.03
-1 1 -8 200.85 4.85
0 1 8 198.32 7
-1 0 8 194.42 5.31
1 -1 8 215.8 5.35
-1 0 5 655.48 7.81
-1 1 -5 651.59 8.3
0 -1 -5 640 8.64
0 1 5 650.83 10.32
1 -1 5 668.5 7.73
-1 0 5 650.56 7.91
0 -1 -5 648.82 8.74
1 0 -5 659.56 7.35
0 1 5 655.28 8.02
-1 0 5 654.93 8.01
-1 1 -5 658.15 8.36
1 -1 5 650.36 8.11
0 -1 -2 742.81 7.78
0 1 2 749.49 7.96
1 -1 2 737.05 6.35
-1 0 2 754.24 7.16
1 0 -2 752.16 7.13
-1 0 2 760.65 6.49
-1 1 -2 743.55 7.05
1 -1 2 741.32 7.24
0 -1 1 0.27 0.31
1 0 1 -0.61 0.46
0 -1 4 461.95 5.38
1 -1 -4 448.53 6.7
-1 1 4 458.74 6.1
-1 0 -4 443.08 5.95
1 0 4 434.64 7.58
0 -1 4 449.86 5.16
-1 1 4 452.32 5.29
-1 0 -4 443.97 6
1 0 4 450.95 6.03
0 1 -4 455.73 5.56
0 -1 4 452.47 5.4
1 -1 -7 611.96 8.48
0 -1 7 633.58 7.95
-1 0 -7 613.88 8.15
-1 1 7 618.77 8.25
1 0 7 620.16 9.32
-1 0 -7 634.38 9.26
-1 1 7 615.19 8.58
0 1 -7 624.96 7.87
1 0 7 627.33 8.27
0 -1 7 625.31 9.77
1 -1 -10 604.85 11.26
-1 0 -10 629.41 11.49
0 -1 10 615.31 12.59
-1 1 10 624.82 12.1
1 0 10 636.1 12.21
0 -1 10 585.41 12.32
-1 0 -10 619.89 11.57
0 1 -10 637.84 11.56
-1 1 10 620.09 11.9
0 -1 10 624.77 10.71
1 -1 -13 1054.74 22.41
-1 0 -13 1058.91 25.61
0 -1 13 997.23 23.82
-1 0 -13 1036.48 22.92
0 1 -13 1046.26 21.54
-1 0 -16 128.69 6.4
0 -1 16 146.14 14.44
-1 1 16 162.47 7.86
0 -1 19 126.47 14.36
-1 1 19 127.51 11.61
1 0 19 123.93 13.65
0 -1 22 112.29 11.8
-1 1 22 93.45 11.54
1 0 22 127.49 13.34
1 -2 21 0.93 1.33
-2 1 21 3.62 1.99
1 1 21 6.28 3.92
-1 -1 -18 146.83 9.35
1 -2 18 145.57 15.07
-2 1 18 161.58 15.15
-1 2 -18 148.69 6.58
-1 -1 -15 0.87 2.27
1 -2 15 1.47 2.34
-2 1 15 3.19 3.91
-1 2 -15 3.95 1.5
-1 -1 -12 971.81 19.26
1 -2 12 1012.91 17.75
-2 1 12 1007.65 19.68
1 -2 12 988.95 15.72
-1 -1 -12 1019.54 20.17
-1 2 -12 988.71 19.57
-2 1 12 1034.66 16.23
-2 1 9 19.57 4.14
-1 -1 -9 24.85 5.06
1 -2 9 22.45 4.21
1 1 9 21.6 5.06
-2 1 9 26.03 4.32
-1 -1 -9 31.85 7.84
-2 1 9 18.31 3.67
-1 2 -9 28.97 7.44
1 1 9 16.55 5.16
1 -2 9 26.27 3.51
-2 1 6 27.78 3.28
1 -2 6 34.35 2.08
-1 -1 -6 33.99 8.35
1 1 6 28.49 6.17
-2 1 6 36.39 3.25
-1 -1 -6 29.22 4.11
-2 1 6 29.6 3.93
1 1 6 28.22 3.03
-1 2 -6 26.4 2.31
1 -2 6 26.77 2.88
1 -2 3 35.38 1.11
-1 -1 -3 34.41 2.98
1 1 3 35.48 2.12
1 -2 3 35.4 0.96
-2 1 3 37 3.26
2 -1 -3 35.95 2.2
-1 -1 -3 33.63 2.28
1 1 3 30.93 1.67
-1 2 -3 36.52 1.58
1 -2 3 37.97 2.41
1 -2 0 510.08 5.06
-1 -1 0 527 5.35
-2 1 0 524.53 5.24
1 -2 -3 13.45 3.42
-1 2 3 15.93 3.1
-2 1 -3 15.54 2.3
2 -1 3 15.62 1.87
-1 -1 3 16.21 1.61
1 1 -3 17.65 1.17
-2 1 -3 18.37 2.74
2 -1 3 14.62 1.27
-1 -1 3 16.76 1.81
-1 -1 6 1464.89 15.68
1 -2 -6 1437.56 16.24
-1 2 6 1464.36 15.66
-2 1 -6 1417.52 14.09
2 -1 6 1447.57 14.69
-1 -1 6 1480.12 14.71
-1 2 6 1459.81 15.05
1 1 -6 1445.63 14.04
-2 1 -6 1459.3 16.54
2 -1 6 1486.44 15.24
-1 -1 6 1484.47 13.91
1 -2 -9 458.93 10.83
-1 -1 9 457.08 8.15
-2 1 -9 434.52 10.04
-1 2 9 451.39 9.43
2 -1 9 450.64 8.96
-1 -1 9 463.04 11.14
1 1 -9 458.43 8.45
-1 2 9 458.31 8.74
-2 1 -9 445.19 9.99
2 -1 9 458.14 8.68
-1 -1 9 460.28 8.45
1 -2 -12 260.88 7.41
-2 1 -12 276.35 10.94
2 -1 12 261.09 11.07
-1 -1 12 280.5 9.86
1 1 -12 270.03 8.31
-2 1 -12 270.78 9.17
-1 -1 12 275.96 9.25
1 -2 -15 18.87 4.36
-2 1 -15 8.74 3.45
-1 -1 15 6.57 3.5
-2 1 -15 2.12 2.06
-1 -1 18 59.04 6.63
-1 2 18 58.89 6.79
-2 1 -18 57.31 5.04
-1 -1 21 5.54 3.74
2 -1 21 2.95 2.12
-1 2 21 4.94 3.4
-1 2 24 25.33 9.09
-2 0 22 33.73 13.77
0 2 22 30.8 8.73
0 -2 -19 53.64 11.35
-2 0 19 62.74 14.32
2 -2 19 59.92 7.2
-2 2 -19 58.12 10.72
0 -2 -16 18.7 5.41
-2 0 16 31.84 8.33
2 -2 16 21.41 3.12
-2 2 -16 21.86 5.95
-2 2 -13 286.03 9.38
0 -2 -13 298.89 11.23
2 -2 13 293.73 8.54
-2 0 13 296.14 11.15
-2 2 -13 321.48 11.59
-2 0 13 311.27 8.63
-2 2 -10 70.92 5.54
-2 0 10 80.37 4.25
0 -2 -10 71.66 9.82
2 -2 10 69.86 3.93
-2 0 10 72.36 4.74
-2 2 -10 81.81 5.98
-2 0 10 71.04 4.4
2 -2 10 69.45 6.17
-2 0 7 6.89 1.48
-2 2 -7 1.58 0.93
0 -2 -7 6.44 2.26
0 2 7 5.24 1.68
2 -2 7 6.09 1.12
-2 0 7 2.91 1.83
0 2 7 4.88 1.67
-2 0 7 4.47 1.54
-2 2 -7 4.11 1.9
2 -2 7 3.13 2.04
0 -2 -4 645.28 9.06
0 2 4 656.15 8.74
-2 0 4 680.96 9.03
2 0 -4 685.76 9.14
0 2 4 658.53 7.73
-2 0 4 678.54 6.45
-2 2 -4 665.38 9.33
2 -2 4 678.88 8.37
0 -2 -1 30.04 2.57
0 2 1 37.78 3.83
-2 0 1 33.32 1.57
2 0 -1 29.87 1.31
2 -2 1 30.87 1.46
-2 0 1 29.88 1.51
2 0 -1 28.99 0.75
-2 2 -1 27.42 1.46
2 -2 1 26.77 1.65
2 -2 -2 331.91 4.9
-2 0 -2 327.43 4.82
2 0 2 335.82 4.71
0 -2 2 341.55 3.66
-2 0 -2 324.38 4.22
2 0 2 320.57 4.29
0 2 -2 334.43 3.8
2 -2 -5 195.32 7.76
-2 2 5 189.54 5
-2 0 -5 181.21 4.06
2 0 5 190.43 7.53
0 -2 5 184.53 3.26
-2 0 -5 182.87 5.65
2 0 5 181.09 5.14
0 2 -5 184.25 3.45
0 -2 5 188.72 3.88
2 -2 -8 1.28 1.26
0 -2 8 1.06 1.75
-2 2 8 -0.22 1.81
-2 0 -8 2.15 2.36
2 0 8 1.9 1.3
0 -2 8 1.43 1.73
-2 2 8 5.9 2.02
-2 0 -8 3.03 2.14
0 2 -8 2.97 2.43
2 0 8 2.05 2.35
0 -2 8 2 1.66
2 -2 -11 426.03 9.67
-2 0 -11 420.52 11.94
0 -2 11 433.98 8.97
2 0 11 408.82 9.23
0 -2 11 435.98 11.41
-2 0 -11 418.26 9.62
0 2 -11 434.66 8.65
-2 2 11 430.87 8.55
0 -2 11 448.95 8.53
-2 0 -14 45.34 4.96
0 -2 14 47.61 8.28
-2 0 -14 56.32 8.45
0 2 -14 46.25 6.98
-2 0 -17 49.2 8.58
0 -2 17 56.19 5.02
-2 2 17 53.02 11.95
0 2 -17 57.35 9.08
0 -2 20 26.33 6.47
-2 2 20 24.74 4.45
-2 2 23 13.9 4.95
-3 2 22 2.2 2.79
-2 -1 -19 97.21 5.16
1 -3 19 85.57 11.35
-3 2 19 89.12 13.43
-1 3 -19 82.53 8.83
-2 -1 -16 51.12 10.69
1 -3 16 47.78 4.39
-1 3 -16 30.61 6.61
-2 -1 -13 65.49 7.28
1 -3 13 56.06 7.12
1 -3 13 69.32 8.24
-3 2 13 68.03 6.95
-2 -1 -13 67.42 4.74
-1 3 -13 58.71 4.08
-2 -1 -10 54.17 9.47
1 -3 10 47.34 5.56
2 1 10 44.39 4.58
1 -3 10 51.56 4.29
-3 2 10 52.28 4.64
-2 -1 -10 55.67 4.5
-3 2 10 41.86 5.04
-1 3 -10 57.22 6.9
1 -3 10 45.32 5.35
-3 2 7 0.96 1.44
1 -3 7 5.13 1.02
-2 -1 -7 4.26 2.95
2 1 7 3.49 1.9
1 -3 7 3.71 0.88
-3 2 7 1.59 2.61
-2 -1 -7 3.08 2.25
2 1 7 3.24 1.6
-1 3 -7 0.38 1.33
1 -3 7 1.38 1.79
-3 2 4 14.49 4.33
-2 -1 -4 11.26 5.03
2 1 4 19.66 4.39
1 -3 4 17.9 2.18
-1 3 -4 18.55 1.84
-3 2 4 19.49 3.95
-2 -1 -4 21.8 4.1
2 1 4 13.15 4.91
-1 3 -4 24.66 3.47
1 -3 4 22.41 5.04
1 -3 1 522.64 5.35
-1 3 -1 507.07 5.4
-2 -1 -1 517.43 6.91
2 1 1 530.46 6.22
-3 2 1 519.5 6.48
3 -2 -1 526.25 7.26
2 1 1 506.22 6.57
-3 2 1 511.97 6.06
-1 3 2 35.38 3.61
-3 2 -2 39.01 3.16
-2 -1 2 37.84 3.01
3 -2 2 34.79 2.23
2 1 -2 33.2 2.55
2 1 -2 32.35 0.82
-3 2 -2 37.56 2.91
3 -2 2 34.75 2.29
1 -3 -5 2627.77 25.04
-1 3 5 2730.72 27.97
-3 2 -5 2747.61 23.73
3 -2 5 2737.06 23.53
-2 -1 5 2666.92 24.72
3 -2 5 2611.98 24.16
-2 -1 5 2653.8 22.11
-2 -1 8 379.36 9.69
1 -3 -8 358.07 8.26
-3 2 -8 373.97 6.7
-1 3 8 363 7.93
3 -2 8 371.6 6.55
-2 -1 8 375.99 8.17
2 1 -8 374.85 6.21
-1 3 8 369.3 9
-3 2 -8 374.14 7.48
-2 -1 8 388.41 6.14
3 -2 8 386.59 8.35
1 -3 -11 10.4 4.12
-2 -1 11 1.97 2.64
-3 2 -11 5.14 2.74
3 -2 11 1.79 0.95
-2 -1 11 7.09 2.24
-3 2 -11 4.19 3.72
-2 -1 11 4.24 1.66
1 -3 -14 30.62 7.45
-3 2 -14 18.26 5.52
-2 -1 14 26.71 9.02
-3 2 -14 26.76 6.78
-2 -1 14 15.18 5.11
-3 2 -17 32.69 6.58
1 -3 -17 35.13 9.81
-2 -1 17 35.5 7.08
-3 2 -17 34.11 6.05
-2 -1 20 2.2 1.53
3 -2 20 5.15 3.38
-1 3 20 3.06 3.25
-3 2 -20 4.2 2.52
-1 3 23 6.36 3.97
-3 1 23 4.73 3.03
1 2 23 5.5 1.9
-1 -2 -20 118.34 9.66
-3 1 20 118.92 12.73
2 -3 20 114.59 12.88
-2 3 -20 126.83 10.94
-1 -2 -17 31.12 5.91
-3 1 17 11.76 3.48
2 -3 17 18.21 3.56
-2 3 -17 31.1 7.13
-1 -2 -14 33.52 8.86
2 -3 14 27.39 6.51
-3 1 14 43.03 7.34
2 -3 14 34.13 7.39
-2 3 -14 38.59 7.32
-1 -2 -11 33.16 7.16
2 -3 11 27.35 5.69
-3 1 11 37.23 4.14
2 -3 11 31.01 3.86
-2 3 -11 31.88 3.39
-3 1 11 26.33 4.03
-3 1 8 3.28 2.17
-1 -2 -8 7.22 3.7
2 -3 8 3.28 2.02
1 2 8 6.19 1.97
-3 1 8 4.84 3.12
-3 1 8 6.12 1.77
1 2 8 2.16 1.83
-2 3 -8 9.23 4.86
2 -3 8 5.62 1.66
-1 -2 -5 255.12 8.22
2 -3 5 247.09 3.22
1 2 5 247.23 5.48
-3 1 5 260.1 6.51
2 -3 5 251.26 3.09
3 -1 -5 245.95 5.48
1 2 5 232.65 6.06
-2 3 -5 243.26 6.91
2 -3 5 249.63 4.79
-2 3 -2 936.22 8.07
-1 -2 -2 944.34 10.05
1 2 2 950.92 10.27
-3 1 2 975.48 10.12
-3 1 2 922.54 8.41
2 -3 2 953.16 9.63
2 -3 -1 362.14 5.68
-2 3 1 370.45 4.95
-1 -2 1 376.06 4.68
1 2 -1 374.57 5.12
-3 1 -1 361.1 5.37
3 -1 1 359.75 5.12
-3 1 -1 366.15 4.8
3 -1 1 357.61 4.54
-2 3 4 868.61 10.39
-3 1 -4 878.71 9.73
3 -1 4 879.64 9.53
-1 -2 4 896.39 9.32
1 2 -4 899.4 9.16
-3 1 -4 878.78 12.54
3 -1 4 917.61 12.35
-1 -2 4 890.15 8.36
2 -3 -7 43.85 6.09
-2 3 7 46.27 3.35
-3 1 -7 45.63 5.93
3 -1 7 45.1 2.56
-1 -2 7 47.39 3.68
-3 1 -7 48.69 5.59
1 2 -7 43.28 3.02
3 -1 7 43.37 4.53
-1 -2 7 42.62 3.95
2 -3 -10 103.94 7.08
-1 -2 10 106.03 4.48
-3 1 -10 100.92 4.66
3 -1 10 100.11 8.66
-1 -2 10 103.86 5.78
-2 3 10 100.85 5.84
1 2 -10 93.74 6.04
-3 1 -10 101.51 9.34
-1 -2 10 93.02 4.93
2 -3 -13 30.39 7.98
-3 1 -13 12.82 6.85
-1 -2 13 18.47 4.45
1 2 -13 25.5 5.53
-3 1 -13 28.08 3.67
-1 -2 13 19.4 2.64
2 -3 -16 68.79 5.44
-3 1 -16 64.22 5.25
-1 -2 16 66.2 5.19
-3 1 -16 60.82 7.87
-3 1 -19 18.92 6.08
-1 -2 19 15.36 4.85
-2 3 19 16.91 6.74
-3 1 -19 15.61 3.56
-2 3 22 35.34 13.62
-2 3 25 7.73 4.74
0 3 24 4.23 2.48
0 -3 -21 3.85 3.94
-3 0 21 3.43 1.97
-3 3 -21 10.63 4.5
0 -3 -18 3.83 1.86
-3 0 18 8.63 3.33
3 -3 18 9.73 2.35
-3 3 -18 13.85 3.47
0 -3 -15 69.81 10.73
3 -3 15 47.3 6.53
-3 0 15 55.39 6.45
-3 3 -15 68.88 9.11
-3 3 -12 82.69 5.65
3 -3 12 71 8.7
-3 0 12 80.5 9.45
-3 3 -12 74.03 5.41
-3 0 12 75.9 4.01
-3 0 9 31.45 8.24
-3 3 -9 35.93 4.4
0 -3 -9 42.81 8.28
3 -3 9 36.92 3.4
-3 0 9 46.13 7.47
-3 3 -9 41.74 6.62
-3 0 9 38 2.82
3 -3 9 27.62 6.94
0 -3 -6 91.32 8.51
0 3 6 84.82 4.39
3 -3 6 87.27 3.09
-3 0 6 107.09 7.07
3 0 -6 86.56 5.76
0 3 6 83.85 4.38
-3 0 6 83.71 2.7
-3 3 -6 94.62 6.94
3 -3 6 86.37 6.7
0 -3 -3 682.79 9.7
0 3 3 707.16 9.75
3 -3 3 699.78 6.43
-3 0 3 695.64 9.95
3 0 -3 684.57 8.65
-3 0 3 686.33 5.92
-3 3 -3 707.18 9
3 -3 3 695.57 8.65
0 -3 0 301.18 5.67
0 3 0 295.01 4.17
-3 0 0 292.71 5.59
3 0 0 287.38 4.19
-3 3 0 284.18 4.17
-3 0 0 297.74 3.9
3 0 0 292.5 4.7
-3 3 0 286.14 4.69
3 -3 -3 567.06 7.79
-3 0 -3 584.26 9.06
3 0 3 562.23 10.5
0 -3 3 585.28 6.27
0 3 -3 595.73 6.47
-3 0 -3 590.61 7.72
3 0 3 574.88 9.28
0 3 -3 577.68 6.63
3 -3 -6 22.67 5.01
-3 3 6 22.18 6.01
-3 0 -6 22.45 4.41
3 0 6 21.44 4.94
0 -3 6 26.22 2.28
0 3 -6 26.4 3.01
-3 0 -6 23.53 4.99
3 0 6 24.39 5.32
0 3 -6 27.18 3.18
0 -3 6 22.15 1.78
3 -3 -9 53.99 12.59
0 -3 9 35.24 5.65
-3 0 -9 44.05 6.65
3 0 9 36.9 5.06
0 -3 9 41.75 2.74
-3 3 9 36.54 6.58
-3 0 -9 40.18 3.8
0 3 -9 33.88 4.16
0 -3 9 35.06 3.68
0 -3 12 8.54 2.53
-3 0 -12 11.89 3.62
0 -3 12 14.24 3.19
-3 0 -12 9.05 5.11
0 3 -12 15.24 3.64
0 -3 12 11.07 4
-3 0 -15 1.56 2.5
0 -3 15 1.32 2.08
-3 3 15 6.24 2.71
-3 0 -15 3.43 1.56
0 3 -15 -0.34 1.57
-3 0 -18 -0.18 1.81
0 -3 18 4.16 2.26
-3 3 18 -0.32 2.13
0 3 -18 -1.15 1.45
-3 0 -21 30.79 10.37
-3 3 21 41.25 9.73
-3 3 24 4.63 2.85
-3 -1 -23 29.03 13.15
-4 3 23 22.73 6.73
-3 -1 -20 3.02 2.59
-4 3 20 1.03 2.31
-1 4 -20 0.57 1.39
-3 -1 -17 130.99 7.41
1 -4 17 132.12 9.29
-4 3 17 131.96 14.69
-1 4 -17 127.91 6.12
-3 -1 -14 12.67 3.35
1 -4 14 15.99 4.73
1 -4 14 26.55 4.76
-4 3 14 26.26 4.34
-3 -1 -14 29.57 7.75
-1 4 -14 21.61 4.8
1 -4 11 43.8 6.01
-3 -1 -11 51.4 9.7
1 -4 11 47.92 4.19
-4 3 11 46.06 6.05
-3 -1 -11 53.32 9.45
-4 3 11 43.57 5.95
-1 4 -11 56.74 6.43
1 -4 11 45.48 9.56
1 -4 8 429.65 7.57
-3 -1 -8 414.11 9.36
3 1 8 418.2 8.19
1 -4 8 426.93 7.3
-4 3 8 438.06 8.92
-3 -1 -8 429.82 9.3
-1 4 -8 434.98 8
1 -4 8 417.21 8.76
-4 3 5 533.41 12.16
-3 -1 -5 544.25 8.04
3 1 5 515.56 9.03
1 -4 5 541.19 6.14
-1 4 -5 539.66 5.7
-4 3 5 539.15 12.02
-3 -1 -5 526.6 11.16
3 1 5 513.76 9.78
-1 4 -5 541.32 7
1 -4 5 540.12 6.96
1 -4 2 8.35 2.63
-3 -1 -2 6.23 1.85
-1 4 -2 15.18 2.16
3 1 2 8.87 2.55
-4 3 2 6.92 2.04
4 -3 -2 10.66 1.67
-3 -1 -2 9.03 2.56
3 1 2 6.47 2.3
1 -4 -1 121.14 3.75
-1 4 1 116.26 3.24
-3 -1 1 107.63 3.43
3 1 -1 117.49 5.41
-4 3 -1 119.02 3.68
4 -3 1 119.88 2.78
-3 -1 1 111.74 2.84
3 1 -1 115.32 2.92
-4 3 -1 110.56 3.43
4 -3 1 115.38 3.67
-1 4 4 597.3 8.46
-4 3 -4 598.28 6.86
4 -3 4 586.48 6.93
-3 -1 4 600.98 10.11
3 1 -4 598.92 8.56
-4 3 -4 584.66 7.93
4 -3 4 599.84 8.39
1 -4 -7 11.22 3.74
-1 4 7 12.8 3.93
-4 3 -7 11.84 2.81
4 -3 7 9.69 1.98
-3 -1 7 15.5 3.67
3 1 -7 15.38 3.08
-4 3 -7 18.43 3.49
4 -3 7 13.83 4.98
-3 -1 7 14.48 1.85
-3 -1 10 91.05 10.38
1 -4 -10 93.91 7.49
-4 3 -10 118.74 6.92
4 -3 10 98.27 7.61
-3 -1 10 106.3 4.94
-4 3 -10 103.74 5.71
-3 -1 10 95.93 4.16
1 -4 -13 438.76 14.6
4 -3 13 434.15 11.95
-3 -1 13 442.01 11.71
-4 3 -13 436.42 14.88
-3 -1 13 448.5 10.48
-4 3 -16 0.82 1.61
1 -4 -16 5.96 2.55
-3 -1 16 2.12 2.33
-4 3 -16 1.89 1.63
1 -4 -19 36.07 10.94
-3 -1 19 34.61 9.85
4 -3 19 25.37 8.37
-4 3 -19 51.64 6.48
-3 -1 22 3.89 3.45
-1 4 22 2.4 2.93
-4 3 -22 4.19 2.03
-4 2 24 1.68 3.07
-2 -2 -21 191.06 12.21
-4 2 21 167.39 18.52
-2 4 -21 178.05 8.93
-2 -2 -18 105.84 9.48
2 -4 18 88.6 10.66
-4 2 18 95.8 11.56
-2 4 -18 100.03 9.52
-2 -2 -15 458.97 21.12
2 -4 15 407.12 13.06
2 -4 15 449.41 14.67
-4 2 15 465.09 25.54
-2 4 -15 411.56 16.95
-2 -2 -12 102.33 13.2
2 -4 12 110.81 5.9
2 -4 12 97.45 5.94
-4 2 12 101.64 8.67
-4 2 12 104.56 5.73
-2 4 -12 100.29 7.78
-2 -2 -9 1631.78 25.66
2 -4 9 1636.9 23.25
2 -4 9 1635.02 22.79
-4 2 9 1619.96 26.41
-2 -2 -9 1547.24 24.1
-4 2 9 1613.3 23.46
-2 4 -9 1584.84 24.49
2 -4 9 1578.57 24.35
-4 2 6 220.26 5.3
2 -4 6 221.36 2.76
-2 -2 -6 223.25 5.45
2 2 6 209.1 6.53
2 -4 6 218.72 3.22
-4 2 6 221.56 6.54
-2 -2 -6 226.95 6.27
2 2 6 206.46 8.58
-2 4 -6 223.72 6.55
2 -4 6 201.93 9.79
-2 -2 -3 4660.86 40.49
2 2 3 4796.51 41.41
-4 2 3 4745.95 41.54
-2 4 -3 4857.91 41.73
2 -4 0 276.56 4.63
-2 4 0 268.33 5.28
-2 -2 0 264.48 4.41
2 2 0 273.25 4.56
-4 2 0 274.83 6.48
4 -2 0 265.91 4.39
-4 2 0 263.94 5.59
4 -2 0 272.96 5.2
2 -4 -3 312.12 6.04
-2 4 3 309.57 6.87
-4 2 -3 315.83 5.46
4 -2 3 317.12 6.48
-2 -2 3 300.47 6.87
2 2 -3 301.68 6.78
-4 2 -3 312.83 8.03
4 -2 3 327.52 5.42
2 -4 -6 114.1 4.57
-2 4 6 126.72 7.88
-4 2 -6 131.15 4.13
4 -2 6 132.38 6.12
-2 -2 6 139.46 6
2 2 -6 123.64 4.47
-4 2 -6 127.83 7.7
4 -2 6 129.13 7.62
-2 -2 6 126.86 2.67
-2 -2 9 1222.07 19.26
2 -4 -9 1192.94 20.39
-4 2 -9 1212.8 18.81
4 -2 9 1181.56 19.02
-2 -2 9 1163.35 18.14
2 2 -9 1184.84 17.83
-4 2 -9 1196 19.79
-2 -2 9 1170.23 16.95
2 -4 -12 397.63 11.95
-4 2 -12 406.53 10.37
4 -2 12 434.98 9.82
-2 -2 12 408.22 11.19
2 2 -12 423.49 8.64
-4 2 -12 396.5 11.27
-2 -2 12 400.05 8.33
2 -4 -15 315.95 17.45
-4 2 -15 340.35 14.9
-2 -2 15 324.97 10.52
-4 2 -15 340.09 11.8
2 -4 -18 94.35 9.21
-4 2 -18 90.28 7.93
-2 -2 18 98.79 11.59
-4 2 -18 95.34 7.55
-2 -2 21 269.04 17.95
-2 4 21 234.67 25.8
-4 2 -21 256.27 17.02
-2 4 24 26.71 8.17
-1 -3 -22 207.83 10.01
-4 1 22 181.83 11.92
-3 4 -22 183.96 7
-1 -3 -19 6.21 3.4
-4 1 19 3.36 3.1
3 -4 19 4.04 1.65
-3 4 -19 3.41 2.25
-1 -3 -16 486.63 21.21
-4 1 16 428.51 21.05
3 -4 16 445.92 16.24
-3 4 -16 450.55 18.15
-1 -3 -13 18.36 4.94
3 -4 13 13.03 2.91
-4 1 13 13 3.41
3 -4 13 17.43 3.99
-3 4 -13 10.53 2.84
-4 1 13 11.21 4.09
-1 -3 -10 1714.81 26.67
3 -4 10 1726.2 23.89
-4 1 10 1699.6 28.59
3 -4 10 1709.79 23.82
-4 1 10 1713.35 25.16
-3 4 -10 1783.58 28.48
-1 -3 -7 0.72 1.93
1 3 7 0.54 2.26
3 -4 7 0.2 0.26
-4 1 7 1.8 1.55
4 -1 -7 2.04 2.8
-4 1 7 0.71 0.7
1 3 7 0.61 2.1
-3 4 -7 1.54 1.4
3 -4 7 0.66 0.97
-1 -3 -4 4696.42 41.35
4 -1 -4 4934.18 42.84
1 3 4 4743.5 41.91
-3 4 -4 4767.09 41.65
3 -4 4 4861.07 42.25
3 -4 1 13.3 3.27
-3 4 -1 10.38 3.12
-1 -3 -1 12.26 4.12
1 3 1 9.72 2.8
-4 1 1 7.96 2.43
4 -1 -1 11.3 2.86
-4 1 1 11.64 2.6
4 -1 -1 11.26 2.62
-3 4 -1 11.33 3.15
3 -4 -2 2076.87 19.85
-3 4 2 2102.77 20.97
-1 -3 2 2069.47 18.9
-4 1 -2 2057.5 19.06
1 3 -2 2140.84 19.27
4 -1 2 2059.79 18.96
-4 1 -2 2116.16 19.55
4 -1 2 2043.69 18.87
3 -4 -5 15.07 4.29
-3 4 5 10.42 5.13
4 -1 5 10.07 1.93
-1 -3 5 12.12 2.52
1 3 -5 9.7 2.78
-4 1 -5 7.2 4.93
4 -1 5 11.81 3.64
1 3 -5 14.41 2.6
3 -4 -8 1629.44 25.28
-4 1 -8 1588.2 22.24
4 -1 8 1604.66 23.71
-1 -3 8 1627.6 23.26
1 3 -8 1632.97 22.11
-4 1 -8 1619.82 23.87
-1 -3 8 1616.54 22.79
3 -4 -11 14.91 5.39
-1 -3 11 13.01 3.02
-4 1 -11 14.91 3.6
4 -1 11 7.93 2.58
-1 -3 11 9.57 2.4
-4 1 -11 12.91 5.97
1 3 -11 15.88 4.67
-1 -3 11 11.39 2.29
3 -4 -14 1016.61 31.48
-4 1 -14 1038.78 29.32
-1 -3 14 1042.01 30.01
1 3 -14 951.33 26.01
-4 1 -14 1032.95 28.93
-1 -3 14 942.98 25.39
-4 1 -17 12.23 2.89
-1 -3 17 18.17 4.1
-3 4 17 15.73 4.46
1 3 -17 17.35 3.91
-4 1 -17 10.91 4.97
-4 1 -20 417.43 14.6
-1 -3 20 409.05 19.92
-3 4 20 389.74 15.28
-3 4 23 1.85 2.65
-4 0 23 86.73 18.75
-4 4 -23 95.74 8.26
0 -4 -20 5.63 4.46
-4 0 20 5.31 3.17
-4 4 -20 3.39 2.88
0 -4 -17 70.44 7.2
-4 0 17 63.51 4.87
4 -4 17 61.02 4.48
-4 4 -17 64.36 12.52
0 -4 -14 3.88 1.91
4 -4 14 1.1 0.92
-4 0 14 6.41 3.87
-4 4 -14 4.17 2.29
-4 0 14 2.08 1.47
-4 4 -11 420.47 8.4
0 -4 -11 427.24 15.14
4 -4 11 430.06 8.27
-4 0 11 426.89 9.78
-4 4 -11 425.43 10.35
-4 0 11 431.93 7.36
-4 4 -8 27.59 3.87
0 -4 -8 35.74 7.59
4 -4 8 26.6 3.61
-4 0 8 27.86 2.87
4 0 -8 31.21 2.85
-4 0 8 28.51 2.76
-4 4 -8 30.24 7.74
4 -4 8 27.03 3.39
0 -4 -5 1984.88 22.33
0 4 5 2034.66 21.6
4 -4 5 1999.8 16.81
-4 0 5 1986.31 20.12
4 0 -5 1967.91 19.55
-4 0 5 1999.49 16.37
-4 4 -5 2016.14 19.96
4 -4 5 1943.93 20.03
-4 0 5 1945.63 15.88
0 -4 -2 452.09 7.53
0 4 2 465.4 7.68
-4 0 2 470.88 9.09
4 0 -2 459.97 7.27
-4 4 -2 475.52 5.78
4 -4 2 462.11 5.32
-4 0 2 471.81 6.13
4 0 -2 454.89 4.97
-4 4 -2 457.69 9.57
4 -4 2 474.08 8.37
-4 4 1 1177.31 12.48
0 -4 1 1163.52 12.88
0 4 -1 1172.18 12.01
-4 0 -1 1144.19 12.21
4 0 1 1150 12.23
-4 4 1 1184.37 12.26
-4 0 -1 1150.22 11.6
4 0 1 1205.86 11.95
-4 4 4 7.31 2.99
-4 0 -4 2.08 2.17
4 0 4 3.51 2.78
0 -4 4 10.65 2.02
0 4 -4 8.42 1.74
-4 0 -4 5.98 2.2
4 0 4 5.94 2.68
0 4 -4 13.24 2.85
4 -4 -7 196.82 7.78
-4 0 -7 194.75 5.14
4 0 7 197.83 9.76
0 -4 7 210.3 5.16
0 4 -7 200.03 4.84
-4 0 -7 206.16 6.97
0 4 -7 211.07 4.69
0 -4 7 210.2 4.79
4 -4 -10 106.52 13.12
0 -4 10 97.28 6.96
-4 0 -10 89.73 7.52
4 0 10 86.27 9.7
0 -4 10 94.25 4.74
-4 4 10 98.33 4.73
-4 0 -10 94.49 6.95
0 4 -10 94.37 3.86
0 -4 10 89.6 5.19
0 -4 13 715.67 15.51
-4 0 -13 701.89 17.73
0 -4 13 726.45 15.67
-4 4 13 656.78 19.84
-4 0 -13 723.95 20.16
0 4 -13 703.72 15.05
0 -4 13 693.51 16.76
-4 0 -16 57.69 10.84
0 -4 16 61.65 7.18
-4 4 16 64.83 12.85
-4 0 -16 69.5 12.47
0 4 -16 65.36 4.68
-4 0 -19 122.35 16.55
0 -4 19 128.32 15.43
-4 4 19 131.8 14.78
0 4 -19 134.82 9.95
-4 0 -22 0.15 1.44
-4 4 22 2.71 2.47
-4 4 25 9.97 4.66
-5 4 24 10.96 4.69
-4 -1 -21 7.34 3.16
-5 4 21 9.47 3.98
-1 5 -21 5.24 2.93
-4 -1 -18 115.15 10.34
1 -5 18 122.21 7.89
-5 4 18 113.34 12.86
-1 5 -18 116.04 7.45
-4 -1 -15 148.49 13.35
1 -5 15 151.18 10.1
1 -5 15 156.78 10.84
-5 4 15 176.68 12.87
-4 -1 -15 162.83 8.1
-1 5 -15 156.47 7.81
1 -5 12 217.52 7.91
-4 -1 -12 209.3 11.19
1 -5 12 221.4 10.12
-5 4 12 222.66 18.88
-4 -1 -12 207.69 8.94
-1 5 -12 200.94 8.24
1 -5 9 119.42 5.27
-4 -1 -9 111.65 5.17
1 -5 9 128.11 6.64
-5 4 9 142.42 11.72
-4 -1 -9 118.76 11.22
-1 5 -9 131.27 7.1
1 -5 9 126.79 4.94
-5 4 6 292.19 6.76
-4 -1 -6 305.5 9.73
4 1 6 289.97 6.75
1 -5 6 280.84 6.47
-1 5 -6 290.66 4.77
-5 4 6 290.76 9.34
-4 -1 -6 280.01 9.75
4 1 6 282.77 7.52
-5 4 3 176.67 6.77
1 -5 3 164.83 3.52
-4 -1 -3 170.97 4.98
4 1 3 177.15 8.89
-1 5 -3 170.67 4.9
-5 4 3 182.88 5.75
-4 -1 -3 176.14 4.73
4 1 3 174.28 5.88
1 -5 0 13.6 2.88
-1 5 0 11.55 3.06
-4 -1 0 5.63 2.33
-5 4 0 11.97 2.63
5 -4 0 12.74 3.24
-4 -1 0 11.45 2.37
4 1 0 9.36 2.09
-5 4 0 14.24 2.95
1 -5 -3 188.7 10.25
-1 5 3 198.56 6.78
-5 4 -3 196.9 4.88
-4 -1 3 188.94 4.92
4 1 -3 186.47 4.4
5 -4 3 189.35 3.39
4 1 -3 187.68 2.96
-5 4 -3 183.18 4.64
5 -4 3 187.19 4.31
1 -5 -6 329.78 7.79
-1 5 6 324.84 9.14
-5 4 -6 333.13 5.6
5 -4 6 339.39 8.18
-4 -1 6 319.15 6.96
4 1 -6 326.22 9.88
-5 4 -6 335.65 7.04
5 -4 6 323.53 7.38
1 -5 -9 157.36 13.53
-5 4 -9 157.77 5.35
5 -4 9 160.4 6.16
-4 -1 9 160.58 5.59
-5 4 -9 154.25 7.58
-4 -1 9 149.99 4.15
-5 4 -12 419.21 9.52
1 -5 -12 452.12 18.67
5 -4 12 441.38 10.11
-4 -1 12 456.38 20.79
-5 4 -12 437.28 12.46
-4 -1 12 439.35 9.47
-5 4 -15 13.57 5.04
1 -5 -15 17.43 5.09
-4 -1 15 6.32 1.89
-5 4 -15 6.9 3.36
-4 -1 15 6.75 2.25
1 -5 -18 42.62 12.79
-4 -1 18 31.83 10.89
5 -4 18 37.4 4.82
-5 4 -18 31.94 10.22
1 -5 -21 57.62 13.41
-4 -1 21 21.48 7.7
-5 4 -21 30.78 9.47
-1 5 24 15.02 4.35
-3 -2 -22 152.03 13.56
-5 3 22 155.09 14.47
-2 5 -22 154.8 7.72
-3 -2 -19 45.59 11.55
-5 3 19 36.77 8.88
-2 5 -19 41.2 8.09
-3 -2 -16 468.34 16.15
2 -5 16 486.77 17.46
-5 3 16 481.09 18.94
-2 5 -16 477.83 17.31
-3 -2 -13 6.73 3.96
2 -5 13 10.15 3.74
2 -5 13 13.18 3.2
-5 3 13 16.18 6.43
-5 3 13 13.08 3.81
-2 5 -13 20.61 3.16
2 -5 10 809.25 12.68
-3 -2 -10 735.89 14.99
2 -5 10 772.16 12.23
-5 3 10 751.37 14.17
-3 -2 -10 757.46 16.9
-5 3 10 769.75 12.19
-2 5 -10 781.69 13.92
2 -5 10 770.06 13.59
2 -5 7 8.31 1.34
-3 -2 -7 6.36 3.46
3 2 7 6.9 2.72
2 -5 7 9 1.25
-5 3 7 14.72 3.92
-3 -2 -7 12.03 5.81
-2 5 -7 4.49 3.31
2 -5 7 10.92 2.18
-3 -2 -4 7864.88 98.13
3 2 4 7779.66 65.94
-5 3 4 7725.61 66.19
5 -3 -4 7852.74 97.9
-3 -2 -4 7760.72 66.06
3 2 4 7874.98 98.07
-2 5 -4 7534.5 64.35
2 -5 1 331.81 5.06
-2 5 -1 333.67 6.04
-3 -2 -1 330.1 9.45
3 2 1 327.99 5.66
-5 3 1 330.83 5.4
5 -3 -1 324.72 6.06
3 2 1 328.66 6.59
-5 3 1 327 7.13
5 -3 -1 326.42 5.56
2 -5 -2 211.11 10.25
-2 5 2 223.5 5.8
-3 -2 2 225.09 8.57
-5 3 -2 215.25 5.11
3 2 -2 221.43 5.94
5 -3 2 214.38 4.97
3 2 -2 218.94 3.18
2 -5 -5 9.34 4.34
-2 5 5 11.21 4.84
-5 3 -5 10.02 1.74
5 -3 5 4.95 1.82
-3 -2 5 10.85 2.06
3 2 -5 9.4 3.46
3 2 -5 9.51 0.97
-5 3 -5 6.2 3.26
5 -3 5 11.65 3.3
2 -5 -8 2446.74 36.18
-5 3 -8 2485.74 32.1
5 -3 8 2516.84 32.36
-3 -2 8 2588.96 35.03
3 2 -8 2550.38 33.85
-3 -2 8 2485.61 30.91
2 -5 -11 24.82 11.81
-5 3 -11 13.05 5.77
5 -3 11 16.94 4.09
-3 -2 11 33.8 3.22
-5 3 -11 29.4 7.32
-3 -2 11 22.15 4.32
2 -5 -14 637.94 22.56
-5 3 -14 660.27 20.49
5 -3 14 605.39 17.06
-3 -2 14 623.39 19.31
-5 3 -14 587.72 23.58
-3 -2 14 626.56 17.05
2 -5 -17 62.96 15.49
-5 3 -17 51.17 10.24
-3 -2 17 64.57 6.58
-5 3 -17 57.76 11.21
2 -5 -20 453.61 22.16
-3 -2 20 468.91 24.11
-5 3 -20 493.73 13.82
-2 5 23 1.75 3.13
-2 -3 -23 57.19 15.46
-5 2 23 83.5 10.24
-3 5 -23 65.89 14.1
-2 -3 -20 118.9 6.73
-5 2 20 131.26 14.7
-3 5 -20 151.52 8.4
-2 -3 -17 504.86 22.8
3 -5 17 517.29 18.14
-5 2 17 520.12 18.67
-3 5 -17 513.05 16.45
-2 -3 -14 1167.3 32.7
3 -5 14 1058.32 28.32
3 -5 14 1164.2 31.04
-5 2 14 1140.97 35.96
-3 5 -14 1158.99 31.56
-5 2 14 1148.36 30.27
-2 -3 -11 1606.5 25.71
3 -5 11 1541.9 21.71
3 -5 11 1602.89 22.66
-5 2 11 1469.35 29.95
-5 2 11 1552.64 22.62
-3 5 -11 1530.92 25.61
-2 -3 -8 566.8 14.5
3 -5 8 566.5 7.72
3 -5 8 576.98 7.88
-5 2 8 603.47 11.73
-3 5 -8 575.96 11.69
3 -5 8 562.3 12.3
-2 -3 -5 4435.57 39.96
5 -2 -5 4252.93 38.54
2 3 5 4358.87 39.7
-3 5 -5 4331.53 38.45
3 -5 2 405.44 4.91
-3 5 -2 401.24 5.19
-2 -3 -2 383.52 6.54
2 3 2 399.25 6.95
-5 2 2 404.11 9.53
5 -2 -2 392.05 6
2 3 2 408.54 6.08
-5 2 2 386.39 5
-3 5 -2 406.91 7.05
5 -2 -2 410.03 5.22
3 -5 -1 1043.07 12.2
-3 5 1 1066.4 13.21
-2 -3 1 1087.98 11.71
2 3 -1 1073.01 11.75
-5 2 -1 1056.04 11.42
5 -2 1 1056.33 11.17
-5 2 -1 1044.02 11.65
5 -2 1 1062.16 11.05
3 -5 -4 1415.64 18.35
-3 5 4 1392.93 16.71
-5 2 -4 1361.66 13.6
5 -2 4 1371.94 14.3
-2 -3 4 1378.52 14
2 3 -4 1363.56 14.05
-5 2 -4 1389.97 14.9
5 -2 4 1335.12 14.39
3 -5 -7 5257.36 100.4
-5 2 -7 4901.34 61.63
5 -2 7 4920.52 61.69
-2 -3 7 5044.73 95.46
2 3 -7 5011.9 94.68
-5 2 -7 5028.32 96.12
3 -5 -10 492.94 12.53
-5 2 -10 507.06 10.03
5 -2 10 509.09 10.44
-2 -3 10 502.05 10.8
2 3 -10 515.84 8.52
-5 2 -10 516.96 14.65
-2 -3 10 487.74 9.12
3 -5 -13 1289.61 15.86
-5 2 -13 1262.01 25.86
-2 -3 13 1300.99 15.34
2 3 -13 1278.97 25.09
-5 2 -13 1287.5 27.77
-2 -3 13 1313.3 9.3
3 -5 -16 51.41 11.04
-5 2 -16 39.02 8.97
-2 -3 16 25.12 7.48
-5 2 -16 30.93 7.34
-5 2 -19 597.47 24.11
-2 -3 19 628.83 24.26
-3 5 19 551.62 33.53
-5 2 -19 535.87 25.42
-3 5 22 72.09 11.53
-3 5 25 120.37 18.27
-1 -4 -24 20.6 9.49
-5 1 24 16.5 8.42
-4 5 -24 52.12 12.57
-1 -4 -21 304.33 17.12
-5 1 21 293.89 14.89
-4 5 -21 270.08 13.83
-1 -4 -18 122.44 8.22
-5 1 18 112.06 6.16
4 -5 18 109.91 7.45
-4 5 -18 103.98 7.77
-1 -4 -15 650.11 23.15
4 -5 15 602.68 16.87
-5 1 15 578.38 27.63
4 -5 15 634.41 16.45
-4 5 -15 598.35 18.31
-5 1 15 589.69 14.9
-1 -4 -12 5.59 3.7
4 -5 12 7.86 1.86
-5 1 12 5.75 4.11
4 -5 12 4.08 1.81
-5 1 12 5.19 2.33
-4 5 -12 7.69 3.71
-1 -4 -9 1874.91 31.16
4 -5 9 1795.88 24.27
-5 1 9 1853.53 28.47
4 -5 9 1841.21 24.82
-5 1 9 1880.63 25.9
-4 5 -9 1817.84 27.96
1 4 6 197.69 10.61
-5 1 6 188.49 5.71
5 -1 -6 179.15 6.1
1 4 6 189.94 5.82
-4 5 -6 193.86 5.14
4 -5 6 193.07 5.5
-4 5 -3 258.22 3.72
-1 -4 -3 252.13 6.5
1 4 3 229.41 12.36
-5 1 3 246.19 7.3
5 -1 -3 251.01 5.66
-5 1 3 241.99 3.86
-4 5 -3 241.67 5.28
4 -5 3 248.2 4.91
4 -5 0 403.99 6.1
-4 5 0 420.73 6.16
-1 -4 0 410.57 8.61
1 4 0 415.56 8.1
-5 1 0 400.08 6.95
5 -1 0 396.26 6.4
-5 1 0 418.27 6.6
5 -1 0 409.16 6.29
4 -5 -3 1362.59 17.07
-4 5 3 1434.4 15.91
5 -1 3 1400.2 14.15
1 4 -3 1392.44 13.72
-5 1 -3 1381.75 14.53
5 -1 3 1430.66 14.7
4 -5 -6 1151 18.26
-4 5 6 1142.06 17.43
-5 1 -6 1150.44 17.92
5 -1 6 1142.62 16.36
-1 -4 6 1139.84 16.31
1 4 -6 1157.35 15.95
-5 1 -6 1116.62 17.18
1 4 -6 1144 15.22
4 -5 -9 1308.9 21.77
-5 1 -9 1253.25 19.5
5 -1 9 1302.82 19.91
-1 -4 9 1311.71 20.79
1 4 -9 1303.34 19.36
-5 1 -9 1302.35 22.68
1 4 -9 1295.47 20.62
-1 -4 9 1301.55 19.25
4 -5 -12 115.25 14.92
-1 -4 12 112.61 4.44
-5 1 -12 109.3 7.14
-1 -4 12 113.91 7.71
-5 1 -12 123.6 7.42
1 4 -12 113.53 8.22
-1 -4 12 112.29 3.96
-5 1 -15 478.09 18.77
-1 -4 15 516.22 15.8
-5 1 -15 451.88 19.28
1 4 -15 506.86 14.2
-5 1 -18 207.33 11.34
-1 -4 18 216.7 11.09
-4 5 18 197.41 25.05
1 4 -18 194.29 9.47
-5 1 -18 218.22 12.11
-5 1 -21 105.46 10.01
-4 5 21 99.17 17.7
-4 5 24 24.87 8.46
0 5 25 5.69 2.25
0 -5 -22 46.36 15.18
-5 0 22 56.09 9.57
-5 5 -22 53.52 8.41
0 -5 -19 7.09 3.81
-5 0 19 -0.15 1.64
-5 5 -19 3.66 2.17
0 -5 -16 103.27 8.55
-5 0 16 116.79 8.33
5 -5 16 104.57 8.97
-5 5 -16 133.13 13.63
-5 5 -13 15.78 2.96
0 -5 -13 19.11 3.83
5 -5 13 13.51 2.66
-5 0 13 17.88 3.64
-5 5 -13 22.2 6.19
-5 0 13 10.01 2.65
0 -5 -10 149.61 11.12
5 -5 10 133.48 6.75
-5 0 10 142.37 12.27
-5 5 -10 128.13 9.88
-5 0 10 136.9 5.73
0 -5 -7 107.44 5.6
5 -5 7 94.83 3.09
-5 0 7 109.44 7.73
5 0 -7 88.58 3.87
-5 5 -7 102.26 6.39
0 -5 -4 70.58 4.34
0 5 4 60.54 4.6
-5 0 4 61.46 4.32
5 0 -4 63.96 5.56
5 -5 4 63.79 2.55
-5 0 4 62.37 1.81
-5 5 -4 63.9 5.22
5 -5 4 56.71 5.28
0 -5 -1 83.38 3.81
0 5 1 86.08 3.32
-5 0 1 83.91 8.42
5 0 -1 89.99 3.74
-5 5 -1 90.83 3.21
-5 0 1 85.35 3.68
5 0 -1 82.65 2.28
-5 5 -1 104 8.4
-5 5 2 1154.09 15.02
0 -5 2 1151.9 12.11
0 5 -2 1160.27 12.1
-5 0 -2 1132.45 14.86
5 0 2 1152.44 14.14
-5 5 2 1130.49 12.8
-5 0 -2 1154.8 13.86
5 0 2 1137.43 12.08
-5 0 -5 289.04 6.55
5 0 5 305.06 11.06
0 -5 5 309.41 7.36
0 5 -5 302.19 6.64
-5 5 5 321.75 8.44
-5 0 -5 300.74 6.87
5 0 5 290.73 6.99
0 5 -5 299.63 7.75
-5 0 -8 246.74 7.43
5 0 8 240.44 12.65
0 -5 8 246.06 7.72
0 5 -8 242.95 7.04
-5 0 -8 235.87 8.78
0 5 -8 258.81 6.91
0 -5 11 26.11 6.08
-5 0 -11 37.95 6.85
0 -5 11 33.48 3.07
-5 5 11 46.01 8.22
-5 0 -11 37.29 4.71
0 5 -11 37.23 7.48
0 -5 11 32.9 3.67
0 -5 14 97.83 5.25
-5 0 -14 101.84 11.72
0 -5 14 104.23 7.55
-5 5 14 113.97 18.06
-5 0 -14 114.49 7.64
0 5 -14 98.35 4.78
-5 0 -17 18.75 3.54
0 -5 17 17.98 3.2
-5 5 17 21.2 6.35
-5 0 -17 24.95 4.69
0 5 -17 19.12 4.49
-5 0 -20 43.09 8.89
-5 5 20 35.99 12.33
0 5 -20 40.31 7.54
-5 5 23 0.24 1.92
-6 5 25 4.81 1.72
-5 -1 -22 0.22 2.22
-6 5 22 2.74 2.41
-5 -1 -19 5.72 3.43
-6 5 19 4.04 3.01
-1 6 -19 3.11 2.52
-5 -1 -16 7.56 3.8
1 -6 16 10.11 3.15
-6 5 16 5.22 5.12
-5 -1 -16 9.56 3.64
-1 6 -16 8.44 2.87
1 -6 13 11.28 4.3
-5 -1 -13 23.6 6.04
1 -6 13 14.94 3.31
-6 5 13 21.03 4.88
-5 -1 -13 19.97 4.57
-1 6 -13 9.56 1.79
1 -6 10 78.11 6.11
-5 -1 -10 81.21 11.64
1 -6 10 88.12 6.03
-6 5 10 82.13 6.79
-5 -1 -10 81.74 5.24
-1 6 -10 85.14 4.7
1 -6 10 83.71 7.12
-5 -1 -7 1.21 2.85
5 1 7 7.81 1.95
1 -6 7 2.96 1.34
-1 6 -7 3.69 1.52
-6 5 7 7 3.18
-5 -1 -7 5.38 2.8
-1 6 -7 3.26 2.12
-6 5 4 12.56 6.47
1 -6 4 9.77 1.99
-5 -1 -4 4.41 2.69
5 1 4 7.34 2.51
-1 6 -4 10.46 2.88
-6 5 4 21.14 6.19
-5 -1 -4 10.37 2.62
5 1 4 7.21 1.93
1 -6 1 254 5.32
-1 6 -1 259.05 4.75
-5 -1 -1 244.57 5.58
5 1 1 236.18 7.47
-6 5 1 235.81 4.65
6 -5 -1 244.97 4.91
-5 -1 -1 241.58 7.15
5 1 1 245.3 5.56
-6 5 1 248.01 8.18
1 -6 -2 17.12 3.81
-1 6 2 11.8 3.25
-5 -1 2 6.55 2.2
5 1 -2 13.29 3.46
-6 5 -2 12.5 3.45
6 -5 2 10.36 2.87
-5 -1 2 10.27 2.44
5 1 -2 14.72 1.63
-6 5 -2 16.35 4.13
6 -5 2 12.01 3.02
1 -6 -5 0.03 2.67
-6 5 -5 0.96 0.92
-5 -1 5 -0.09 1.99
6 -5 5 0.59 0.73
5 1 -5 -0.24 1.22
-6 5 -5 -2.87 2.28
6 -5 5 0.58 1.43
1 -6 -8 0.91 2.19
-6 5 -8 0.4 0.61
6 -5 8 0.25 0.72
-5 -1 8 3.08 1.37
-6 5 -8 -1.08 2.59
1 -6 -11 5.65 2.91
-6 5 -11 2.26 1.67
6 -5 11 4.32 1.03
-5 -1 11 2.22 1.1
-6 5 -11 5.91 3.77
-5 -1 11 2.93 0.78
-6 5 -14 5.22 2.09
1 -6 -14 6.37 4.44
6 -5 14 4.02 1.09
-5 -1 14 6.27 3.8
-6 5 -14 4.83 2.4
-5 -1 14 6.18 1.59
1 -6 -17 15.34 4.55
-5 -1 17 8.11 2.8
-6 5 -17 16.24 4.91
1 -6 -20 10.09 5.35
-5 -1 20 10.48 4.79
-6 5 -20 11.66 6.12
1 -6 -23 6.19 3.3
-6 5 -23 1.36 1.76
-4 -2 -23 27.57 7.66
-6 4 23 18.22 5.37
-4 -2 -20 40.6 8.64
-6 4 20 40.34 7.76
-2 6 -20 45.69 12.33
-4 -2 -17 147.21 14.64
2 -6 17 152.1 8.13
-6 4 17 164.67 17.58
-2 6 -17 135.42 10.08
-4 -2 -14 140.24 10.62
2 -6 14 128.53 7.97
2 -6 14 150.07 7.92
-6 4 14 145.08 13.48
-2 6 -14 173.33 8.65
2 -6 11 76.69 5.99
-4 -2 -11 72.45 7.62
2 -6 11 76.64 4.72
-6 4 11 89.63 7.36
-4 -2 -11 74.36 9.63
-2 6 -11 85.55 6.75
2 -6 8 109.66 3.43
-4 -2 -8 104.27 8.06
2 -6 8 106.35 4.49
-6 4 8 107.98 7.13
-4 -2 -8 95.69 8.18
-2 6 -8 103.75 6.14
2 -6 8 118.75 5.05
-6 4 5 1479.92 21.4
2 -6 5 1432.53 18.38
4 2 5 1454.68 24.13
-2 6 -5 1464.1 18.88
-6 4 5 1479.99 22.75
-4 -2 -5 1476.99 22.14
4 2 5 1445.73 20.55
-2 6 -5 1457.43 22.29
2 -6 2 1019.39 11.72
-2 6 -2 1035.56 11.01
-4 -2 -2 1034.81 13.54
4 2 2 1029.34 13.72
-6 4 2 1024.8 12.06
6 -4 -2 1042.94 14.34
4 2 2 1033.06 12.95
-6 4 2 1013.89 11.31
2 -6 -1 337.29 7.72
-2 6 1 343.91 6.7
-4 -2 1 355.92 8.31
4 2 -1 351.04 5.92
-6 4 -1 338.41 5.71
6 -4 1 344.4 5.9
4 2 -1 353.19 5.42
-6 4 -1 346.29 7.26
6 -4 1 342.95 7.07
2 -6 -4 43.67 6.8
-2 6 4 38.36 5.6
-6 4 -4 32.88 2.65
-4 -2 4 47.12 9.39
6 -4 4 37.43 2.41
4 2 -4 38.62 2.58
4 2 -4 35.54 1.62
-6 4 -4 40.98 10.15
6 -4 4 38.15 3.82
2 -6 -7 238.84 8.87
-6 4 -7 234.89 6.93
6 -4 7 235.09 8.37
-4 -2 7 249.09 8.42
4 2 -7 246.09 7.88
-6 4 -7 256.54 8.32
2 -6 -10 349.69 14.55
-6 4 -10 360.92 8.87
6 -4 10 350.85 10.25
-4 -2 10 369.35 12.36
-6 4 -10 362.94 9.31
-4 -2 10 349.33 5.63
2 -6 -13 113.48 9.1
-6 4 -13 106.11 6.01
6 -4 13 92.81 8.31
-4 -2 13 113.74 7.04
-6 4 -13 112.32 10.38
-4 -2 13 105.17 3.6
2 -6 -16 58.7 14.05
-6 4 -16 43.74 7.02
-4 -2 16 54.62 5.51
-6 4 -16 55.77 12.01
2 -6 -19 406.47 19.11
-4 -2 19 411.21 22.58
-6 4 -19 399.44 23.63
-4 -2 22 9.28 2.57
-6 4 -22 17.57 6.15
-2 6 25 9.28 6.18
-3 -3 -24 11.3 3.23
-6 3 24 7.73 3.79
-3 -3 -21 203.19 12.77
-6 3 21 223.26 16.4
-3 6 -21 195.77 11.34
-3 -3 -18 145.53 11.74
-6 3 18 139.03 11.63
-3 6 -18 133.42 9.65
-3 -3 -15 889.4 24.12
3 -6 15 843.18 20.93
3 -6 15 923.99 22.55
-6 3 15 885.51 28.19
-3 6 -15 882.03 23.3
-3 -3 -12 101.68 14
3 -6 12 83.79 5.03
3 -6 12 87.92 5.03
-6 3 12 97.39 18.66
-6 3 12 86.04 6.06
-3 6 -12 82.3 5.92
-3 -3 -9 319.53 17.31
3 -6 9 323.53 6.44
3 -6 9 334.28 12.27
-6 3 9 344.38 16.84
-3 6 -9 316.36 10.28
-3 -3 -6 1725.14 26.11
3 3 6 1752.35 25.05
-6 3 6 1664.43 24.26
-3 6 -6 1807.37 25.42
3 -6 6 1773.63 24.56
3 -6 3 2751.19 23.93
-3 6 -3 2738.76 23.83
-3 -3 -3 2813.33 27.21
3 3 3 2752.85 26.51
-6 3 3 2700.21 25.9
6 -3 -3 2819.36 26.54
3 3 3 2791.36 26.85
-6 3 3 2755.12 24.61
-3 6 -3 2735.05 25.91
3 -6 0 500.51 6.99
-3 6 0 501.58 8.78
-3 -3 0 509.73 9.56
3 3 0 493.75 11.49
-6 3 0 500.28 7.85
6 -3 0 504.1 7.07
3 3 0 518.65 7.15
-6 3 0 497.6 7.29
6 -3 0 514.94 7.8
3 -6 -3 824.08 11.35
-3 6 3 861.38 14.57
-3 -3 3 832.44 13.43
-6 3 -3 850.54 11.26
3 3 -3 866.97 10.13
-6 3 -3 858.76 11.64
6 -3 3 865.81 10.45
3 -6 -6 1238.05 19.79
-6 3 -6 1261.25 18.12
6 -3 6 1295.64 18.7
-3 -3 6 1280.97 18.81
3 3 -6 1277.63 18.24
-6 3 -6 1277.5 20.22
3 -6 -9 1628.97 27.33
-6 3 -9 1606.09 23.42
6 -3 9 1625.9 25.81
-3 -3 9 1612.5 27.18
3 3 -9 1612.57 23.82
-6 3 -9 1670.62 27.71
3 -6 -12 131.38 9.6
-6 3 -12 93.94 9.29
6 -3 12 102.7 6.91
-3 -3 12 116.16 10.2
3 3 -12 121.47 5.38
-6 3 -12 116.84 7.13
-3 -3 12 109.66 4.75
3 -6 -15 199.95 12.39
-6 3 -15 192.38 9.38
-3 -3 15 201.77 15.63
-6 3 -15 202.46 10.64
-3 -3 15 185.55 7.13
3 -6 -18 401.2 24.46
-6 3 -18 412.13 18.38
-3 -3 18 439.91 17.19
-6 3 -18 428.99 21.38
-3 6 21 194.06 18.85
-6 3 -21 177.86 9.76
-3 6 24 37.73 13.16
-2 -4 -25 2.95 2.25
-2 -4 -22 244.95 15.07
-6 2 22 232.18 19.9
-4 6 -22 218.92 13.79
-2 -4 -19 3.11 1.96
-6 2 19 9.62 4.63
-4 6 -19 3.12 2.49
-2 -4 -16 722.87 26.36
4 -6 16 697.58 20.3
-6 2 16 708.3 28.85
-4 6 -16 713.55 22.47
-2 -4 -13 446.57 21.83
4 -6 13 457.18 12.48
4 -6 13 471.69 13.5
-6 2 13 491.94 17.98
-6 2 13 508.05 14.77
-4 6 -13 467.89 19.5
-2 -4 -10 1410.44 25.33
4 -6 10 1424.46 18.62
4 -6 10 1470.17 19.21
-6 2 10 1426.43 28.69
-6 2 10 1462.14 20.73
-4 6 -10 1444.21 24.42
-2 -4 -7 42.11 6.11
-6 2 7 33.78 7.13
-4 6 -7 31.95 9.54
4 -6 7 21.88 6.93
-4 6 -4 2271.89 18.99
2 4 4 2284.51 22.77
-6 2 4 2291.28 23.49
6 -2 -4 2298.93 22.43
2 4 4 2311.2 24.34
-4 6 -4 2303.37 23.43
-6 2 4 2319.69 20.51
4 -6 4 2368.74 23.06
4 -6 1 46.39 2.64
-4 6 -1 44.96 2.68
-2 -4 -1 46.08 4.38
2 4 1 50 3.57
-6 2 1 48.97 3.2
6 -2 -1 47.66 5.66
-6 2 1 46.21 2.3
6 -2 -1 44.11 4.31
4 -6 -2 1246.06 17.68
-4 6 2 1251.89 14.47
-2 -4 2 1267.62 14.23
2 4 -2 1308.11 13.49
-6 2 -2 1294.12 13.77
6 -2 2 1285.91 13.41
-6 2 -2 1279.77 13.58
6 -2 2 1317.6 13.83
4 -6 -5 63.68 4.43
-4 6 5 53.73 4.62
-6 2 -5 52.87 3.91
6 -2 5 52.03 4.14
-2 -4 5 58.89 4.62
2 4 -5 59.07 4.8
-6 2 -5 63.21 5.72
6 -2 5 51.52 3.61
2 4 -5 54.39 2.35
4 -6 -8 3529.26 53.87
-6 2 -8 3580.47 49.32
6 -2 8 3384.29 46.29
-2 -4 8 3350.13 47.45
2 4 -8 3481.8 47.66
-6 2 -8 3502.81 50.77
2 4 -8 3449.15 45.85
4 -6 -11 174.79 8.54
-6 2 -11 172.78 7.52
6 -2 11 134.59 12.8
-2 -4 11 171.3 10.91
-6 2 -11 161.37 11.01
2 4 -11 163.11 8.45
-2 -4 11 148.45 7.42
4 -6 -14 730.51 22.16
-6 2 -14 731.49 23.52
-2 -4 14 821.44 23.99
2 4 -14 758.32 20.41
-6 2 -14 689.08 24.5
-2 -4 14 733.91 20.59
4 -6 -17 3.28 3.7
-6 2 -17 1.49 2.11
-2 -4 17 4 2.16
-6 2 -17 9.57 3.89
-6 2 -20 367.67 12.28
-2 -4 20 358.51 11.45
-4 6 20 324.36 19.48
-6 2 -20 364.06 14.1
-4 6 23 1.49 1.99
-1 -5 -23 35.73 9.62
-6 1 23 24.03 8.13
-5 6 -23 37.14 6.41
-1 -5 -20 143.88 12.43
-6 1 20 124.68 13.74
-5 6 -20 138.71 10.76
-1 -5 -17 311.79 16.7
-6 1 17 318.77 17.77
-5 6 -17 343.05 16.06
-1 -5 -14 129.61 13.08
5 -6 14 121.78 5.23
-6 1 14 137.31 13.28
5 -6 14 119.51 5.69
-5 6 -14 138.76 7.93
-6 1 14 122.09 7.5
-1 -5 -11 2.21 2.63
5 -6 11 1.71 0.84
-6 1 11 2.14 2.41
5 -6 11 2.13 0.68
-6 1 11 3.05 0.83
-5 6 -11 2.91 3.54
-1 -5 -8 1214.94 21.1
-6 1 8 1237.77 23.12
-6 1 8 1276.41 17.7
-5 6 -8 1271.03 22.77
-5 6 -5 441.52 6.04
-1 -5 -5 418.08 10.11
-6 1 5 446.4 8.65
6 -1 -5 434.78 8.18
-6 1 5 422.76 6.53
-5 6 -5 442.03 10.36
5 -6 5 449.03 9.57
-5 6 -2 789.74 8.4
1 5 2 808.07 11.73
6 -1 -2 803.64 10.25
-5 6 -2 793.68 8.63
-6 1 2 776.71 9.2
6 -1 -2 783.27 8.43
-5 6 -2 795.9 10.91
-5 6 1 1204.75 14.66
-1 -5 1 1197.63 14.01
1 5 -1 1220.68 12.9
-6 1 -1 1179.4 16.06
6 -1 1 1205.33 13.22
-6 1 -1 1204.92 13.05
6 -1 1 1221.54 12.69
5 -6 -4 102.97 6.23
-5 6 4 107.94 4.33
-6 1 -4 108.62 6.11
-1 -5 4 118.01 4.14
6 -1 4 118.43 4.99
1 5 -4 111.22 3.64
6 -1 4 102.82 4.51
5 -6 -7 1098.13 18.77
-6 1 -7 1078.09 17.65
6 -1 7 1069.83 19.07
-1 -5 7 1072.1 16.71
1 5 -7 1065.11 15.15
-6 1 -7 1079.18 17.59
1 5 -7 1075.42 14.87
5 -6 -10 283.74 13.47
-6 1 -10 296.42 9.51
-1 -5 10 299.36 9.48
1 5 -10 289.86 7.46
-6 1 -10 285.15 7.99
1 5 -10 282.49 7.34
5 -6 -13 80.35 12.59
-1 -5 13 60.93 6.93
-6 1 -13 92.7 12.28
-1 -5 13 81.03 4.05
-6 1 -13 73.71 9.58
1 5 -13 74.17 3.78
-1 -5 13 57.12 6.87
-6 1 -16 367.48 17.57
-1 -5 16 384.51 13.36
-5 6 16 355.71 13.88
-6 1 -16 349.27 12.86
1 5 -16 363.07 15.2
-6 1 -19 231.25 13.26
-5 6 19 221.7 21.58
1 5 -19 243.59 9.25
-6 1 -19 217.74 14.67
-5 6 22 14.2 5.95
-5 6 25 19.55 7.96
0 -6 -24 5.08 4.14
-6 6 -24 10.83 3.65
0 -6 -21 12.71 4.74
-6 0 21 9.85 3.42
-6 6 -21 16.24 6.13
0 -6 -18 20.83 6.31
-6 0 18 21.9 8.57
-6 6 -18 24.93 5.73
0 -6 -15 3.83 3.53
-6 0 15 1.7 2.18
6 -6 15 1.77 1.52
-6 6 -15 3.76 3
0 -6 -12 306.18 12.57
6 -6 12 283.24 6.89
-6 0 12 282.73 11.12
-6 6 -12 305.36 10.08
-6 0 12 279.32 6.03
0 -6 -9 868.31 18.92
6 -6 9 877.75 12.4
-6 0 9 874.86 23.39
-6 6 -9 882.87 15.86
0 -6 -6 231.85 6.94
-6 0 6 261.41 7.86
6 -6 6 234.06 4.32
-6 6 -6 245.94 8.75
0 -6 -3 256.86 8.11
0 6 3 266.69 6.97
-6 0 3 253.26 8.45
-6 6 -3 255.03 5.78
6 0 -3 267.75 7.69
6 -6 3 270.84 5.01
-6 0 3 264.61 5.43
6 0 -3 267.32 5.25
-6 6 -3 267.52 6.45
6 -6 3 261.67 7.69
-6 6 0 1.26 0.99
0 -6 0 3.44 3.26
0 6 0 4.16 1.34
-6 0 0 4.35 3.18
6 0 0 4.32 1.96
-6 6 0 3.8 2.61
-6 0 0 5.95 2.1
6 0 0 1.3 1.18
-6 6 0 8.7 2.32
-6 6 3 129.94 4.49
0 -6 3 121.87 4.11
-6 0 -3 125.78 4.47
0 6 -3 134.47 5.44
6 0 3 125.21 7.46
-6 6 3 141.28 4.65
-6 0 -3 142.62 4.72
6 0 3 130.5 4.49
-6 0 -6 486.3 9.54
0 -6 6 484.17 8.57
6 0 6 516.36 12.13
0 6 -6 467.91 8.39
-6 6 6 472.26 10
-6 0 -6 520.1 13.21
0 6 -6 471.12 9.45
-6 0 -9 189.54 8.65
0 -6 9 197.91 8.74
0 6 -9 186.03 5.98
-6 6 9 204.03 7.76
-6 0 -9 191.85 9.79
0 6 -9 185.63 7.62
0 -6 12 43.03 5.54
-6 0 -12 45.69 10.41
0 -6 12 59.71 3.29
-6 6 12 58.55 11.59
-6 0 -12 56.66 8.08
0 6 -12 53.47 5.92
0 -6 12 44.86 5.5
-6 0 -15 236.2 10.48
0 -6 15 203.76 11.15
-6 6 15 194.24 12.01
-6 0 -15 206.49 11.44
0 6 -15 188.29 8.2
-6 0 -18 20.75 7.38
0 -6 18 18.53 6.2
-6 6 18 25.01 6
-6 0 -18 29.78 9.62
0 6 -18 23.26 4.54
-6 0 -21 10.37 4.18
-6 6 21 4.62 3.83
-6 6 24 3.5 4.44
-7 6 23 37.92 13.25
-6 -1 -20 19.79 3.71
-7 6 20 15.89 6.57
-1 7 -20 13.89 5.28
-6 -1 -17 149.58 9.73
-7 6 17 145.03 18.2
-6 -1 -17 154.77 9.29
-1 7 -17 148.58 7.82
1 -7 14 18.83 4.33
-6 -1 -14 25.53 6.31
1 -7 14 23.47 5.6
-7 6 14 25.9 7.57
-6 -1 -14 28.96 7.58
-1 7 -14 23.92 6.47
1 -7 11 439.32 10.82
-6 -1 -11 417.72 12.46
1 -7 11 436.86 10.07
-7 6 11 437.6 14.05
-6 -1 -11 433.41 12.75
-1 7 -11 420.24 12.77
1 -7 8 143.8 7.15
-1 7 -8 142.34 4.39
-7 6 8 156.73 10.41
-6 -1 -8 141.3 9.99
-1 7 -8 143.45 9.04
1 -7 5 1953.41 25.78
-6 -1 -5 1965.57 29.07
-1 7 -5 1970.49 26.03
-7 6 5 1944.76 28.39
-6 -1 -5 1922.6 29.25
-1 7 -5 1929.15 26.35
-7 6 2 53.38 2.9
1 -7 2 52.46 5.91
-1 7 -2 52.04 2.62
-6 -1 -2 57.48 4.53
6 1 2 53.46 4.83
-7 6 2 59.65 4.9
-6 -1 -2 49.18 2.45
6 1 2 50.22 5.75
-7 6 2 52.22 4.09
1 -7 -1 374.12 7.93
-1 7 1 382.36 7.52
-6 -1 1 370.88 11.37
-7 6 -1 362.58 6.92
7 -6 1 361.69 7.3
-6 -1 1 354.31 7.58
6 1 -1 371.54 6.78
-7 6 -1 362.56 8.03
1 -7 -4 0.12 1.72
-7 6 -4 2.92 1.48
-6 -1 4 2.43 2.13
7 -6 4 9.38 2.52
-7 6 -4 2.89 3.34
6 1 -4 1.97 1.06
1 -7 -7 543.54 12.84
-7 6 -7 521.88 8.39
-6 -1 7 525.19 11.41
7 -6 7 517.93 8.73
-7 6 -7 525.9 11.33
1 -7 -10 271.9 15.78
7 -6 10 290.21 7.28
-6 -1 10 320.48 18.39
-7 6 -10 274.51 12.55
-7 6 -13 161.07 6.94
1 -7 -13 153.79 11.2
7 -6 13 140.95 5.75
-6 -1 13 171.51 9.11
-7 6 -13 144.22 14.91
1 -7 -16 111.67 8.26
-6 -1 16 124.44 10.34
-7 6 -16 114.14 14.17
1 -7 -19 49.46 16.34
-6 -1 19 61.8 7.05
-7 6 -19 62.59 15.65
1 -7 -22 27.13 7.51
-6 -1 22 24.99 9.69
-7 6 -22 23.27 9.54
-7 5 24 1.78 2.56
-5 -2 -21 5.4 4.19
-7 5 21 5.03 4.63
-2 7 -21 7.71 2.28
-5 -2 -18 92.98 13.9
-7 5 18 82.04 8.61
-2 7 -18 81.13 8.09
-5 -2 -15 69.98 10.67
2 -7 15 69.97 6.38
-7 5 15 78.2 7.36
-2 7 -15 80.69 6.42
2 -7 12 206.02 6.52
-5 -2 -12 224.19 7.98
2 -7 12 211.61 8.28
-7 5 12 216.45 12.11
-5 -2 -12 227 12.03
-2 7 -12 208.23 8.57
2 -7 9 287.62 5.44
-5 -2 -9 282.6 7.76
2 -7 9 267.75 5.88
-7 5 9 304.97 10.76
-5 -2 -9 300.15 10.02
-2 7 -9 265.12 9.41
-5 -2 -6 87.72 10.4
2 -7 6 89.63 5.03
-2 7 -6 78.87 3.32
-7 5 6 94.21 4.94
-5 -2 -6 93.37 11.54
-2 7 -6 88.43 5.91
2 -7 3 1001.72 14.2
-5 -2 -3 1025.37 16.03
-2 7 -3 1042.6 14.79
5 2 3 972.8 17.79
-7 5 3 1031.91 15.99
7 -5 -3 993.41 15.09
-5 -2 -3 982.23 16.08
5 2 3 1005.72 14.97
-7 5 3 988.89 15.2
2 -7 0 1.39 2.34
-2 7 0 0.68 2.35
-5 -2 0 2.25 1.25
5 2 0 2.88 2.34
-7 5 0 3.31 2.02
7 -5 0 3.68 1.38
-5 -2 0 0.74 0.75
5 2 0 0.68 1.31
-7 5 0 1.97 1.7
7 -5 0 1.03 1.89
2 -7 -3 2.39 1.72
-2 7 3 2.4 2.16
-5 -2 3 0.03 0.98
-7 5 -3 1.21 0.86
5 2 -3 3.2 1.79
7 -5 3 0.85 1
5 2 -3 0.26 0.73
-7 5 -3 1.42 1.77
7 -5 3 1.53 1.51
2 -7 -6 638 15.39
-7 5 -6 651.75 9.89
-5 -2 6 646.36 13.23
7 -5 6 656.99 10.73
-7 5 -6 659.29 12.15
2 -7 -9 607.02 13.01
-7 5 -9 585.92 10.45
7 -5 9 593.52 11.95
-5 -2 9 612.23 11.65
-7 5 -9 602.64 15.6
2 -7 -12 111.14 7.87
-7 5 -12 107.58 5.45
7 -5 12 94.05 6.14
-5 -2 12 100.81 9.64
-7 5 -12 108.64 6.25
2 -7 -15 108.34 14.73
-7 5 -15 98.17 7.22
-5 -2 15 119.79 12.95
-7 5 -15 104.86 7.1
-7 5 -18 4.59 2.8
2 -7 -18 8.44 4.8
-5 -2 18 6.7 5.67
2 -7 -21 4.49 3.79
-5 -2 21 6.21 3.4
-7 5 -21 13.59 3.48
-2 7 24 20.07 7.53
-7 5 -24 20.42 8.54
-7 4 25 5.47 3.13
-4 -3 -22 56.34 16.99
-7 4 22 36.13 16.19
-3 7 -22 56.87 12.27
-4 -3 -19 31.22 8.14
-7 4 19 26.87 4.09
-3 7 -19 18.19 5.14
-4 -3 -16 363.84 13.38
3 -7 16 392 12.2
-7 4 16 401.57 31.71
-3 7 -16 402.28 13.99
-4 -3 -13 23.44 4.18
3 -7 13 16.57 3.28
3 -7 13 20.3 3.25
-7 4 13 24.27 4.89
-7 4 13 16.76 4.45
-3 7 -13 35.29 6.56
-4 -3 -10 104.47 11.19
3 -7 10 92.99 3.66
-7 4 10 112.19 9.85
-3 7 -10 96.98 5.32
-4 -3 -7 4.43 2.73
-7 4 7 13.77 4.02
-3 7 -7 7.5 5.58
3 -7 4 3042.88 38.41
-4 -3 -4 3027.11 40.31
-3 7 -4 3114.46 38.82
-7 4 4 3010.54 41.08
4 3 4 2936.83 38.52
-3 7 -4 3042.52 42.15
-7 4 4 3050.11 39.19
3 -7 1 93.56 3.23
-3 7 -1 90.48 2.93
-4 -3 -1 87.83 4.48
4 3 1 93.3 7.49
-7 4 1 89.05 3.78
7 -4 -1 92.14 4.08
4 3 1 83.84 5.04
-7 4 1 81.18 3.26
7 -4 -1 91.63 2.95
3 -7 -2 1137.87 19.59
-3 7 2 1172.8 14.06
-4 -3 2 1156.33 13.53
4 3 -2 1151.25 13.03
-7 4 -2 1148.2 18.07
7 -4 2 1210.82 17.76
4 3 -2 1149.07 11.57
-7 4 -2 1115.2 16.37
7 -4 2 1130.44 16.32
3 -7 -5 46.3 4.61
-7 4 -5 49.84 3.38
-4 -3 5 43.66 4.5
7 -4 5 44.91 3.43
4 3 -5 39.61 2.73
4 3 -5 42.55 1.99
-7 4 -5 41.56 5.88
3 -7 -8 975.64 17.91
-7 4 -8 943.91 15.08
7 -4 8 961.27 16.4
-4 -3 8 994.27 16.4
-7 4 -8 966.79 18.25
3 -7 -11 155.5 14.47
-7 4 -11 160.8 9.24
7 -4 11 143.94 5.31
-4 -3 11 168.16 13.46
-7 4 -11 168.67 6.92
3 -7 -14 134.29 8.13
-7 4 -14 164.35 6.53
7 -4 14 123.81 7.25
-4 -3 14 160.13 8.63
-7 4 -14 134.64 11
-4 -3 14 141.36 4.8
3 -7 -17 7.07 5.33
-7 4 -17 4.92 1.98
-4 -3 17 8.98 4.08
-7 4 -17 9.05 3.65
3 -7 -20 152.83 15.65
-4 -3 20 156.47 15.31
-7 4 -20 164.63 13.42
-3 7 23 15.81 3.95
-7 4 -23 6.67 2.33
-3 -4 -23 123.26 17.74
-7 3 23 119.34 15.72
-3 -4 -20 4.61 3.02
-7 3 20 1.63 2.78
-4 7 -20 1.74 2.44
-3 -4 -17 232.5 20.24
-7 3 17 226.07 23.47
-4 7 -17 253.57 14.11
-3 -4 -14 303.32 12.62
4 -7 14 284.06 7.31
4 -7 14 307.95 7.6
-7 3 14 356.59 20.55
-7 3 14 309.69 10.21
-4 7 -14 325.72 14.26
-3 -4 -11 267.64 11.52
-7 3 11 266.3 19.77
-7 3 11 252.81 7.34
-4 7 -11 253.21 12.35
-3 -4 -8 394.9 14.19
-7 3 8 451.38 10.35
-4 7 -8 405.88 10.44
-3 -4 -5 4385.37 57.19
-4 7 -5 4342.6 52.94
-4 7 -5 4301.47 56.21
-7 3 5 4223.01 53.23
4 -7 2 67.43 4.5
-4 7 -2 62.47 2.11
-3 -4 -2 74.64 8.11
3 4 2 66.94 5.58
-7 3 2 75.54 5.02
7 -3 -2 60.9 3.15
3 4 2 69.68 2.88
-7 3 2 63.27 3.63
7 -3 -2 63.86 4.15
4 -7 -1 596.95 8.93
-4 7 1 613.32 10.05
-3 -4 1 609.73 10.95
3 4 -1 605.49 8.58
-7 3 -1 586.24 8.34
7 -3 1 606.28 9.3
-7 3 -1 601.27 8.98
4 -7 -4 36.95 8.24
-4 7 4 30.2 4.2
-7 3 -4 35.93 4.77
-3 -4 4 36.32 7.88
7 -3 4 29.61 2.96
3 4 -4 23.25 2.41
-7 3 -4 33.32 4.45
7 -3 4 28.65 3.03
4 -7 -7 1173.74 24.27
-7 3 -7 1193.08 20.74
7 -3 7 1221.64 18.24
-3 -4 7 1226.59 19.42
3 4 -7 1243.41 18.87
-7 3 -7 1262.5 24.03
4 -7 -10 660.78 14.76
-7 3 -10 652.12 14.1
7 -3 10 639.87 13.82
-3 -4 10 671.01 23.02
-7 3 -10 631.53 19.93
4 -7 -13 522.47 21.4
-7 3 -13 570.38 16.79
-3 -4 13 610.83 18.33
3 4 -13 534.69 14.56
-7 3 -13 532.42 23.12
4 -7 -16 9.03 3.48
-7 3 -16 15.1 3.52
-3 -4 16 9.38 3.29
-7 3 -16 9.35 3.78
-7 3 -19 327.8 17.52
-3 -4 19 389.54 15.21
-7 3 -19 396.93 18.94
-4 7 22 2.6 2.37
-7 3 -22 8.9 4.56
-4 7 25 27.2 8.27
-2 -5 -24 9.04 2.8
-7 2 24 8.61 3.69
-5 7 -24 6.21 2.64
-2 -5 -21 25.39 5.25
-7 2 21 27.19 9.38
-5 7 -21 28.06 8.47
-2 -5 -18 91.76 14.05
-7 2 18 97.16 8.74
-5 7 -18 81.55 6.89
-2 -5 -15 266.24 15.21
5 -7 15 259.32 7.61
-7 2 15 268.38 22.17
-5 7 -15 263.2 17.21
-2 -5 -12 2.9 3.4
-7 2 12 1.01 3.34
-7 2 12 0.92 1.09
-5 7 -12 1.21 1.72
-2 -5 -9 1667.35 29.8
-7 2 9 1643.56 28.21
-5 7 -9 1726.58 26.36
-2 -5 -6 1280.67 20.94
-7 2 6 1254.19 19.72
-5 7 -6 1251.26 19.45
-7 2 6 1241.38 16.71
-5 7 -3 655.62 9.93
-2 -5 -3 635.09 11.42
2 5 3 623.15 11.43
-7 2 3 631.45 12.66
7 -2 -3 638.61 11.06
-5 7 -3 629.93 9.72
-7 2 3 626.19 9.24
-5 7 -3 636.86 10.96
7 -2 -3 633.38 10.39
5 -7 0 2.95 2.28
-5 7 0 6.27 1.61
-2 -5 0 15.42 4.2
2 5 0 6.86 2.41
-7 2 0 8.54 2.67
7 -2 0 8.57 1.76
-7 2 0 5.18 2.65
7 -2 0 1.19 2.45
5 -7 -3 385.42 8.63
-5 7 3 383.42 8.19
-2 -5 3 376.5 7.31
-7 2 -3 396.14 10.34
2 5 -3 388.06 8.37
7 -2 3 383.98 8.54
-7 2 -3 385.71 8.28
7 -2 3 382.56 7.38
5 -7 -6 256.91 11.28
-7 2 -6 258.3 12.85
-2 -5 6 281.59 7.47
7 -2 6 250.74 10.57
2 5 -6 266.05 7.83
-7 2 -6 261.8 7.87
2 5 -6 267.9 5.74
5 -7 -9 824.06 20.51
-7 2 -9 795.98 13.92
7 -2 9 779.99 14.17
-2 -5 9 782 13.44
2 5 -9 804.61 12.96
-7 2 -9 788.84 16.34
2 5 -9 786.51 12.86
5 -7 -12 155.79 16.08
-7 2 -12 165.22 8.02
-2 -5 12 176.92 11.95
-7 2 -12 159.17 8.69
2 5 -12 157.89 6.58
5 -7 -15 240.41 14.98
-7 2 -15 254.67 13.58
-2 -5 15 257.8 13.68
2 5 -15 263.64 8.51
-7 2 -15 263.22 17.64
-7 2 -18 204.89 11.02
-2 -5 18 197.87 13.33
-5 7 18 207.68 16.96
-7 2 -18 201.82 17.38
-5 7 21 56.96 14.23
-7 2 -21 51.05 15.01
-5 7 24 2.75 4.73
-1 -6 -22 1.38 3.3
-7 1 22 1.96 2.07
-6 7 -22 1.47 1.81
-1 -6 -19 25.55 7.99
-7 1 19 19.89 6.43
-6 7 -19 20.95 5.07
-1 -6 -16 44.7 11
-7 1 16 39.14 12.05
-6 7 -16 45.22 10.66
-1 -6 -13 110.86 8.59
-7 1 13 119.01 16.62
-6 7 -13 102.5 11.05
-7 1 13 94.45 4.5
-1 -6 -10 304.67 9.13
-7 1 10 327.83 9.15
-7 1 10 298.52 4.91
-6 7 -10 289.07 12.69
-1 -6 -7 67.35 4.76
-7 1 7 82.86 13.11
-7 1 7 68.22 2.12
-6 7 -7 83.41 10.99
-6 7 -4 158.91 3.26
-1 -6 -4 158.87 5.76
-7 1 4 161.17 7.89
-6 7 -4 154.03 3.68
-7 1 4 163.23 3.7
-6 7 -4 173.51 9.93
-6 7 -1 434.37 7.58
-1 -6 -1 440.9 8.52
1 6 1 429.39 12.49
-7 1 1 429.07 12.05
7 -1 -1 425.12 8.05
-6 7 -1 444.29 7.95
-7 1 1 447.15 9.59
7 -1 -1 416.94 7.74
-6 7 -1 442.59 8.81
-6 7 2 1.32 2.01
-1 -6 2 5.09 2.49
1 6 -2 1.45 1.56
-7 1 -2 1.15 2.38
7 -1 2 0.3 1.34
-6 7 2 4.33 2.13
-7 1 -2 3.01 3.14
7 -1 2 3.65 2.82
6 -7 -5 327.97 10.13
-7 1 -5 325.87 7.45
-1 -6 5 335.19 7.64
7 -1 5 320.73 11.94
1 6 -5 335.08 6.41
-7 1 -5 320.08 7.53
6 -7 -8 215.53 7.95
-7 1 -8 203.87 6.69
-1 -6 8 218.54 8.38
1 6 -8 208.88 10.25
-7 1 -8 194.4 13.38
1 6 -8 215.15 6.19
6 -7 -11 5.76 6.08
-7 1 -11 16.67 4.84
-1 -6 11 13.32 3.91
1 6 -11 9.53 2.48
-7 1 -11 7.27 3.55
1 6 -11 13.94 2.89
-7 1 -14 35.71 7.48
-1 -6 14 34.12 7.85
-6 7 14 38.31 4.94
-7 1 -14 42.51 13.25
1 6 -14 29.2 6.73
-7 1 -17 3.57 2.24
-1 -6 17 1.53 1.96
-6 7 17 8.07 3.06
-7 1 -17 1.96 2.08
1 6 -17 0.98 0.68
-7 1 -20 10.73 2.77
-7 1 -20 6.8 4.79
-6 7 23 12.55 6.14
0 -7 -23 55.87 15.4
-7 0 23 50.99 15.66
-7 7 -23 88.91 7.89
0 -7 -20 17.42 6.29
-7 0 20 12.38 3.93
-7 7 -20 15.04 3.81
0 -7 -17 182.41 11.59
-7 0 17 186.25 18.27
-7 7 -17 220.94 11.63
0 -7 -14 65.99 9.04
7 -7 14 64.27 3.05
-7 0 14 78.55 17.91
7 -7 14 63.99 2.86
-7 7 -14 83.4 14.54
0 -7 -11 905.28 25.86
-7 0 11 885.71 22.85
7 -7 11 933.26 17.43
-7 7 -11 944.66 24.71
0 -7 -8 228.1 13.65
-7 0 8 226.66 11.15
7 -7 8 229.44 3.9
-7 7 -8 229.27 9.05
0 -7 -5 77.33 9.23
-7 7 -5 51.47 3.7
-7 0 5 49.88 7.77
7 -7 5 56.19 2.15
-7 0 5 47.16 2.32
-7 7 -5 52.88 4.99
-7 7 -2 113.86 5.31
0 -7 -2 126.86 5.8
0 7 2 115.13 4.46
-7 0 2 111.45 4.88
-7 7 -2 117.09 5.78
-7 0 2 115.23 4.79
7 0 -2 108.88 3.06
-7 7 -2 110.5 6.94
-7 7 1 982.05 16.54
0 -7 1 1028.1 15.55
0 7 -1 1026.94 15.23
-7 0 -1 995.44 15.76
-7 7 1 999.45 16.14
-7 0 -1 966.45 14.56
7 0 1 1025.53 15.02
-7 7 1 973.17 15.21
0 -7 4 779.87 12.79
-7 0 -4 785.64 13.32
0 7 -4 790.68 12.75
-7 7 4 807.36 14.91
-7 0 -4 780.35 15.53
-7 0 -7 673.3 12.9
0 -7 7 676.88 11.91
0 7 -7 696.01 11.21
-7 7 7 675.65 14.63
-7 0 -7 664.59 12.94
0 7 -7 671.52 13.65
-7 0 -10 387.94 16.23
0 -7 10 424 11.42
0 7 -10 426.47 8.32
-7 7 10 403.93 10.78
-7 0 -10 410.97 13.48
0 7 -10 434.81 10.58
0 -7 13 214.48 7.71
-7 0 -13 241.43 10.55
0 -7 13 237.4 9.58
-7 7 13 249.38 16.91
-7 0 -13 227.94 12.21
0 7 -13 228.6 10.79
-7 0 -16 114.57 14.48
0 -7 16 102.89 6.64
-7 7 16 97.76 16.17
-7 0 -16 110.27 11.32
0 7 -16 96.42 4.92
-7 0 -19 58.33 11.18
-7 7 19 44.85 10.7
-7 0 -19 46.47 8.87
-7 7 22 36.38 9.19
-8 7 24 139.87 20.11
-7 -1 -21 9.89 5.41
-8 7 21 9.09 4.31
-7 -1 -18 645.16 27.01
-8 7 18 600.93 32.39
-1 8 -18 655.24 23.9
-7 -1 -15 5.27 3.49
1 -8 15 6.79 2.55
-8 7 15 5.98 5.56
-7 -1 -15 3.61 1.7
-1 8 -15 6.48 2.46
1 -8 12 844.16 22.82
-7 -1 -12 860.96 26.95
1 -8 12 812.51 22.15
-8 7 12 801.75 29.95
-7 -1 -12 823.27 33.69
-1 8 -12 824.4 24.44
-7 -1 -9 1.51 3.26
1 -8 9 1.14 1.4
-1 8 -9 0.41 0.87
-8 7 9 7.35 4.64
-7 -1 -9 1.34 2.8
-1 8 -9 -0.91 1.39
1 -8 6 1388.72 20.78
-1 8 -6 1425.73 20.6
-8 7 6 1396.59 28.42
-7 -1 -6 1386.98 25.89
-1 8 -6 1416.69 21.46
1 -8 3 128.83 4.64
-7 -1 -3 118.15 7.55
-1 8 -3 114.68 4
-8 7 3 135.78 6.01
-7 -1 -3 113.45 7.44
1 -8 0 3785.2 49.42
-1 8 0 3934.7 50.9
-7 -1 0 3842.69 50.67
-8 7 0 3855.26 49.96
8 -7 0 3813.16 50.01
-7 -1 0 3845.99 49.29
7 1 0 3934.26 49.94
-8 7 0 3873.03 51.25
1 -8 -3 115.7 5.37
-7 -1 3 108.49 6.45
-8 7 -3 96.06 3.61
8 -7 3 90.75 4.95
-7 -1 3 100.29 3.57
7 1 -3 96.55 3.48
-8 7 -3 106.31 6.75
1 -8 -6 2331.47 36.33
-8 7 -6 2197.81 29.96
-7 -1 6 2325.91 36.96
8 -7 6 2276.92 31.26
-8 7 -6 2192.27 34.11
1 -8 -9 181.73 13.97
-7 -1 9 232.97 15.54
8 -7 9 197.83 5.04
-8 7 -9 215.03 11.18
1 -8 -12 804.59 27.18
8 -7 12 770.09 20.56
-7 -1 12 783.44 23.31
-8 7 -12 772.17 27.42
1 -8 -15 15.8 6.44
-7 -1 15 4.23 2.69
-8 7 -15 5.54 2.24
1 -8 -18 562.47 22.51
-7 -1 18 552.13 25.04
-8 7 -18 577.18 26.81
1 -8 -21 6.51 5.64
-7 -1 21 14.08 4.12
-8 7 -21 21.69 8.08
1 -8 -24 274.44 20.29
-8 7 -24 210.52 18.1
-6 -2 -22 25.83 7.43
-8 6 22 22.85 8.39
-6 -2 -19 95.44 11.07
-8 6 19 78.18 14.84
-2 8 -19 73.85 6.52
-6 -2 -16 83.14 18.46
-8 6 16 101.76 20.19
-2 8 -16 93.24 8.92
2 -8 13 295.16 8.98
-6 -2 -13 287.19 10.31
2 -8 13 307.93 9.13
-8 6 13 297.85 20.14
-6 -2 -13 324.72 16.35
-2 8 -13 320 14.43
2 -8 10 89.98 4.39
-6 -2 -10 102.57 12.95
2 -8 10 86.11 3.87
-8 6 10 96.9 7.86
-6 -2 -10 97.51 5.05
-2 8 -10 83.18 6.75
-6 -2 -7 570.45 12.22
2 -8 7 579.41 9.88
-2 8 -7 603.75 9.36
-6 -2 -7 603.24 16.05
-2 8 -7 589.27 14.46
2 -8 4 409.47 7.42
-6 -2 -4 408.09 14.27
-2 8 -4 403.05 7.34
-8 6 4 418.46 10.42
-6 -2 -4 402.84 8.8
2 -8 1 434.74 7.96
-2 8 -1 427 8.05
-6 -2 -1 412.8 8.89
-8 6 1 419.16 12.41
8 -6 -1 415.97 10.57
-6 -2 -1 410.52 9.53
6 2 1 431.21 7.7
-8 6 1 394.64 8.72
2 -8 -2 172.55 8.17
-2 8 2 172.41 5.73
-6 -2 2 168.66 6.12
-8 6 -2 162.98 6.97
8 -6 2 168.74 6.43
6 2 -2 167.84 4.65
-8 6 -2 173.29 7.95
2 -8 -5 951.18 21.8
-8 6 -5 912.53 14.27
-6 -2 5 933.53 16.54
8 -6 5 919.41 13.65
-8 6 -5 911.21 16.35
6 2 -5 942.31 12.85
2 -8 -8 52.83 6.62
-8 6 -8 48.68 5.55
-6 -2 8 57.61 9.38
8 -6 8 50.21 3.43
-8 6 -8 54.23 7
2 -8 -11 602.07 16.01
-8 6 -11 591.32 12.29
8 -6 11 575 14.12
-6 -2 11 600.79 17.41
-8 6 -11 597.35 15.15
2 -8 -14 38.41 15.66
-8 6 -14 24.79 4.96
8 -6 14 19.34 3.76
-6 -2 14 35.53 8.85
-8 6 -14 23.27 6.58
2 -8 -17 138.93 22.64
-6 -2 17 157.3 8.81
-8 6 -17 143.21 13.67
2 -8 -20 25.9 10.41
-6 -2 20 27.51 6.7
-8 6 -20 35.8 8.02
2 -8 -23 122.36 23.73
-8 6 -23 110.06 15.19
-5 -3 -23 2.45 2.07
-8 5 23 3.06 2.44
-5 -3 -20 3.1 2.71
-8 5 20 2.97 3.18
-3 8 -20 5 2.88
-5 -3 -17 20.18 5.08
-8 5 17 20.34 5.03
-3 8 -17 23.44 6.22
-5 -3 -14 89.57 10.58
3 -8 14 64.24 2.89
3 -8 14 64.7 3.43
-8 5 14 91.18 9.44
-3 8 -14 78.94 6.79
-5 -3 -11 44.26 11.24
-8 5 11 47.44 6.78
-3 8 -11 35.37 4.64
3 -8 8 22.57 1.8
-5 -3 -8 32.03 8.16
-8 5 8 31.72 4.93
-5 -3 -8 32.56 9.4
-3 8 -8 27.93 6.71
3 -8 5 29.31 1.72
-5 -3 -5 29.36 6.64
-3 8 -5 28.04 3.94
-8 5 5 28.18 3.58
-5 -3 -5 24.5 2.29
-3 8 -5 30.72 3.75
3 -8 2 305.11 8.08
-3 8 -2 318.99 6.13
-5 -3 -2 303.52 7.43
-8 5 2 300.32 7.57
8 -5 -2 308.07 6.47
5 3 2 297.03 7.45
-8 5 2 298.86 7.07
3 -8 -1 -0.02 2.12
-3 8 1 1.2 1.67
-5 -3 1 1.61 1.62
5 3 -1 2.23 2.62
-8 5 -1 1.41 1.43
8 -5 1 1.4 1.4
5 3 -1 3.9 0.85
-8 5 -1 -1.32 2.03
8 -5 1 0.28 2.12
3 -8 -4 127.1 7.66
-8 5 -4 133.18 5.22
-5 -3 4 136.84 5.37
8 -5 4 133.52 5.2
5 3 -4 137.63 3.32
-8 5 -4 143.18 6.81
3 -8 -7 3.64 3.58
-8 5 -7 1.05 2.25
-5 -3 7 3.02 1.93
8 -5 7 6.14 1.31
-8 5 -7 7.26 3.22
3 -8 -10 146.66 9.36
-8 5 -10 149.72 7.93
8 -5 10 145.87 7.61
-5 -3 10 155.04 12.79
-8 5 -10 149.47 11.57
3 -8 -13 41.43 11.99
-8 5 -13 24.2 7.13
8 -5 13 18.23 4.68
-5 -3 13 26.74 5.33
-8 5 -13 41.7 8.41
3 -8 -16 24.88 9.04
-8 5 -16 13.46 2.9
-5 -3 16 23.27 5.35
-8 5 -16 20.53 7.5
3 -8 -19 4.64 3.87
-5 -3 19 3.33 2.21
-8 5 -19 1.84 2.66
3 -8 -22 45.4 16.54
-8 5 -22 36.86 9.43
-4 -4 -24 7.67 4.08
-8 4 24 10.14 3.74
-4 -4 -21 1.61 2.95
-8 4 21 3.06 1.91
-4 8 -21 0.97 1.32
-4 -4 -18 8.79 3.44
-8 4 18 3.87 3.36
-4 8 -18 3.06 2.19
-4 -4 -15 147.21 13.35
-8 4 15 137.8 13.91
-4 8 -15 164.77 11.96
-4 -4 -12 37.04 8.7
-8 4 12 37.18 11.27
-8 4 12 35.67 3.64
-4 8 -12 44.06 9.68
-4 -4 -9 19.1 7.2
-8 4 9 21.44 3.26
-4 8 -9 26.54 6.71
-4 -4 -6 394.27 9.12
-4 8 -6 401.36 5.63
-8 4 6 386.18 13.12
-4 8 -6 390.22 12.01
-8 4 6 396.39 8.47
4 -8 3 216.64 4.84
-4 8 -3 229.7 5.31
-4 -4 -3 216.88 9.68
4 4 3 218.89 7.1
-8 4 3 232.54 6.63
-4 8 -3 229.1 6.51
4 -8 0 -0.38 1.98
-4 8 0 0.55 1.41
-4 -4 0 2.02 3.69
4 4 0 6.73 2.38
-8 4 0 6.18 2.1
4 4 0 1.49 0.9
-8 4 0 0.09 2.22
8 -4 0 1.27 2.08
4 -8 -3 4.61 3.56
-4 8 3 6.02 2.16
-4 -4 3 2.88 1.61
-8 4 -3 14.19 3.22
4 4 -3 7.83 2.98
8 -4 3 8.1 2.66
-8 4 -3 8.2 1.91
8 -4 3 8.63 2.47
4 -8 -6 80.94 7.6
-8 4 -6 60.29 7.38
-4 -4 6 80.87 6.38
8 -4 6 67.85 4.67
4 4 -6 70.97 5.08
-8 4 -6 83.17 12.12
4 -8 -9 355.28 14.86
-8 4 -9 359.53 9.09
8 -4 9 350.06 11.5
-4 -4 9 376.26 9.64
4 4 -9 361.08 5.12
-8 4 -9 341.8 15.45
4 -8 -12 106.67 13.66
-8 4 -12 108.11 6.96
8 -4 12 87.86 8.3
-4 -4 12 119.26 10.19
-8 4 -12 109.59 14.89
4 -8 -15 6.18 5.4
-8 4 -15 2.81 2.49
-4 -4 15 3.64 2.52
-8 4 -15 1.25 2.35
4 -8 -18 21.31 11.65
-8 4 -18 22.43 5.78
-4 -4 18 31.38 8.22
-8 4 -18 31.51 10.38
-8 4 -21 16.26 6.85
-4 8 24 5.97 2.7
-8 4 -24 2.28 3.21
-3 -5 -22 28.79 7.13
-8 3 22 20.25 8.34
-5 8 -22 25.42 8.08
-3 -5 -19 102.71 10.27
-8 3 19 99.12 16.19
-5 8 -19 115.93 7.77
-3 -5 -16 33.94 13.06
-8 3 16 45.33 9.67
-5 8 -16 48.6 13.09
-3 -5 -13 49.22 6.55
-8 3 13 33.78 8.23
-8 3 13 27.73 4.12
-5 8 -13 39.79 4.74
-3 -5 -10 142.63 13.37
-8 3 10 173.02 11.12
-5 8 -10 171.52 5.78
-3 -5 -7 128.92 7.58
-8 3 7 155.36 15.57
-5 8 -7 125.14 6.59
-8 3 7 132.87 4.59
-5 8 -4 1255.14 16.65
-8 3 4 1265.6 21.45
-5 8 -4 1275.99 20.86
5 -8 1 82.14 4.95
-5 8 -1 75.52 5.23
-3 -5 -1 72.65 4.67
3 5 1 71.24 4.23
-8 3 1 73.8 4
8 -3 -1 65.77 4.21
-8 3 1 71.96 3.37
8 -3 -1 72.36 7.13
5 -8 -2 26.63 8.7
-5 8 2 21.75 4.91
-3 -5 2 32.39 7.15
3 5 -2 23.2 2.46
-8 3 -2 36.06 7.62
8 -3 2 20.91 2.06
-8 3 -2 26.21 7.77
8 -3 2 27.52 7.84
5 -8 -5 517.78 11.39
-8 3 -5 525.06 11.03
-3 -5 5 547.72 10.14
8 -3 5 552.27 10.32
3 5 -5 522.39 10.62
-8 3 -5 504.9 12.3
5 -8 -8 57.12 8.59
-8 3 -8 49.66 7.55
8 -3 8 54.76 5.42
-3 -5 8 47.74 6.72
3 5 -8 51.31 5.35
-8 3 -8 43.52 9.38
3 5 -8 46.98 3.2
5 -8 -11 41.28 11.12
-8 3 -11 37.52 6.99
-3 -5 11 35.41 7.38
-8 3 -11 32.92 12.03
3 5 -11 33.48 3.23
5 -8 -14 120.5 18.79
-8 3 -14 130.21 6.64
-3 -5 14 137.15 11.01
3 5 -14 129.35 5.07
-8 3 -14 124.87 13.32
5 -8 -17 123.48 17.88
-8 3 -17 146.77 7.9
-3 -5 17 128.79 12.97
-8 3 -17 161.48 9.8
-5 8 20 65.17 8.29
-8 3 -20 50.04 16.17
-5 8 23 15.96 5.57
-8 3 -23 17.28 4.86
-2 -6 -23 4.38 3.27
-8 2 23 4.21 2.38
-6 8 -23 2.03 2.27
-2 -6 -20 11.24 5.81
-8 2 20 12.89 3.78
-6 8 -20 16.49 4.71
-2 -6 -17 -0.53 2.06
-8 2 17 5.67 3.92
-6 8 -17 7.76 3.69
-2 -6 -14 5.81 5.17
-8 2 14 9.93 5.89
-6 8 -14 8.88 3.32
-2 -6 -11 70.67 18.14
-8 2 11 97.23 11.01
-8 2 11 69.2 4.06
-6 8 -11 85.88 12.41
-2 -6 -8 260.96 12.72
-6 8 -8 236.56 7.05
-8 2 8 229.92 4.68
-6 8 -5 8.66 2.79
-2 -6 -5 15.64 4.61
-8 2 5 5.82 4.78
-8 2 5 12.66 2.49
-6 8 -5 16.55 3.26
-6 8 -2 99.37 3.05
-2 -6 -2 99.55 4.4
-8 2 2 91.94 7.17
-6 8 -2 99.28 3.18
-8 2 2 90.51 4.24
8 -2 -2 101.39 3.06
-6 8 -2 90.62 7.92
6 -8 -1 34.01 3.17
-6 8 1 32.11 2.28
-2 -6 1 41.31 8.54
2 6 -1 32.71 2.77
-8 2 -1 33.24 8.99
8 -2 1 29.54 4.35
-8 2 -1 32.05 4.83
8 -2 1 29.7 4.74
6 -8 -4 242.11 6.74
-2 -6 4 241.27 6.04
-8 2 -4 224.66 6.67
2 6 -4 239.94 6.78
8 -2 4 242.16 6.29
-8 2 -4 247.05 7.49
6 -8 -7 2.78 2.78
-8 2 -7 1.15 1.28
-2 -6 7 0.19 2.12
8 -2 7 0.82 1.08
2 6 -7 -0.58 1.07
-8 2 -7 0.91 0.86
2 6 -7 -0.03 0.98
6 -8 -10 20.91 5.11
-8 2 -10 14.6 3.49
-2 -6 10 15.03 3.46
2 6 -10 13.84 3.9
-8 2 -10 20.47 4.39
2 6 -10 15.1 3.44
6 -8 -13 9.45 4.67
-8 2 -13 15.38 4.7
-2 -6 13 19.75 3.24
-8 2 -13 18.31 8.14
2 6 -13 23.44 3.85
-8 2 -16 73.07 13.27
-2 -6 16 57.92 4.91
-6 8 16 70.75 15.03
2 6 -16 67.73 4.08
-8 2 -16 73 11.98
-8 2 -19 10 2.01
-6 8 19 24.36 3.67
-8 2 -19 6.57 4.86
-6 8 22 5.87 4.77
-8 2 -22 7.32 3.71
-1 -7 -24 29.93 11.26
-8 1 24 29.88 9.13
-7 8 -24 33.31 8.88
-1 -7 -21 2.95 1.75
-8 1 21 0.02 1.76
-7 8 -21 1.25 4.31
-1 -7 -18 5.33 4.78
-8 1 18 25.14 7.44
-7 8 -18 25.03 5.08
-1 -7 -15 6.5 4.46
-8 1 15 -2.98 2.82
-7 8 -15 4.02 2.28
-1 -7 -12 275.01 18.37
-8 1 12 299.74 15.34
-7 8 -12 282.18 10.34
-1 -7 -9 121.09 12.55
-8 1 9 140.86 14.27
-7 8 -9 131.34 7.67
-7 8 -6 472.58 7.38
-1 -7 -6 445.75 10.76
-8 1 6 467.12 11.88
-8 1 6 478.32 7.7
-7 8 -6 452.33 9.94
-7 8 -3 56.34 3.95
-1 -7 -3 61.97 6.28
-8 1 3 64.42 9.44
-7 8 -3 52.48 2.55
-8 1 3 60.55 3.74
8 -1 -3 47.32 4.12
-7 8 -3 56.12 6.8
-7 8 0 410.36 7.89
-1 -7 0 421.38 8.51
1 7 0 402.46 8.74
-8 1 0 413.81 9.89
-7 8 0 419.58 10.31
-8 1 0 417.49 7.93
8 -1 0 389.74 9.93
-7 8 0 425.94 10.37
-1 -7 3 39.84 4.11
-8 1 -3 50.22 6.08
1 7 -3 44.18 2.87
-7 8 3 46.99 3.56
-8 1 -3 34.84 3.56
-8 1 -6 68.37 10.3
-1 -7 6 73.5 8.48
1 7 -6 70.85 5.85
-8 1 -6 67.11 4.86
1 7 -6 63.68 4.96
-8 1 -9 51.89 7.04
-1 -7 9 48.7 5.21
1 7 -9 52.92 5.34
-8 1 -9 47.76 6.6
1 7 -9 52.25 5.23
-8 1 -12 488.01 17.86
-1 -7 12 499.95 18.11
1 7 -12 460.64 13.78
-7 8 12 460.12 21.45
-8 1 -12 477.78 15.56
1 7 -12 525.23 15.31
-8 1 -15 1.18 1.2
-1 -7 15 1.48 0.94
-7 8 15 4.13 2.92
-8 1 -15 2.89 2.78
1 7 -15 1.72 2.01
-8 1 -18 42.18 8.74
-7 8 18 54.59 15.3
-8 1 -18 54.21 7.54
-8 1 -21 4.53 2.08
-7 8 21 3.73 3.18
-8 1 -21 2.65 2.86
-7 8 24 33.04 11.88
0 -8 -22 87.48 16.92
-8 0 22 95.89 10.51
-8 8 -22 118.92 15.54
0 -8 -19 126.39 13.45
-8 0 19 135.79 13.6
-8 8 -19 118.48 18.19
0 -8 -16 47.43 12.07
-8 0 16 46.26 12.02
-8 8 -16 66.22 10.23
0 -8 -13 627.3 19.25
-8 0 13 589.52 23.6
-8 8 -13 570.77 28.12
0 -8 -10 766.75 25.24
-8 0 10 813.55 19.7
-8 8 -10 807.52 19.65
0 -8 -7 1462.05 24.62
-8 0 7 1461.51 26.94
-8 8 -7 1480.09 26.16
-8 8 -4 595.67 9.56
0 -8 -4 582.98 17.14
-8 0 4 574.81 14.47
-8 8 -4 587.13 9.62
-8 0 4 592.08 9.25
-8 8 -4 625.83 14.01
8 0 -4 558.15 9.88
-8 8 -1 1260.35 18.69
0 -8 -1 1225.94 18.83
-8 0 1 1250.89 19.95
-8 8 -1 1246.25 17.99
-8 0 1 1237.07 18.15
8 0 -1 1257.51 18.17
-8 8 -1 1252.31 24.74
0 -8 2 509.19 9.84
0 8 -2 549.33 12.36
-8 0 -2 523.57 10.55
-8 8 2 533.76 15.47
-8 0 -2 544.12 10.08
8 0 2 522.81 10.81
0 -8 5 419.02 10.32
-8 0 -5 400.93 12.11
0 8 -5 428.02 7.96
-8 8 5 411.26 9.86
-8 0 -5 402.27 9.44
-8 0 -8 163.11 10
0 -8 8 158.75 8.11
0 8 -8 157.92 7.98
-8 8 8 207.52 18.33
-8 0 -8 170.95 7.34
0 8 -8 159.19 9.79
-8 0 -11 1108.51 30.93
0 -8 11 1101.13 29.73
0 8 -11 1097.05 28.86
-8 8 11 1150.2 33.12
-8 0 -11 1138.65 33.6
0 8 -11 1085.08 31.07
-8 0 -14 140.93 13.53
0 -8 14 150.37 8.68
-8 8 14 165.11 12.61
-8 0 -14 140.28 17.96
0 8 -14 150.95 6.68
-8 0 -17 462.8 23.03
-8 8 17 446.17 35.87
-8 0 -17 484.09 27.21
0 8 -17 473.97 19.54
-8 0 -20 22.95 5.95
-8 8 20 19.49 6.61
-8 8 23 90.47 11.41
-8 -1 -22 57.07 17.09
-9 8 22 53.03 19.25
-8 -1 -19 257.81 14.37
-9 8 19 235.79 28.44
-8 -1 -16 199.18 15.43
-9 8 16 243.02 24.78
-8 -1 -16 231.23 15.02
-1 9 -16 244.57 13.52
-8 -1 -13 664.44 24.73
1 -9 13 683.69 21.83
-9 8 13 667.6 28.87
-8 -1 -13 640.13 27.39
-1 9 -13 703.7 21.67
-8 -1 -10 435.5 13.31
1 -9 10 429.88 14.45
-1 9 -10 436.75 10.61
-9 8 10 458.14 19.23
-8 -1 -10 473.7 14.81
-8 -1 -7 1172.51 22.45
1 -9 7 1179.8 18.93
-9 8 7 1173.24 21.37
-8 -1 -7 1182.49 27.72
-1 9 -7 1176.33 21.14
1 -9 4 553.79 11.39
-1 9 -4 543.18 10.09
-9 8 4 528.86 16.55
-8 -1 -4 500.12 14.96
1 -9 1 4454.43 162.04
-1 9 -1 4655.41 169.37
-8 -1 -1 4490.71 163.43
-9 8 1 4461.1 162.49
-8 -1 -1 4347.99 60.21
8 1 1 4384.35 59.68
-9 8 1 4393.71 61.62
1 -9 -2 34.08 9.95
-8 -1 2 27.74 3.67
-9 8 -2 33.2 5.18
9 -8 2 34.78 2.25
-8 -1 2 39.73 6.76
8 1 -2 24.73 4.04
-9 8 -2 39.31 3.72
1 -9 -5 1240.06 23.15
-9 8 -5 1276.14 19.29
-8 -1 5 1278.33 23.09
9 -8 5 1316.1 19.45
-9 8 -5 1335.24 22.42
8 1 -5 1300.04 17.87
1 -9 -8 329.48 9.82
-9 8 -8 302.06 6.74
-8 -1 8 313.02 9.63
9 -8 8 309.25 7.06
-9 8 -8 295.87 13.27
1 -9 -11 757.98 26.75
-8 -1 11 763.28 25.41
9 -8 11 761.07 19.72
-9 8 -11 765.9 24.72
1 -9 -14 404.32 23.73
-8 -1 14 471.33 20.77
-9 8 -14 478.49 18.06
1 -9 -17 608.34 32.27
-8 -1 17 665.34 27.34
-9 8 -17 714.16 27.69
1 -9 -20 6.37 2.55
-8 -1 20 5.21 3.07
-9 8 -20 6.01 4.14
1 -9 -23 195.15 27.41
-9 8 -23 211.63 18.91
-7 -2 -23 150.03 15.33
-9 7 23 175.47 17.28
-7 -2 -20 9.39 3.46
-9 7 20 11.83 4.66
-7 -2 -17 467.18 18.77
-9 7 17 449.76 31.46
-2 9 -17 495.34 21.89
-7 -2 -14 183.17 9.91
2 -9 14 164.34 6.48
-9 7 14 194.67 19.87
-7 -2 -14 175.43 15.42
-2 9 -14 184.74 8.05
2 -9 11 382.77 11.61
-7 -2 -11 389.14 17.89
2 -9 11 391.34 12.41
-9 7 11 394.93 28.67
-7 -2 -11 395.28 14.95
-2 9 -11 419.05 13.71
-7 -2 -8 186.14 9.17
2 -9 8 199.13 7.28
-2 9 -8 203.05 5.01
-9 7 8 187.36 11.97
-7 -2 -8 191.57 6.87
-2 9 -8 192.02 6.42
2 -9 5 1411.08 20.97
-7 -2 -5 1445.53 23.65
-2 9 -5 1456.98 21.05
-9 7 5 1437.07 23.72
-7 -2 -5 1425.13 22.66
-2 9 -5 1440.04 22.22
2 -9 2 448.24 8.83
-2 9 -2 447.11 9.47
-7 -2 -2 450.53 14.73
-9 7 2 426.47 9.42
-7 -2 -2 417.92 11.13
-9 7 2 436.48 10.4
2 -9 -1 1827.95 30.32
-7 -2 1 1853.51 29.14
-9 7 -1 1842.4 28.03
9 -7 1 1879.21 27.02
-7 -2 1 1794.71 25.72
-9 7 -1 1854.03 27.78
2 -9 -4 503.89 12.09
-7 -2 4 512.69 13.13
9 -7 4 498.29 10.64
7 2 -4 501.21 8.61
-9 7 -4 486.24 13.28
2 -9 -7 1001.03 21.2
-9 7 -7 998.78 15.01
-7 -2 7 997.55 18.58
9 -7 7 1007.55 15.12
-9 7 -7 1018.28 18.46
2 -9 -10 232.72 11.8
-9 7 -10 212.93 7.8
-7 -2 10 259.18 21.25
9 -7 10 220.66 8.12
-9 7 -10 233.94 13.11
2 -9 -13 453.74 24.44
-9 7 -13 498.2 13.04
-7 -2 13 518.11 16.12
-9 7 -13 523.91 26.76
2 -9 -16 191.67 13.5
-7 -2 16 176.33 8.32
-9 7 -16 180.54 10.32
2 -9 -19 239.05 10.69
-7 -2 19 174.91 15
-9 7 -19 192.4 15.8
2 -9 -22 84.93 26.97
-7 -2 22 90.48 11.36
-9 7 -22 91.81 18.5
-6 -3 -24 40.66 11.16
-9 6 24 34.36 13.64
-6 -3 -21 13.67 4.01
-9 6 21 12.21 5.14
-6 -3 -18 30.99 5.68
-9 6 18 27.26 6.48
-3 9 -18 23.01 9.5
-6 -3 -15 32.47 8.78
-9 6 15 36.69 9.75
-3 9 -15 32.29 9.33
-6 -3 -12 158.56 8.76
-9 6 12 172.21 12.25
-3 9 -12 170.25 9.44
3 -9 9 86.4 3.85
-6 -3 -9 92.8 6.99
-9 6 9 97.73 8.43
-6 -3 -9 100.31 6.08
-3 9 -9 90.56 6.28
3 -9 6 661.48 10.76
-6 -3 -6 637.28 13.61
-3 9 -6 638.3 10.08
-9 6 6 664.93 18.23
-6 -3 -6 633.3 12.43
-3 9 -6 613.24 14.76
3 -9 3 20.65 3.72
-3 9 -3 14.54 4.14
-6 -3 -3 21.51 5.68
-9 6 3 21.83 5.55
-9 6 3 15.02 3.74
3 -9 0 637.61 11.01
-6 -3 0 643.2 12.18
-9 6 0 659.32 12.49
9 -6 0 652.19 11.01
6 3 0 656.92 11.27
-9 6 0 658.36 12.65
3 -9 -3 72.41 6.34
-6 -3 3 63.85 10.18
-9 6 -3 65.08 3.99
9 -6 3 72.72 4.59
6 3 -3 69.8 3.56
-9 6 -3 90.27 6.07
3 -9 -6 183.89 9.42
-9 6 -6 190.33 5.77
-6 -3 6 193.59 9.55
9 -6 6 192.05 5.54
-9 6 -6 185.51 7.08
6 3 -6 186.25 3.83
3 -9 -9 194.88 8.71
-9 6 -9 177.76 7.56
-6 -3 9 171.8 12.78
9 -6 9 166.6 9
-9 6 -9 187.28 9.22
3 -9 -12 544.07 18.34
-9 6 -12 553.61 15.63
-6 -3 12 571.89 20.25
-9 6 -12 558.29 25.53
3 -9 -15 16.85 6.99
-9 6 -15 11.24 3.08
-6 -3 15 15.6 4.25
-9 6 -15 12.92 4.56
3 -9 -18 67.19 18.87
-6 -3 18 60.66 7.12
-9 6 -18 47.87 11.48
3 -9 -21 1.85 1.72
-6 -3 21 2.59 1.77
-9 6 -21 6.09 3.69
-9 6 -24 24.89 11.16
-5 -4 -22 24.47 7.1
-9 5 22 22.88 10.45
-5 -4 -19 39.96 7.96
-9 5 19 44.12 4.52
-4 9 -19 38.75 10.82
-5 -4 -16 41.4 5.47
-9 5 16 45.7 10.11
-4 9 -16 52.85 9.44
-5 -4 -13 1.33 4.65
-9 5 13 7.06 3.68
-4 9 -13 2.54 2.05
-5 -4 -10 92.99 7.7
-9 5 10 78.64 5.74
-4 9 -10 93.57 5.87
4 -9 7 69.29 2.84
-5 -4 -7 67.96 8.99
-4 9 -7 68.64 3
-9 5 7 76.34 6.89
-4 9 -7 61.99 4.28
4 -9 4 21.69 3.89
-5 -4 -4 20.85 3.53
-4 9 -4 15.56 3.21
-9 5 4 23.6 5.8
-9 5 4 21.92 4.57
-4 9 -4 20.26 3.08
4 -9 1 311.87 6.71
-4 9 -1 320.37 9.43
-5 -4 -1 315.83 11.03
-9 5 1 313.64 8.35
5 4 1 330.96 7.28
-9 5 1 324.29 10.23
9 -5 -1 311.46 11.04
4 -9 -2 1446.44 22.49
-4 9 2 1433.48 21.08
-5 -4 2 1425.45 21.3
-9 5 -2 1404.45 21.95
9 -5 2 1396.25 20.28
5 4 -2 1477.84 21.18
-9 5 -2 1453.77 21.66
4 -9 -5 5.36 4.21
-9 5 -5 6.02 2.26
-5 -4 5 2.74 1.77
9 -5 5 0.88 1.05
5 4 -5 4.25 1.3
-9 5 -5 5.05 2.67
4 -9 -8 28.65 13.77
-9 5 -8 18.69 3.19
-5 -4 8 33.87 8.77
9 -5 8 23.43 3.47
-9 5 -8 24.45 9.17
4 -9 -11 6.1 3.47
-9 5 -11 1.19 1.92
9 -5 11 0.64 1.47
-5 -4 11 1.89 3.82
-9 5 -11 3.5 3.42
4 -9 -14 1.49 4.78
-9 5 -14 -0.28 2.21
-5 -4 14 -0.27 2.38
-9 5 -14 2.9 2.78
4 -9 -17 89.7 22.7
-9 5 -17 79.88 4.43
-5 -4 17 82.08 12.72
-9 5 -17 79.4 12.27
4 -9 -20 28.5 9.23
-5 -4 20 24.82 8.16
-9 5 -20 27.36 9.76
-4 9 23 8.38 3.5
-9 5 -23 2.52 1.87
-4 -5 -23 4.67 3.33
-9 4 23 12.07 5.72
-4 -5 -20 156.51 13.67
-9 4 20 131.52 13.84
-5 9 -20 154.81 11.29
-4 -5 -17 18.47 7.15
-9 4 17 23.66 6.55
-5 9 -17 19.58 4.94
-4 -5 -14 203.98 16.89
-9 4 14 194.34 16.39
-5 9 -14 203.33 11.86
-4 -5 -11 4.36 1.69
-9 4 11 5.19 3.15
-5 9 -11 0.88 2.63
-4 -5 -8 456.19 17.8
-9 4 8 464.65 11.18
-5 9 -8 491.21 11.64
-9 4 8 477.5 8.86
5 -9 5 92.2 2.91
-4 -5 -5 101.2 5.99
-5 9 -5 96.77 3.49
-9 4 5 103.77 5.51
-9 4 5 94.1 4.3
-5 9 -5 110.94 6
5 -9 2 842.14 12.62
-5 9 -2 860.4 13.3
-4 -5 -2 820.49 14.35
-9 4 2 803.83 16.89
-9 4 2 793.49 13.47
9 -4 -2 823.43 12.57
5 -9 -1 36.6 9.47
-5 9 1 32.57 4.53
-4 -5 1 42.59 9.84
-9 4 -1 42.89 7.5
9 -4 1 38.49 3.97
-9 4 -1 50.28 5.82
9 -4 1 27.74 2.76
5 -9 -4 1820.34 28.85
-4 -5 4 1891.85 29.38
-9 4 -4 1911.33 28.08
9 -4 4 1875.81 27.18
-9 4 -4 1954.52 29.37
5 -9 -7 9.6 11.76
-9 4 -7 23.53 4.18
-4 -5 7 24.8 4.74
9 -4 7 19.25 5.08
-9 4 -7 27.41 9.44
5 -9 -10 99.4 8.09
-9 4 -10 76.29 9.54
9 -4 10 67.91 6.7
-4 -5 10 76.77 10.05
4 5 -10 79.25 2.1
-9 4 -10 78.08 8.66
5 -9 -13 28.04 6.18
-9 4 -13 22.88 6.5
-4 -5 13 22.84 4.94
-9 4 -13 25.52 6.1
5 -9 -16 270.3 19.21
-9 4 -16 288.1 14.05
-4 -5 16 312.14 14.44
-9 4 -16 298.46 18.91
5 -9 -19 0.45 1.77
-4 -5 19 2.39 2.91
-9 4 -19 0.73 2.68
-5 9 22 45.44 13.24
-9 4 -22 65.47 11.79
-3 -6 -24 22.44 9.71
-9 3 24 12.01 4.54
-3 -6 -21 21.96 8.51
-9 3 21 26.06 8.11
-6 9 -21 20.26 4.53
-3 -6 -18 96.47 13.72
-9 3 18 70.81 14.96
-6 9 -18 134.62 7.33
-3 -6 -15 118.02 15.1
-9 3 15 112.74 22.83
-6 9 -15 113.4 6.22
-3 -6 -12 139.62 10.89
-9 3 12 159.4 13.52
-9 3 12 137.25 5.01
-6 9 -12 142.04 8.09
-3 -6 -9 406.1 21.52
-9 3 9 396.08 11.48
-6 9 -9 413.76 9.99
-9 3 9 401.3 8.87
-3 -6 -6 65.4 13.63
-6 9 -6 54.98 2.09
-6 9 -6 51.45 1.87
-9 3 6 66.22 11.58
-9 3 6 59.23 3.54
-6 9 -6 61.72 7.86
-6 9 -3 83.14 4.27
-3 -6 -3 93.3 8.38
-9 3 3 89.65 5.47
-6 9 -3 75.49 2.92
-9 3 3 78.03 5.21
-6 9 -3 90.34 4.87
9 -3 -3 69.51 2.89
6 -9 0 578.53 13.38
-6 9 0 586.55 14.3
-3 -6 0 566.23 13.16
-9 3 0 579.17 10.93
-9 3 0 538.87 9.37
9 -3 0 552.7 9.56
6 -9 -3 845.35 18.22
-3 -6 3 841.93 16.39
-9 3 -3 822.46 14.33
-9 3 -3 822.87 14.25
6 -9 -6 13.33 4.84
-9 3 -6 17.81 4.41
-3 -6 6 17.98 4.85
9 -3 6 13.93 3.75
3 6 -6 15.24 3.94
-9 3 -6 13.33 3.23
6 -9 -9 215.9 8.57
-9 3 -9 210.94 7.93
-3 -6 9 207.3 6.69
-9 3 -9 202.41 10.75
3 6 -9 210.68 7.64
6 -9 -12 61.86 15.56
-9 3 -12 73.29 10.53
-3 -6 12 61.77 5.94
-9 3 -12 68.68 15.34
3 6 -12 55.34 3.8
6 -9 -15 239.95 14.63
-9 3 -15 238.42 12.64
-3 -6 15 237.68 13.35
3 6 -15 234.99 9.32
-9 3 -15 239.2 14.54
-9 3 -18 25.45 6.1
-3 -6 18 21.74 6.15
-6 9 18 21.24 5.35
-9 3 -18 23.89 8.22
-6 9 21 30.75 11.02
-9 3 -21 36.13 11.76
-6 9 24 4.26 2.45
-9 3 -24 6.61 4.85
-2 -7 -22 7.92 5.63
-9 2 22 18.78 6.1
-7 9 -22 14.29 6.68
-2 -7 -19 61.73 13.88
-9 2 19 44.25 15.48
-7 9 -19 58.04 11.25
-2 -7 -16 182.18 14.61
-9 2 16 167.74 19.18
-7 9 -16 190.59 12.04
-2 -7 -13 24.06 6.72
-9 2 13 24.36 5.84
-9 2 13 16.07 2.1
-7 9 -13 32.87 6.43
-9 2 13 14.18 3.08
-2 -7 -10 48.22 16.25
-9 2 10 57.03 13.74
-9 2 10 41.96 2.77
-7 9 -10 57.72 10.77
-9 2 10 37.66 2.07
-2 -7 -7 11.93 5.28
-9 2 7 5.58 2.06
-9 2 7 10.57 1.98
-7 9 -7 8.59 4.64
-7 9 -4 46.17 2.41
-2 -7 -4 57.33 12.97
-9 2 4 53.8 10.77
-7 9 -4 47.48 4.02
-9 2 4 42.38 3.41
-7 9 -4 59.26 11.01
-7 9 -1 210.84 7.85
-2 -7 -1 208.7 8.98
-9 2 1 222.78 7.55
-7 9 -1 227.65 6.47
-9 2 1 211.07 6.13
9 -2 -1 239.07 6.47
-7 9 -1 231.24 8.43
7 -9 -2 720.24 15.1
-2 -7 2 754.55 15
-9 2 -2 709.71 13.93
-9 2 -2 746.05 16.6
7 -9 -5 6.43 2.78
-2 -7 5 4.5 3.98
-9 2 -5 2.33 2.85
2 7 -5 1.5 2.08
-9 2 -5 1.37 2.92
7 -9 -8 292.2 10.04
-9 2 -8 294.4 7.6
-2 -7 8 307.15 12.28
2 7 -8 314.9 10.58
-9 2 -8 296.44 13.26
2 7 -8 332.1 8.05
7 -9 -11 89.46 11.32
-9 2 -11 94.71 13.23
-2 -7 11 101.34 5.11
-9 2 -11 90.63 10.1
2 7 -11 92.07 5.29
-9 2 -14 16.91 4.46
-2 -7 14 13.6 4.43
-9 2 -14 19.35 5.57
2 7 -14 18.71 3.74
-9 2 -17 46.62 12.69
-2 -7 17 42.61 5.55
-7 9 17 34.45 12.34
-9 2 -17 51.28 7.91
-9 2 -20 36.5 7.95
-7 9 20 24.73 12.61
-9 2 -20 42.31 12.41
-7 9 23 0.19 3.37
-9 2 -23 -0.56 2.14
-1 -8 -23 64.07 20.15
-9 1 23 85.64 10.89
-8 9 -23 59.91 14.87
-1 -8 -20 5.26 2.44
-9 1 20 5.33 2.3
-8 9 -20 8.85 2.12
-1 -8 -17 26.09 9.6
-9 1 17 36.34 8.06
-8 9 -17 40.65 10.73
-1 -8 -14 108.01 17.37
-9 1 14 101.98 10.16
-8 9 -14 96.42 12.54
-1 -8 -11 166.88 20.32
-9 1 11 176.86 10.31
-8 9 -11 173.9 11.5
-1 -8 -8 -1.47 3.1
-9 1 8 -1.18 2.61
-9 1 8 0.89 0.31
-8 9 -8 8.81 2.83
-8 9 -5 553.41 8.95
-1 -8 -5 550.43 12.05
-9 1 5 555.02 13.38
-8 9 -5 541.64 8.94
-9 1 5 578.69 9.17
-8 9 -2 72.18 4.93
-1 -8 -2 77.13 6.38
-9 1 2 64.17 10.9
-8 9 -2 63.96 4.91
-9 1 2 67.89 6.25
9 -1 -2 66.34 3.17
-8 9 -2 72.28 4.73
-8 9 1 419.68 10.18
-1 -8 1 451.59 11.09
-9 1 -1 426.44 10.74
-8 9 1 422.68 9.26
-9 1 -1 433.58 12.28
9 -1 1 436.13 8.79
-1 -8 4 11.79 4.14
-9 1 -4 10.47 5.68
1 8 -4 23.59 2.88
-8 9 4 7.4 3.01
-9 1 -4 11.88 7.05
-9 1 -7 35.81 8.96
-1 -8 7 53.63 8.44
1 8 -7 42.48 6.93
-8 9 7 55.09 5.47
-9 1 -7 52.24 12.6
1 8 -7 44.36 5.6
-9 1 -10 202.32 10.44
-1 -8 10 204.53 9.8
1 8 -10 197.71 7.39
-8 9 10 213.09 12.87
-9 1 -10 205.63 10.79
1 8 -10 204.9 6.42
-9 1 -13 116.85 5.46
-1 -8 13 130.09 10.08
-8 9 13 116.89 14.5
-9 1 -13 148.95 7.88
1 8 -13 121.65 6.8
-9 1 -16 6.43 2.42
-1 -8 16 7.49 1.65
-8 9 16 14.02 5.33
-9 1 -16 4.39 4.56
1 8 -16 7.11 2.05
-9 1 -19 87.68 8.54
-8 9 19 66.25 8.69
-9 1 -19 74.43 9.37
-8 9 22 9.86 4.67
0 -9 -21 5.04 4.91
-9 0 21 4.28 3.31
-9 9 -21 20.98 4.89
0 -9 -18 186.33 9.45
-9 0 18 174.82 16.94
-9 9 -18 195.44 13.29
0 -9 -15 49.25 12.88
-9 0 15 40.07 9.63
-9 9 -15 54.25 10.6
0 -9 -12 723.25 35.56
-9 0 12 744.35 22.82
-9 9 -12 750.34 33.04
-9 9 -9 0.13 0.26
0 -9 -9 -0.89 3.26
-9 9 -9 0.1 0.17
-9 0 9 3.3 2.78
-9 9 -9 6.93 5.48
-9 9 -6 1081.59 15.8
0 -9 -6 1087.76 20.51
-9 9 -6 1091.6 15.86
-9 0 6 1079.99 22.86
-9 0 6 1099.28 15.48
-9 9 -6 1079.26 18.91
-9 9 -3 4.89 1.58
0 -9 -3 4.25 3.11
-9 0 3 3.68 3.86
-9 9 -3 3.45 1.84
-9 0 3 9.55 1.98
9 0 -3 0.8 1.69
-9 9 -3 4.13 2.25
-9 9 0 1434.66 23.4
0 -9 0 1439.82 22.9
-9 0 0 1527.55 24.54
-9 9 0 1509.35 23.61
-9 0 0 1493.01 22.9
9 0 0 1479.45 22.45
-9 9 0 1474.37 29.8
0 -9 3 18.02 5
-9 0 -3 8.23 6.58
0 9 -3 15.83 3.3
-9 9 3 18.03 4.68
-9 0 -3 23.3 8.7
0 -9 6 659.36 12.16
-9 0 -6 636.54 13.59
0 9 -6 665.65 11.26
-9 9 6 653.78 13.65
-9 0 -6 644.62 17.88
-9 0 -9 152.73 8.83
0 -9 9 154.1 11.16
0 9 -9 149.09 6.29
-9 9 9 163.31 16.29
-9 0 -9 141.63 12.1
0 9 -9 141.48 8.54
-9 0 -12 573.33 17.69
0 -9 12 549.6 20.27
0 9 -12 558.24 14.6
-9 9 12 561.69 22.63
-9 0 -12 579.24 19.87
0 9 -12 590.04 16.21
-9 0 -15 4.28 2.8
0 -9 15 0.97 0.97
-9 9 15 5.05 1.52
-9 0 -15 3.37 2
0 9 -15 5.89 2.42
-9 0 -18 181.97 7.53
-9 9 18 193.62 19.5
-9 0 -18 200.62 11.54
-9 0 -21 1.24 2.79
-9 9 21 4.81 2.39
-10 9 23 139.26 22.82
-9 -1 -20 25.86 7.12
-10 9 20 25.24 7.16
-9 -1 -17 113.13 19.29
-10 9 17 103.76 20.2
-9 -1 -17 90.5 10.72
-1 10 -17 105.72 8.58
-9 -1 -14 96.13 7.63
1 -10 14 87.25 4.66
-10 9 14 96.07 7.6
-9 -1 -14 92.25 17.82
-1 10 -14 99.55 6.48
-9 -1 -11 569.82 17
1 -10 11 600.11 18.41
-1 10 -11 579.12 15.52
-10 9 11 602.23 25.92
-9 -1 -11 574.71 28.34
-1 10 -11 633.73 17.6
-9 -1 -8 7.6 4.1
1 -10 8 11.17 2.27
-1 10 -8 12.27 2.21
-10 9 8 13.92 4.4
-9 -1 -8 7.88 3.85
-1 10 -8 11.17 2.62
1 -10 5 859.1 17.43
-9 -1 -5 790.06 15.35
-1 10 -5 827.52 13.8
-10 9 5 822.54 17.26
-9 -1 -5 786.24 19.53
1 -10 2 371.58 15.13
-9 -1 -2 405.93 10.59
-10 9 2 382.88 18.49
-9 -1 -2 372.18 17.9
-10 9 2 382.84 16.06
1 -10 -1 1225.3 21.3
-9 -1 1 1152.16 21.56
-10 9 -1 1205.17 21.04
-9 -1 1 1203.83 18.58
9 1 -1 1167.47 18.54
-10 9 -1 1184.65 20.2
1 -10 -4 210.85 7.4
-9 -1 4 180.21 9.82
-10 9 -4 185.97 7.61
10 -9 4 189.71 4.98
-9 -1 4 193.59 4.23
9 1 -4 183.71 5.82
-10 9 -4 191.35 7.47
1 -10 -7 248.31 12.03
-10 9 -7 235.86 7.85
-9 -1 7 245.36 9.87
10 -9 7 235.3 6.78
-10 9 -7 246.65 11.42
1 -10 -10 167.15 11.23
-9 -1 10 170.07 14.77
10 -9 10 170.28 5.27
-10 9 -10 154.61 17.19
1 -10 -13 569.18 21.77
-9 -1 13 594.72 21.67
-10 9 -13 573.67 26.02
-9 -1 16 100.63 12.09
-10 9 -16 105.85 7.51
1 -10 -19 77.49 19.63
-9 -1 19 75.95 18.88
-10 9 -19 93.41 12.15
1 -10 -22 38.15 12.36
-9 -1 22 41.09 10.68
-10 9 -22 40.93 8.7
-8 -2 -21 24.21 5.22
-10 8 21 7.59 5.09
-8 -2 -18 277.59 12.09
-10 8 18 267.49 21.29
-2 10 -18 269.83 10.72
-8 -2 -15 1.38 2.8
-10 8 15 1.41 2.99
-8 -2 -15 8.95 3.37
-2 10 -15 0.52 2.19
2 -10 12 929.1 22.04
-8 -2 -12 966.04 25.86
2 -10 12 939.09 22.28
-10 8 12 955.87 26.67
-8 -2 -12 961.93 26.26
-2 10 -12 992.44 26.02
-8 -2 -9 15.49 4.78
2 -10 9 11.36 1.72
-2 10 -9 12.85 2.37
-10 8 9 11.82 4.85
-8 -2 -9 19.66 6.4
-2 10 -9 10.13 2.39
2 -10 6 884.94 14.06
-8 -2 -6 846.12 16.37
-2 10 -6 884.34 13.83
-10 8 6 850.06 15.93
-8 -2 -6 877.04 16.44
-2 10 -6 886.47 16.8
2 -10 3 97.45 4.46
-8 -2 -3 95.8 5.92
-2 10 -3 103.09 5.25
-10 8 3 103.34 5.58
-8 -2 -3 86.76 8.9
-10 8 3 107.37 6.02
2 -10 0 3001.33 45.48
-8 -2 0 2787.05 45.31
-10 8 0 2759.98 39.59
-8 -2 0 2911.02 41.84
8 2 0 2949.16 41.02
-10 8 0 2895.22 41.7
2 -10 -3 72.01 7.16
-8 -2 3 77.16 6.88
-10 8 -3 79.17 6.12
10 -8 3 76.4 4.26
8 2 -3 74.39 3.44
-10 8 -3 80.29 8.13
2 -10 -6 1394.99 26.63
-10 8 -6 1425.68 21.43
-8 -2 6 1421.59 23.65
10 -8 6 1422.91 21.08
-10 8 -6 1437.3 26.35
8 2 -6 1435.82 19.04
2 -10 -9 67.68 10.42
-10 8 -9 57.52 6.08
-8 -2 9 65.06 12.5
10 -8 9 58.12 4.55
-10 8 -9 81.06 10.52
2 -10 -12 327.9 18.29
-8 -2 12 355.67 25.89
10 -8 12 314.3 8.97
-10 8 -12 338.21 12.11
2 -10 -15 1.55 2.37
-8 -2 15 3.93 1.78
-10 8 -15 3.21 2.22
2 -10 -18 327.19 21.45
-8 -2 18 318.79 18.2
-10 8 -18 330.45 18.43
2 -10 -21 4.81 5.12
-8 -2 21 3.41 2.38
-10 8 -21 3.84 4.02
-7 -3 -22 86.35 18.92
-10 7 22 91.06 8.64
-7 -3 -19 51.31 8.21
-10 7 19 28.63 9.6
-3 10 -19 41.15 9.61
-7 -3 -16 74.89 17.37
-10 7 16 77.43 16.15
-3 10 -16 81.15 6.55
-7 -3 -13 239.48 16.69
-10 7 13 246.79 22.18
-3 10 -13 220.77 9.74
3 -10 10 52.94 2.35
-7 -3 -10 40.22 9.85
-10 7 10 62.47 13.42
-7 -3 -10 64.45 9
-3 10 -10 59.41 4.49
3 -10 7 192.24 5.85
-7 -3 -7 191.84 7.55
-3 10 -7 193.56 5.36
-10 7 7 187.49 14.08
-7 -3 -7 194.8 7.18
-3 10 -7 194.97 7.43
3 -10 4 175.72 5.44
-7 -3 -4 158.2 7.64
-3 10 -4 161.25 8.24
-10 7 4 170.44 8.47
-7 -3 -4 150.92 7.49
-10 7 4 165.6 11.31
3 -10 1 516.56 11.77
-3 10 -1 546.72 12.41
-7 -3 -1 525.92 11.06
-10 7 1 539.06 12.13
7 3 1 538.5 11.13
-10 7 1 509.89 14.54
3 -10 -2 528.48 15.86
-7 -3 2 495.56 11.22
-10 7 -2 508.74 9.73
10 -7 2 524.09 10.66
7 3 -2 505.39 10.75
-10 7 -2 497.68 14.11
3 -10 -5 534.74 11.8
-10 7 -5 535 11.57
-7 -3 5 547.16 13.11
10 -7 5 526 10.96
7 3 -5 536.82 8.34
-10 7 -5 556.52 16.88
3 -10 -8 141.13 7.59
-10 7 -8 119.48 6.52
-7 -3 8 142.53 12.7
10 -7 8 121.8 5.4
-10 7 -8 126.14 6.08
3 -10 -11 245.24 10.47
-10 7 -11 216.33 7.92
-7 -3 11 265.27 19.66
10 -7 11 211.47 9.62
-10 7 -11 236.89 13.44
3 -10 -14 25.47 7.46
-10 7 -14 14.09 3.79
-7 -3 14 18.18 5.63
-10 7 -14 22 7.95
3 -10 -17 121.22 10.84
-7 -3 17 91.82 18.81
-10 7 -17 129.65 23.65
3 -10 -20 25.64 7.79
-7 -3 20 17.18 5.2
-10 7 -20 27.04 5.59
3 -10 -23 52.68 17.54
-10 7 -23 68.34 24.61
-6 -4 -23 30.36 12.19
-10 6 23 82.15 7.64
-6 -4 -20 4.98 3.68
-10 6 20 12 5.74
-6 -4 -17 0.67 1.66
-10 6 17 6.6 2.63
-4 10 -17 1.73 2.54
-6 -4 -14 6.34 2.95
-10 6 14 3.31 3.23
-4 10 -14 5.23 2.08
-6 -4 -11 63.69 14.18
-10 6 11 55.02 12.07
-4 10 -11 51.38 8.01
4 -10 8 154.93 3.62
-6 -4 -8 156.95 10.96
-10 6 8 163.59 9.14
-4 10 -8 163.68 3.37
-4 10 -8 145.72 6.7
4 -10 5 29.83 2.11
-6 -4 -5 36.63 6.66
-4 10 -5 29.19 3.28
-10 6 5 31.39 8.14
-10 6 5 28.59 7.16
-4 10 -5 29.13 3.83
4 -10 2 11.26 2.58
-4 10 -2 8.97 2.99
-6 -4 -2 15.62 4.82
-10 6 2 15.46 3.04
-10 6 2 11.23 2.19
4 -10 -1 433.12 14.87
-6 -4 1 425.78 11.23
-10 6 -1 407.03 8.96
6 4 -1 419.67 10.22
-10 6 -1 413.78 9.14
4 -10 -4 9.75 3.82
-6 -4 4 7.87 4.87
-10 6 -4 2.71 3.02
10 -6 4 1.24 1.62
6 4 -4 4.05 1.15
-10 6 -4 6.63 3.26
4 -10 -7 3.62 4.58
-10 6 -7 3.2 0.8
-6 -4 7 3.66 1.89
10 -6 7 4.85 2.37
-10 6 -7 4.33 2.99
6 4 -7 3.82 0.86
6 4 -7 3.87 0.59
4 -10 -10 37.67 9.42
-10 6 -10 40.23 5.59
-6 -4 10 41.35 4.75
10 -6 10 32.08 3.88
-10 6 -10 36.18 4.1
4 -10 -13 18.85 7.08
-10 6 -13 5.74 2.51
10 -6 13 11.14 3.16
-6 -4 13 14.66 3.81
-10 6 -13 13.93 8.96
4 -10 -16 144.68 18.64
-10 6 -16 136.32 10.85
-6 -4 16 139.68 16.24
-10 6 -16 123.96 18.94
4 -10 -19 40.06 9.86
-6 -4 19 52.53 6.5
-10 6 -19 31.84 7.61
4 -10 -22 1.54 3.55
-10 6 -22 5.85 3.35
-5 -5 -21 117.68 15.7
-10 5 21 112.05 12.69
-5 10 -21 107.57 14.11
-5 -5 -18 184.03 10.23
-10 5 18 171.58 24.35
-5 10 -18 168.87 7.55
-5 -5 -15 282.53 12.62
-10 5 15 277.24 19
-5 10 -15 293.11 13.68
-5 -5 -12 3.03 3.19
-10 5 12 4.33 2.83
-5 10 -12 0.44 1.38
-5 -5 -9 465.87 13.49
-10 5 9 468.96 18.5
-5 10 -9 435.99 13.01
-10 5 9 460.11 12.26
5 -10 6 229.81 5.02
-5 -5 -6 235.55 9.52
-5 10 -6 230.55 4.81
-10 5 6 237.89 7.37
-5 10 -6 236.73 10.11
-10 5 6 224.69 8.89
5 -10 3 654.62 10.89
-5 10 -3 691.67 11.73
-5 -5 -3 646.98 13.66
-10 5 3 613.7 16.41
-10 5 3 649.6 11.98
5 -10 0 513.32 10.46
-5 10 0 512.66 9.63
-5 -5 0 523.2 11.02
-10 5 0 539.81 14.85
5 5 0 539.19 10.61
-10 5 0 518.84 13.34
5 -10 -3 2360 36.76
-5 -5 3 2381.84 35.48
5 5 -3 2315.52 32.98
-10 5 -3 2316.5 34.16
5 -10 -6 56.67 5.69
-10 5 -6 56.94 5.31
-5 -5 6 51.63 7.92
10 -5 6 52.02 4.3
5 5 -6 59.59 3.49
-10 5 -6 53.82 7.3
5 -10 -9 202.45 8.53
-10 5 -9 202.16 9.27
-5 -5 9 217.08 9.6
10 -5 9 194.81 8.34
-10 5 -9 206.34 18.92
5 -10 -12 66.26 10.88
-10 5 -12 41.5 6.07
-5 -5 12 55.27 6.27
-10 5 -12 58.13 13.54
5 -10 -15 375.79 15.62
-10 5 -15 379.36 13.45
-5 -5 15 361.75 25.31
-10 5 -15 340.45 18.78
5 -10 -18 39.43 13.74
-5 -5 18 33.8 10.49
-10 5 -18 52.95 11.51
-10 5 -21 146.9 10.93
-4 -6 -22 7.43 5
-10 4 22 11.28 3.64
-6 10 -22 4.73 4.62
-4 -6 -19 318.54 14.77
-10 4 19 326.37 16.33
-6 10 -19 316.29 14.63
-4 -6 -16 30.53 7.35
-10 4 16 38.03 8.12
-6 10 -16 30.76 10.08
-4 -6 -13 535.25 22.54
-10 4 13 480.28 21.8
-6 10 -13 498.5 25.38
-4 -6 -10 86.31 9.8
-10 4 10 76.45 14.47
-6 10 -10 99.95 5.88
-10 4 10 76.29 4.59
-4 -6 -7 1320.8 25.23
-10 4 7 1362.45 26.54
-6 10 -7 1315.83 22.53
-10 4 7 1250.82 19.12
-6 10 -4 577.48 9.91
-4 -6 -4 565.47 18.35
-10 4 4 561.45 15.99
-10 4 4 541.02 13.14
-6 10 -4 579.09 15.8
6 -10 1 1668.02 25.15
-6 10 -1 1681.43 25.77
-4 -6 -1 1606.39 25.19
-10 4 1 1627.43 26.98
-10 4 1 1650.72 24.56
10 -4 -1 1668.03 24.63
6 -10 -2 156.34 7.19
-4 -6 2 161.06 8.83
-10 4 -2 144.28 10.63
-10 4 -2 145.99 5.64
6 -10 -5 1281.62 23.58
-4 -6 5 1258.95 22.93
-10 4 -5 1270.87 20.56
-10 4 -5 1247.33 23.55
6 -10 -8 37.53 8.55
-10 4 -8 30.25 8.18
-4 -6 8 36.35 6.05
-10 4 -8 38.84 9.42
4 6 -8 34.17 2.34
6 -10 -11 585.31 29.35
-10 4 -11 720.4 21.84
-4 -6 11 695.67 24.08
-10 4 -11 639.17 26.57
6 -10 -14 343.99 21.68
-10 4 -14 380.25 15.4
-4 -6 14 368.56 22.97
-10 4 -14 436.23 16.12
6 -10 -17 179.65 20.01
-10 4 -17 174.81 9.83
-4 -6 17 178.7 16.5
-10 4 -17 173.41 21.92
-6 10 20 127.65 13.02
-10 4 -20 93.02 25.88
-6 10 23 70.29 10.12
-10 4 -23 69.55 13.52
-3 -7 -23 6.84 4.12
-10 3 23 4.75 3.53
-7 10 -23 7.82 4.44
-3 -7 -20 193.78 8.01
-10 3 20 158.96 10.46
-7 10 -20 215.2 9.21
-3 -7 -17 10.51 9.76
-10 3 17 10.21 3.87
-7 10 -17 13.14 3.57
-3 -7 -14 377.36 18.14
-10 3 14 362.92 14.87
-7 10 -14 345.13 19.41
-3 -7 -11 13.54 9.47
-10 3 11 31.74 8.02
-7 10 -11 24.73 4.19
-10 3 11 19.63 3.54
-3 -7 -8 741.47 18.54
-10 3 8 796 19.13
-10 3 8 721.27 15.88
-7 10 -8 744.13 17.21
-7 10 -5 0.49 0.86
-3 -7 -5 2.31 3.59
-10 3 5 2.02 2.34
-7 10 -5 -0.01 0.7
-10 3 5 0.88 1.39
-7 10 -5 2.31 2.67
-7 10 -2 1293.45 21.19
-3 -7 -2 1254.14 20.38
-10 3 2 1264.1 25.79
-7 10 -2 1251.31 20.04
-10 3 2 1219.31 20.36
10 -3 -2 1275.95 19.17
-7 10 -2 1268.67 21.01
7 -10 -1 -0.49 1.88
-7 10 1 0.62 1
-3 -7 1 0.19 1.79
-10 3 -1 -0.83 2.9
-10 3 -1 2.08 2.25
7 -10 -4 813.08 17.07
-3 -7 4 862.6 17.85
-10 3 -4 815.79 19.29
-10 3 -4 822.39 15.02
7 -10 -7 50.08 5.87
-10 3 -7 45.07 8.01
-3 -7 7 57.49 10.99
-10 3 -7 50.79 11.82
3 7 -7 51.44 3.97
7 -10 -10 383.37 23.57
-10 3 -10 357.85 15.43
-3 -7 10 376.77 17.86
-10 3 -10 392.22 13.51
3 7 -10 374.54 12.07
7 -10 -13 2.39 2.87
-10 3 -13 6.4 1.74
-3 -7 13 3.69 2.16
-10 3 -13 -0.02 2.95
3 7 -13 1.29 0.88
-10 3 -16 491.02 21.04
-3 -7 16 510.42 21.5
-10 3 -16 468.21 25.76
-10 3 -19 8.47 3.17
-7 10 19 7.31 3.3
-10 3 -19 17.37 4.16
-7 10 22 99.29 14.91
-10 3 -22 107.17 20.89
-2 -8 -21 29.11 8.99
-10 2 21 22.51 6.17
-8 10 -21 33.41 6.45
-2 -8 -18 2.71 5.21
-10 2 18 13.73 3.79
-8 10 -18 7.4 2.96
-2 -8 -15 150.66 20.47
-10 2 15 172.5 25.52
-8 10 -15 154.99 12.36
-2 -8 -12 25.45 10.41
-10 2 12 37.21 6.55
-8 10 -12 23.47 6.5
-2 -8 -9 221.89 12.6
-10 2 9 198.26 16.02
-10 2 9 207.72 5.19
-8 10 -9 218.52 11.47
-8 10 -6 18.05 2.38
-2 -8 -6 15.52 4.16
-10 2 6 30.87 8.9
-10 2 6 23.28 3.28
-8 10 -6 20.25 4.49
-8 10 -3 273.44 7.02
-2 -8 -3 257.28 8.65
-10 2 3 275.44 8.82
-8 10 -3 276.7 6.98
-10 2 3 259.5 6.67
-8 10 -3 264.21 8.95
10 -2 -3 265.55 6.87
-8 10 0 10.96 5.57
-2 -8 0 9.91 6.23
-10 2 0 23.33 5.07
-8 10 0 17.72 4.19
-10 2 0 20.81 4.7
10 -2 0 10.53 3.73
-8 10 0 12.06 5.86
-2 -8 3 432.92 14.26
-10 2 -3 416.92 17.53
-8 10 3 434.48 12.22
-10 2 -3 420.73 12.61
-10 2 -6 6.69 4.05
-2 -8 6 9.84 3.01
-10 2 -6 4.23 5.03
-10 2 -9 211.86 11.48
-2 -8 9 210.24 14.39
-10 2 -9 207.91 9.14
2 8 -9 185.32 7.11
-10 2 -12 4.89 2.52
-2 -8 12 1.52 2.13
-8 10 12 4.81 4.94
-10 2 -12 4.62 4.28
2 8 -12 2.76 1.99
-10 2 -15 176.15 9.06
-2 -8 15 190.11 12.21
-8 10 15 204.45 25.25
-10 2 -15 179.62 7.52
2 8 -15 179.88 4.45
-10 2 -18 1.05 1.23
-8 10 18 -0.6 3.79
-10 2 -18 2.94 2.62
-8 10 21 17.2 6.2
-10 2 -21 22.89 6.86
-1 -9 -22 25.8 7.04
-10 1 22 27.99 11.74
-9 10 -22 38.16 9.34
-1 -9 -19 60.39 19.67
-10 1 19 54.83 14.12
-9 10 -19 62.12 12
-1 -9 -16 10.64 4.9
-10 1 16 5.81 4.24
-9 10 -16 5 3.46
-1 -9 -13 9.95 3.44
-10 1 13 10.62 5.53
-9 10 -13 16.51 5.24
-1 -9 -10 2.35 3.95
-10 1 10 9.78 6.34
-9 10 -10 11.25 3.51
-9 10 -7 22.69 2.69
-1 -9 -7 26.73 8.24
-10 1 7 32.06 6.2
-10 1 7 26.91 3.44
-9 10 -7 29.33 8.08
-9 10 -4 152.05 6.47
-1 -9 -4 160.66 15.08
-10 1 4 158.62 8.58
-9 10 -4 156.52 7.26
-10 1 4 173.9 4.99
-9 10 -4 153.26 9.09
10 -1 -4 163.6 6.91
-9 10 -1 378.39 15.11
-1 -9 -1 366.25 15.32
-10 1 1 366.04 17.82
-9 10 -1 415.77 8.73
-10 1 1 392.86 12.29
10 -1 -1 380.01 15.06
-9 10 -1 373.35 16.07
-1 -9 2 22.8 6.32
-10 1 -2 31.76 7.85
-9 10 2 26.54 8.91
-10 1 -2 25.98 6.4
-1 -9 5 227.53 10.77
-10 1 -5 193.47 11.95
-9 10 5 203.19 7.41
-10 1 -5 197.08 12.34
-10 1 -8 45.42 11.27
-1 -9 8 54.63 8.54
1 9 -8 43.85 3.24
-9 10 8 56.82 10.3
-10 1 -8 43.76 4.83
1 9 -8 46.31 7.35
-10 1 -11 4.77 3.25
-1 -9 11 1.85 2.23
1 9 -11 1.63 1.73
-9 10 11 3.48 5.06
-10 1 -11 0.15 2.5
1 9 -11 0.64 1.36
-10 1 -14 65.63 10.45
-1 -9 14 87.71 5.37
-9 10 14 89.25 7.26
-10 1 -14 77.14 11.84
1 9 -14 75.88 6.46
-10 1 -17 8.29 3.59
-9 10 17 14.29 4.89
-10 1 -17 6.66 4.81
-10 1 -20 5.5 2.9
-9 10 20 6.06 4.31
-10 1 -20 2.08 2.97
-9 10 23 29.85 8.74
0 -10 -23 30.77 8.37
-10 0 23 25.12 9.17
-10 10 -23 21.49 4.85
0 -10 -20 34.24 12.85
-10 0 20 31.19 10.27
-10 10 -20 38.31 8.64
0 -10 -17 5.54 2.56
-10 0 17 1.67 2.51
-10 10 -17 6.87 2.67
0 -10 -14 36.03 6.28
-10 0 14 32.55 6.77
-10 10 -14 40.14 9.6
0 -10 -11 298.02 11.8
-10 0 11 355.52 12.68
-10 10 -11 309.18 17.31
-10 10 -8 32.77 2.13
0 -10 -8 36.54 10.4
-10 0 8 41.47 10.29
-10 10 -8 27.6 7.28
-10 10 -5 107.19 6.07
0 -10 -5 105.22 8.66
-10 0 5 124.83 12.67
-10 10 -5 109.35 6.5
-10 0 5 117.33 5.88
-10 10 -5 116.39 10.25
10 0 -5 106.59 6.17
-10 10 -2 820.13 15.24
0 -10 -2 780.58 15.01
-10 10 -2 789.07 14.09
-10 0 2 797.42 13.82
10 0 -2 787.72 12.51
-10 10 -2 795.17 16.45
0 -10 1 16.69 4.92
-10 0 -1 22.64 5.78
-10 10 1 21.71 4.32
-10 0 -1 18.05 4.92
-10 10 1 17.09 2.86
0 -10 4 56.58 4.45
-10 0 -4 65.22 14.6
-10 10 4 61.41 5.36
-10 0 -4 54.75 4.42
0 -10 7 21.31 6.01
-10 0 -7 20.33 5.3
0 10 -7 14.05 4.86
-10 10 7 24.04 5.87
-10 0 -7 11.08 8.83
0 10 -7 22.33 4.9
-10 0 -10 85.05 12.76
0 -10 10 96.96 8.82
0 10 -10 93.82 6
-10 10 10 101.73 8.13
-10 0 -10 101.9 8.77
0 10 -10 110.92 7.11
-10 0 -13 142.13 16.07
0 -10 13 146.29 8.99
-10 10 13 131.7 11.79
-10 0 -13 141.68 21.87
0 10 -13 157.46 6.78
-10 0 -16 41.2 10.71
-10 10 16 24.37 13.7
-10 0 -16 47.55 14.58
0 10 -16 42.38 7.75
-10 0 -19 2.33 2.95
-10 10 19 0.37 2.36
-10 0 -19 2.97 2.31
-10 10 22 43.4 17.64
-10 -1 -21 25.89 4.82
-11 10 21 22.78 8.69
-10 -1 -18 3.17 1.68
-11 10 18 10.3 5.13
-10 -1 -18 3.64 6.52
-10 -1 -15 50.66 11.2
-11 10 15 49.33 10.88
-10 -1 -15 46.95 14.82
-1 11 -15 43.86 9.07
-10 -1 -12 41.49 9.13
1 -11 12 30.48 6.06
-11 10 12 45.43 10.02
-10 -1 -12 46.31 12.94
-1 11 -12 38.49 6.99
-10 -1 -9 82.81 13.15
1 -11 9 85.61 5.63
-1 11 -9 80.07 4.49
-11 10 9 95.56 9.85
-10 -1 -9 94.24 12.88
-1 11 -9 80.2 5.34
1 -11 6 6.37 2.85
-10 -1 -6 6.2 4.94
-1 11 -6 1.61 1.72
-11 10 6 1.04 2.62
-10 -1 -6 3.08 2.51
1 -11 3 3.79 3.62
-10 -1 -3 6.13 4.13
-11 10 3 5.48 2.24
-10 -1 -3 4.46 1.61
-11 10 3 6.03 3.49
1 -11 0 209.57 9.22
-10 -1 0 213.56 10.5
-11 10 0 198.59 10.45
-10 -1 0 206.32 9.92
-11 10 0 225.05 12.26
-11 10 -3 15.92 4.49
1 -11 -3 8.59 5.1
-10 -1 3 13.01 4.89
-11 10 -3 14.95 3.92
-10 -1 3 12.78 3.17
10 1 -3 13.17 3.06
-11 10 -3 20.09 8.59
1 -11 -6 6.23 3.85
-11 10 -6 11.83 2.97
-10 -1 6 9.59 3.84
-11 10 -6 10.5 3.47
10 1 -6 2.82 1.3
1 -11 -9 53.38 14.07
-10 -1 9 53.77 10.26
-11 10 -9 47.29 8.18
1 -11 -12 141.42 25.16
-10 -1 12 133.19 11.55
-11 10 -12 116.91 16.04
1 -11 -15 54.06 9.86
-10 -1 15 52.76 7.71
-11 10 -15 71.35 14.85
1 -11 -18 38.44 12.4
-10 -1 18 31.79 10.64
-11 10 -18 48.04 11.18
1 -11 -21 5.13 3.83
-10 -1 21 1.96 1.56
-11 10 -21 2.77 1.53
-9 -2 -22 33.61 11.46
-11 9 22 42.23 13.5
-9 -2 -19 82.85 13.5
-11 9 19 92.65 11.03
-9 -2 -16 19.08 7.97
-11 9 16 25.84 7.13
-2 11 -16 22.72 6.23
-9 -2 -13 130.72 7.9
-11 9 13 155.06 10.34
-9 -2 -13 143.21 11.98
-2 11 -13 137.51 7.29
-9 -2 -10 38.44 9.36
2 -11 10 38.53 7.16
-2 11 -10 34.45 3.99
-11 9 10 41.68 16.26
-9 -2 -10 42.51 11.5
-2 11 -10 48.11 9.36
2 -11 7 20.4 3.59
-9 -2 -7 19.36 5.2
-2 11 -7 17.58 2.83
-11 9 7 26.01 6.62
-9 -2 -7 17.31 5.34
-2 11 -7 15.54 3.69
2 -11 4 164.49 10.38
-9 -2 -4 190.67 10.28
-2 11 -4 170.48 5.45
-11 9 4 182.83 13.27
-9 -2 -4 194.78 11.85
-11 9 4 181.38 7.59
2 -11 1 592.31 11.59
-9 -2 -1 602.36 12.93
-11 9 1 579.75 12.35
-9 -2 -1 590.78 11.62
-11 9 1 534.46 16.68
2 -11 -2 133.98 10.1
-9 -2 2 150.01 8.61
-11 9 -2 154.05 7.64
9 2 -2 142.84 7.76
-11 9 -2 163.43 11.2
2 -11 -5 349.25 13.53
-9 -2 5 376.12 13.76
-11 9 -5 361.92 7.58
11 -9 5 358.29 7.71
-11 9 -5 395.76 13.89
9 2 -5 351.31 6.52
2 -11 -8 308.03 16.23
-11 9 -8 287.99 9.43
11 -9 8 305.61 9.72
-11 9 -8 317.34 14.23
-11 9 -11 6.18 1.83
-9 -2 11 7.55 4.48
11 -9 11 6.08 1.65
-11 9 -11 11.15 7.31
2 -11 -14 138.7 13.21
-9 -2 14 141.93 13.85
-11 9 -14 126.68 14.38
2 -11 -17 132.44 26.59
-9 -2 17 149.25 20.41
-11 9 -17 147.9 8.85
2 -11 -20 2.92 2.94
-9 -2 20 0.78 1.79
-11 9 -20 0.86 2
2 -11 -23 61.21 12.25
-11 9 -23 48.14 16.24
-8 -3 -23 35.59 9.73
-11 8 23 27.88 9.99
-8 -3 -20 18.62 5.43
-11 8 20 10.68 6.73
-8 -3 -17 13.97 4.52
-11 8 17 8.7 5.91
-3 11 -17 13.02 2.76
-8 -3 -14 37.14 9.18
-11 8 14 48.87 13.25
-3 11 -14 41.76 9.01
3 -11 11 176.61 5.69
-8 -3 -11 192.07 9.17
-11 8 11 186.4 24.01
-8 -3 -11 189.53 13.21
-3 11 -11 168.94 7.17
3 -11 8 108.14 9.05
-8 -3 -8 103.75 15.55
-3 11 -8 102.86 3.73
-11 8 8 117.54 10.19
-8 -3 -8 99.84 12.41
-3 11 -8 110.57 6.03
3 -11 5 59.49 4.14
-8 -3 -5 68.37 8.8
-11 8 5 69.31 6.35
-8 -3 -5 73.15 7.62
-11 8 5 72.99 8.95
-3 11 -5 60.52 5.18
3 -11 2 39.24 3.71
-3 11 -2 34.03 3.35
-8 -3 -2 33.56 10.37
-11 8 2 30.55 3.91
-11 8 2 51.72 10.09
3 -11 -1 340.82 11.54
-8 -3 1 359.98 9.77
-11 8 -1 367.15 8.34
8 3 -1 361 8.84
-11 8 -1 384.32 11.38
3 -11 -4 206.74 8.09
-8 -3 4 208.25 8.41
-11 8 -4 222 8.71
11 -8 4 209.78 6.43
8 3 -4 206.4 5.17
-11 8 -4 216.78 8.53
3 -11 -7 3.47 2.08
-11 8 -7 0.1 1.03
-8 -3 7 6.17 3.06
11 -8 7 4.16 1.32
-11 8 -7 3.35 3.14
-11 8 -10 52.45 6.93
-8 -3 10 65.04 13.95
11 -8 10 43.79 5.55
-11 8 -10 60.62 13.84
3 -11 -13 24.45 8.52
-11 8 -13 16.3 4.02
-8 -3 13 27.37 6.35
-11 8 -13 29.29 6.93
3 -11 -16 92.19 11.49
-8 -3 16 77.71 6.47
-11 8 -16 76.97 18.37
3 -11 -19 7.87 4.15
-8 -3 19 9.16 3.24
-11 8 -19 5.1 2.87
3 -11 -22 20.89 11.79
-11 8 -22 19.92 10.68
-7 -4 -21 5.02 2.94
-11 7 21 5.4 3.43
-7 -4 -18 3.46 2.13
-11 7 18 14.84 6.4
-4 11 -18 2.89 3.05
-7 -4 -15 1.31 2.25
-11 7 15 6.76 3.86
-4 11 -15 0.89 0.88
-7 -4 -12 5.48 4.66
-11 7 12 11.2 4.94
-4 11 -12 12.88 2.58
4 -11 9 44.96 1.62
-7 -4 -9 44.43 7.57
-11 7 9 44.56 8.64
-4 11 -9 44.07 1.74
-4 11 -9 50.76 7.45
4 -11 6 20.06 3.6
-7 -4 -6 20.51 6.03
-4 11 -6 19.48 2.46
-11 7 6 21.09 6.61
-11 7 6 15.19 5.02
-4 11 -6 18.98 5.61
-4 11 -3 18.62 4.76
-7 -4 -3 30.41 8.65
-11 7 3 22.48 7.78
-11 7 3 25.48 7.64
4 -11 0 167.57 11.68
-7 -4 0 172.48 15.04
-11 7 0 158.65 9.3
7 4 0 167.22 5.68
-11 7 0 154.35 7.1
4 -11 -3 229.48 11.23
-7 -4 3 227.64 7.49
-11 7 -3 223.98 6.38
7 4 -3 229.9 4.84
-11 7 -3 238.73 13.88
4 -11 -6 13.48 4.25
-11 7 -6 16.96 2.56
-7 -4 6 15.15 3.04
11 -7 6 8.58 4.82
7 4 -6 14.28 2.8
-11 7 -6 20.07 6.31
4 -11 -9 33.26 10.8
-11 7 -9 30.36 6.76
-7 -4 9 34.5 7.56
11 -7 9 27.41 4.43
-11 7 -9 35 4.35
4 -11 -12 11.15 5.32
-11 7 -12 11.61 2.5
-7 -4 12 20.93 5.06
11 -7 12 10.11 2.94
-11 7 -12 19.64 6.32
4 -11 -15 92.59 23.14
-11 7 -15 58.1 7.7
-7 -4 15 80.37 7.99
-11 7 -15 87.38 18.36
4 -11 -18 8.42 4.16
-7 -4 18 16.5 4.57
-11 7 -18 10.31 6.1
4 -11 -21 2 4.41
-11 7 -21 5.82 4.28
-6 -5 -22 33.25 12.4
-11 6 22 31.71 11.3
-6 -5 -19 92.85 20.75
-11 6 19 70.4 19.17
-5 11 -19 81.3 9.12
-6 -5 -16 5.06 2.89
-11 6 16 4.05 2.25
-5 11 -16 5.06 2.71
-6 -5 -13 187.73 7.74
-11 6 13 175.25 11.92
-5 11 -13 197.4 10.33
-6 -5 -10 223.92 9.48
-11 6 10 234.74 22.42
-5 11 -10 273.89 13.81
-11 6 10 241.82 11.45
5 -11 7 492.19 10.02
-6 -5 -7 533.92 19.53
-5 11 -7 474.29 9.37
-11 6 7 483.76 14.78
-5 11 -7 481.56 13.43
-11 6 7 478.44 11.25
5 -11 4 123.94 8.25
-6 -5 -4 128 7.86
-5 11 -4 109.05 5.53
-11 6 4 111.23 7.21
-11 6 4 109.04 5.75
-5 11 -4 121.01 7.09
5 -11 1 255.29 9.54
-5 11 -1 222.61 6.5
-6 -5 -1 240.28 9.19
-11 6 1 234.68 8.13
-11 6 1 236.61 9.26
5 -11 -2 65.28 6.96
-6 -5 2 83.3 9.45
-11 6 -2 69.7 7.44
6 5 -2 69.61 5.24
-11 6 -2 73.16 4.92
5 -11 -5 622.22 22.2
-6 -5 5 561.08 15.54
-11 6 -5 592.84 11.36
6 5 -5 630.87 10.1
-11 6 -5 587.6 16.27
5 -11 -8 210.53 16.24
-11 6 -8 202.61 8.92
-6 -5 8 247.05 18.15
-11 6 -8 204.54 10.35
5 -11 -11 87.36 7.1
-11 6 -11 102.96 6.79
-6 -5 11 117.15 8.48
-11 6 -11 90.86 15.05
5 -11 -14 135.74 15.63
-11 6 -14 121.31 4.23
-6 -5 14 128.11 7.27
-11 6 -14 139.12 8.8
5 -11 -17 137.28 16.79
-6 -5 17 107.5 16.91
-11 6 -17 153.29 8.67
5 -11 -20 23.84 7.77
-11 6 -20 33.76 8.38
-5 11 23 22.9 9.72
-11 6 -23 24.28 9.23
-5 -6 -23 2.24 1.86
-11 5 23 4.93 3.72
-5 -6 -20 344.98 22.08
-11 5 20 334.66 24.61
-6 11 -20 339.87 25.51
-5 -6 -17 71.65 16.08
-11 5 17 47.05 5.61
-6 11 -17 65.43 10.39
-5 -6 -14 782.56 25.17
-11 5 14 764.25 33.7
-6 11 -14 775.52 29.25
-5 -6 -11 26.06 5.8
-11 5 11 32.39 11.27
-6 11 -11 33.33 10.41
-11 5 11 24.68 4.93
-5 -6 -8 1096.28 25.04
-11 5 8 1093.35 26.48
-6 11 -8 1156.9 28.51
-11 5 8 1107.53 23.09
6 -11 5 7.78 3.09
-5 -6 -5 7.12 3.24
-6 11 -5 10.11 2.22
-11 5 5 5.23 1.92
-11 5 5 5.73 4.03
-6 11 -5 7.73 4.45
6 -11 2 1993.61 31.19
-6 11 -2 2004.68 30.94
-5 -6 -2 1895.58 33.65
-11 5 2 1935.61 32.11
-11 5 2 1940.71 28.68
6 -11 -1 54.72 6.83
-5 -6 1 61.65 11.07
-11 5 -1 55.92 11.2
5 6 -1 48.96 6.53
-11 5 -1 61.38 13.07
6 -11 -4 2963.13 53.5
-5 -6 4 2985 43.93
-11 5 -4 3080.56 23.07
5 6 -4 2988.72 40.8
-11 5 -4 2958.15 43.78
6 -11 -7 7.42 2.39
-11 5 -7 14.93 3.47
-5 -6 7 7.94 2.68
-11 5 -7 13.69 5.17
6 -11 -10 1009.13 30.93
-11 5 -10 1065.72 29.11
-5 -6 10 1056.05 29.63
-11 5 -10 1021.31 31.09
6 -11 -13 42.14 10.75
-11 5 -13 37.35 7.36
-5 -6 13 32.9 8.5
-11 5 -13 36.73 9.22
6 -11 -16 274.08 15.93
-11 5 -16 248.08 12.86
-5 -6 16 257.33 13.28
-11 5 -16 267.01 15.69
6 -11 -19 0.76 2.72
-11 5 -19 -0.19 2.66
-6 11 22 173.45 18.75
-11 5 -22 215.39 18.34
-4 -7 -21 154.35 16.41
-11 4 21 148.53 18.24
-7 11 -21 146.55 12.03
-4 -7 -18 86.1 15.52
-11 4 18 101.9 22.39
-7 11 -18 104.94 11
-4 -7 -15 344.91 18.71
-11 4 15 293 16.87
-7 11 -15 286.58 21.12
-4 -7 -12 324.32 13.36
-11 4 12 400.64 18.13
-7 11 -12 375.47 20.3
-11 4 12 368.21 12.07
-4 -7 -9 573.13 18.75
-11 4 9 530.06 18.47
-7 11 -9 557.64 19.43
-11 4 9 603.02 17.42
-4 -7 -6 643 16.21
-7 11 -6 707.59 10.33
-11 4 6 691.62 18.52
-11 4 6 684.9 12.09
-7 11 -6 702.5 15.56
-7 11 -3 2083.1 30.21
-4 -7 -3 2054 31.47
-11 4 3 2114.06 36.24
-11 4 3 2063.82 32.19
-7 11 -3 2109.65 33.63
11 -4 -3 2078.17 30.17
7 -11 0 460.42 9.9
-7 11 0 461.64 10.04
-4 -7 0 439.22 16.66
-11 4 0 459.47 13.1
7 -11 -3 1121.09 25.89
-4 -7 3 1101.76 23.05
-11 4 -3 1112.74 21.48
-11 4 -3 1103.87 19.29
7 -11 -6 326.66 16.46
-11 4 -6 315.66 11
-4 -7 6 362.12 9.3
-11 4 -6 323.35 13.22
7 -11 -9 738.09 22.84
-11 4 -9 705.25 22.71
-4 -7 9 759.67 25.37
-11 4 -9 700.45 26.5
4 7 -9 769.11 20.17
7 -11 -12 292.84 14.25
-11 4 -12 295.67 13.81
-4 -7 12 291.79 14.68
-11 4 -12 283.24 16.77
7 -11 -15 603.22 34.01
-11 4 -15 659.83 28.75
-4 -7 15 695.8 32.43
-11 4 -15 645.59 30.49
-11 4 -18 97.7 17.1
-7 11 21 228.45 15.85
-11 4 -21 229.56 14.22
-3 -8 -22 4.08 1.71
-11 3 22 5.04 3.5
-8 11 -22 3.72 3.36
-3 -8 -19 165.41 17.65
-11 3 19 134.4 19.68
-8 11 -19 143.71 12.58
-3 -8 -16 39 11.27
-11 3 16 26.96 7.8
-8 11 -16 36.67 8.18
-3 -8 -13 1051.09 33.03
-11 3 13 962.79 38.47
-8 11 -13 975.08 34.76
-3 -8 -10 382.25 15.43
-11 3 10 389.7 20.07
-11 3 10 359.39 10.6
-8 11 -10 342.16 16.18
-3 -8 -7 287.93 17.3
-11 3 7 372.77 11.22
-11 3 7 334.26 8.8
-8 11 -7 351.86 13.15
-8 11 -4 61.8 4.34
-3 -8 -4 65.37 14.73
-11 3 4 61.24 11.01
-8 11 -4 59.02 4.28
-11 3 4 62.64 5.51
-8 11 -4 71.63 7.64
-8 11 -1 702.79 12.31
-3 -8 -1 681.31 14.4
-11 3 1 680.76 17.66
-8 11 -1 688.41 12.73
-11 3 1 671.66 14.06
-8 11 -1 703.45 17.27
8 -11 -2 4.05 2.08
-3 -8 2 3.15 1.7
-11 3 -2 5.17 2.53
-11 3 -2 5.59 3.38
8 -11 -5 1303.63 26.9
-11 3 -5 1272.81 21.56
-11 3 -5 1355.05 24.54
8 -11 -8 696.73 22.45
-11 3 -8 656.89 16.08
-3 -8 8 640.19 15.94
-11 3 -8 615.32 15.49
3 8 -8 624.22 15.54
8 -11 -11 482.62 17.24
-11 3 -11 442.31 13.21
-3 -8 11 450.36 20.57
-11 3 -11 384 19.7
3 8 -11 423.47 12.86
-11 3 -14 253.38 11.68
-3 -8 14 292.59 14.94
-11 3 -14 282.86 15.18
-11 3 -17 125.55 16.16
-8 11 17 140.58 11.53
-11 3 -17 134.81 6.62
-8 11 20 12.91 3.78
-11 3 -20 0.67 4.09
-8 11 23 69.13 23.48
-11 3 -23 93.27 16.77
-2 -9 -23 3.37 3.04
-11 2 23 5.52 4.14
-9 11 -23 1.63 2.41
-2 -9 -20 9.28 5.66
-11 2 20 5.42 3.61
-9 11 -20 7.36 4.51
-2 -9 -17 3.1 4.75
-11 2 17 15.87 6.05
-9 11 -17 23.16 8.09
-2 -9 -14 119.11 20.67
-11 2 14 110.52 21.27
-9 11 -14 117.74 16.62
-2 -9 -11 5.16 4.7
-11 2 11 5.53 2.8
-9 11 -11 3.93 2.39
-2 -9 -8 7.59 4.66
-11 2 8 12.92 3.53
-11 2 8 10.73 1.69
-9 11 -8 9.25 6.59
-9 11 -5 177.66 3.53
-2 -9 -5 162.86 9.59
-11 2 5 174.2 8.87
-9 11 -5 153.32 7.92
-11 2 5 159.01 8.11
-9 11 -5 164.1 8.99
-9 11 -2 96.67 8.03
-2 -9 -2 120.94 9.86
-11 2 2 122.25 11.66
-9 11 -2 116.48 10.23
-11 2 2 117.23 7.42
11 -2 -2 96.2 9.88
-9 11 -2 110.09 7.75
-2 -9 1 8.76 4.35
-11 2 -1 13.56 5.32
-9 11 1 14.55 3.78
-11 2 -1 10.95 4.79
-2 -9 4 99.24 6.33
-11 2 -4 103.34 6.5
-9 11 4 107.01 8.83
-11 2 -4 100.43 6.57
-11 2 -7 2.64 3.24
-2 -9 7 5.81 2.05
-9 11 7 4.37 3.14
-11 2 -7 5.25 3.19
-11 2 -10 98.23 9.68
-2 -9 10 113.33 7.7
-9 11 10 101.76 19.26
-11 2 -10 110.92 16.35
2 9 -10 105.68 5.91
-11 2 -13 0.77 1.24
-2 -9 13 1.44 1.07
-9 11 13 1.88 5.82
-11 2 -13 4.62 2.5
2 9 -13 2.57 1.58
-11 2 -16 36.65 10.53
-9 11 16 33.38 12.14
-11 2 -16 41.41 9.81
-11 2 -19 3.58 1.5
-9 11 19 1 3.51
-11 2 -19 3.3 5.88
-9 11 22 4.41 4.53
-11 2 -22 6.43 4.64
-1 -10 -21 11.8 5.53
-11 1 21 3.46 3.38
-10 11 -21 13.85 4.07
-1 -10 -18 1.34 3.31
-11 1 18 5.03 2.29
-10 11 -18 3.23 2.31
-1 -10 -15 73.73 18.12
-11 1 15 64.36 18.37
-10 11 -15 85.78 20.34
-1 -10 -12 27.55 9.89
-11 1 12 36.68 8.4
-10 11 -12 37.54 6.87
-1 -10 -9 408.86 14.84
-11 1 9 395.88 15.15
-10 11 -9 377.95 22.93
-10 11 -6 97.17 4.22
-1 -10 -6 105.68 15.82
-10 11 -6 96.22 3.54
-11 1 6 101.91 10.58
-11 1 6 97.24 3.69
-10 11 -6 100.61 8.23
-10 11 -3 224.02 5.28
-1 -10 -3 223.88 8.77
-11 1 3 213.56 9.5
-10 11 -3 217.64 7.62
-11 1 3 213.11 9.22
11 -1 -3 200.75 5.09
-10 11 -3 217.85 8.45
-1 -10 0 41.7 10.36
-11 1 0 26.09 8.64
-10 11 0 41.76 8.71
-11 1 0 28.64 2.86
-10 11 0 37.17 7.89
-1 -10 3 46.34 5.39
-11 1 -3 48.83 14.29
-10 11 3 37.95 7.58
-11 1 -3 40.79 7.66
-1 -10 6 42.4 8.77
-11 1 -6 36.81 12.07
-10 11 6 46.29 9.15
-11 1 -6 45.74 12.09
-11 1 -9 193.98 15.59
-1 -10 9 221.58 9.83
-10 11 9 188.42 9.84
-11 1 -9 203.33 16.58
1 10 -9 202.48 9.45
-11 1 -12 -0.42 2.2
-1 -10 12 -0.04 1.41
-10 11 12 3.22 5.27
-11 1 -12 9.57 6.15
1 10 -12 0.2 1.48
-11 1 -15 63.47 11
-10 11 15 61.31 7.29
-11 1 -15 62.07 15.51
1 10 -15 48.27 7.76
-11 1 -18 22.46 5.27
-10 11 18 21.02 6.92
-11 1 -18 34.27 7.93
-10 11 21 15.02 6.57
-11 1 -21 7.4 3.93
0 -11 -22 2.01 3.07
-11 0 22 2.55 2.85
-11 11 -22 4.43 3.49
0 -11 -19 26.42 9.15
-11 0 19 23.92 5.03
-11 11 -19 21.37 7.75
0 -11 -16 281.39 19.98
-11 0 16 283.93 29.91
-11 11 -16 272.23 17.43
0 -11 -13 13.58 3.81
-11 0 13 20.59 5.53
-11 11 -13 9.45 7.85
0 -11 -10 93.55 13.59
-11 0 10 112.21 19.52
-11 11 -10 105.91 11.21
-11 11 -7 0.08 0.84
0 -11 -7 10.51 8.05
-11 11 -7 0.29 0.54
-11 0 7 5.6 3.96
-11 11 -7 0.6 2.44
-11 11 -4 510.49 12.15
0 -11 -4 515.29 17.25
-11 0 4 522.93 14.93
-11 11 -4 499.95 12.68
-11 0 4 500.69 11.57
-11 11 -4 531.49 14.37
0 -11 -1 272.71 12.07
-11 0 1 235.81 13.3
-11 11 -1 252.89 11.26
-11 0 1 255.68 7.29
-11 11 -1 269.78 15.24
0 -11 2 98.79 7.48
-11 0 -2 79.94 8.25
-11 11 2 94.89 8
-11 0 -2 94.64 8.49
-11 11 2 90.95 5.25
0 -11 5 14.6 4.02
-11 0 -5 20.5 5.15
-11 11 5 12.84 4.38
-11 0 -5 20.84 4.83
0 -11 8 449.41 15.98
-11 0 -8 442.19 17.34
-11 11 8 418 15.23
-11 0 -8 434.17 15.86
0 11 -8 450.67 17.1
-11 0 -11 2.07 2.45
0 -11 11 3.72 1.73
-11 11 11 1.46 3.06
-11 0 -11 0.78 2.81
0 11 -11 1.62 2.52
-11 0 -14 72.1 14.61
-11 11 14 91.88 8.71
-11 0 -14 83.23 7.78
0 11 -14 78.93 9.64
-11 0 -17 6.47 4.07
-11 11 17 8.44 3.15
-11 0 -17 4.54 3.32
-11 0 -20 60.93 15.2
-11 11 20 58.08 14.82
-11 0 -20 55.1 19.44
-12 11 22 4.79 2.74
-11 -1 -19 26.4 6.46
-12 11 19 25.6 9.9
-11 -1 -16 37.44 10.88
-12 11 16 30.27 9.71
-11 -1 -16 34.34 15.4
-1 12 -16 40.3 8.48
-11 -1 -13 102.49 9.33
-12 11 13 112.7 23.97
-11 -1 -13 106.57 13.05
-1 12 -13 93.51 6.88
1 -12 10 205.41 9.56
-11 -1 -10 184.19 14.5
-12 11 10 179.43 11.42
-11 -1 -10 175.85 7.68
-1 12 -10 196.32 11.05
1 -12 7 150.08 8.52
-11 -1 -7 147.7 17.6
-12 11 7 157.06 15.62
-11 -1 -7 147.81 7.29
-1 12 -7 143.88 6.47
1 -12 4 13.88 3.43
-11 -1 -4 14.3 6.84
-12 11 4 12.73 6.76
-11 -1 -4 14.51 6.23
-12 11 4 12.95 3.82
1 -12 1 11.74 3.88
-11 -1 -1 6.57 3.48
-12 11 1 4.72 3.02
-11 -1 -1 9.39 4.02
-12 11 1 8.99 5.02
1 -12 -2 59.65 7.1
-11 -1 2 70.39 14.5
-12 11 -2 54.15 5.34
-11 -1 2 60.37 3.51
11 1 -2 49.52 5.95
-12 11 -2 58.5 15.19
-12 11 -5 346.67 11.3
1 -12 -5 340.79 24.98
-11 -1 5 352.9 13.16
-12 11 -5 335.74 13.35
-12 11 -5 348.83 13.52
11 1 -5 321.75 10.28
-12 11 -8 3.26 1.48
1 -12 -8 2.22 2.91
-12 11 -8 2.09 1.17
-11 -1 8 5.12 3.13
-12 11 -8 7.19 3.41
1 -12 -11 7.64 4.19
-12 11 -11 5.68 1.42
-11 -1 11 4.72 2.6
-12 11 -11 16.18 5.24
1 -12 -14 126.53 19.03
-11 -1 14 108.57 19.29
-12 11 -14 121.95 17.67
1 -12 -17 45.56 11.35
-11 -1 17 29.98 10.3
-12 11 -17 44.46 12.23
1 -12 -20 5.16 3.93
-11 -1 20 -0.63 2.93
-12 11 -20 1.17 3.32
-10 -2 -20 7.74 3.34
-12 10 20 2.62 3.56
-10 -2 -17 24.02 5.16
-12 10 17 11.98 3.68
-2 12 -17 20.82 4.71
-10 -2 -14 80.99 14.14
-12 10 14 92.12 8.8
-10 -2 -14 79.9 8.35
-2 12 -14 75.93 11.81
2 -12 11 16 4.25
-10 -2 -11 24.32 4.46
-12 10 11 13.8 5.67
-10 -2 -11 15.21 6.3
-2 12 -11 22.69 4.53
2 -12 8 8.86 3.56
-10 -2 -8 7.84 3.72
-2 12 -8 7.35 1.99
-12 10 8 7.11 4.7
-10 -2 -8 12.9 4.46
-2 12 -8 4.86 3.03
2 -12 5 159.11 9.48
-10 -2 -5 178.07 10.95
-2 12 -5 153.24 7.57
-12 10 5 171.18 8.63
-10 -2 -5 166.79 7.31
-12 10 5 159.58 16.04
2 -12 2 67.02 8.31
-10 -2 -2 78.07 15.54
-12 10 2 58.67 5.9
-10 -2 -2 53.52 4.22
-12 10 2 72.29 7.55
2 -12 -1 40.85 8.96
-10 -2 1 46.81 6.43
-12 10 -1 41.66 5.91
-10 -2 1 37.67 3.93
-12 10 -1 51.28 4.69
2 -12 -4 46.61 11.34
-10 -2 4 47.74 12.16
-12 10 -4 46.17 7.14
10 2 -4 45.27 2.26
-12 10 -4 70.24 14.53
2 -12 -7 225.68 10.96
-12 10 -7 229.29 9.43
-10 -2 7 228.01 10.78
12 -10 7 238.41 7.99
-12 10 -7 241.57 13.66
2 -12 -10 41.92 10.64
-12 10 -10 30.05 5
-10 -2 10 41.1 9.45
-12 10 -10 46.47 7.74
2 -12 -13 32.91 9.54
-10 -2 13 30.2 7.47
-12 10 -13 44.4 15.32
2 -12 -16 7.2 4.09
-10 -2 16 6.54 4.25
-12 10 -16 0.58 2.44
2 -12 -19 13.66 5.25
-10 -2 19 10.4 5.03
-12 10 -19 10.86 5.19
-10 -2 22 11.01 4.56
-12 10 -22 24.37 6.31
-9 -3 -21 44.26 12.64
-12 9 21 37.76 5.23
-9 -3 -18 3.59 3.46
-12 9 18 3.36 3.07
-3 12 -18 1.2 1.86
-9 -3 -15 248.17 12.31
-12 9 15 236.98 16.31
-3 12 -15 214.68 12.15
-9 -3 -12 17.1 4.27
-12 9 12 5.54 3.98
-3 12 -12 10.88 2.87
3 -12 9 110.5 5.71
-9 -3 -9 112.62 12.62
-3 12 -9 101.11 4.93
-12 9 9 130.79 11.26
-9 -3 -9 109.33 17.35
-3 12 -9 106.19 11.62
3 -12 6 1.41 1.39
-9 -3 -6 3.12 2.39
-3 12 -6 0.18 0.69
-12 9 6 2.26 5.79
-9 -3 -6 5.91 2.8
-12 9 6 1 1.37
-3 12 -6 2.61 2.2
3 -12 3 460.66 11.39
-9 -3 -3 471.94 13.43
-12 9 3 446.23 12.87
-9 -3 -3 439.08 15.76
-12 9 3 420.65 11.61
3 -12 0 0.45 3.92
-9 -3 0 5.4 3.36
-12 9 0 5.1 2.63
-12 9 0 3.06 2.05
3 -12 -3 238.16 14.61
-9 -3 3 250.61 10.02
-12 9 -3 217.7 11.54
9 3 -3 231.53 7.33
-12 9 -3 245.7 9.04
3 -12 -6 44.72 5.36
-12 9 -6 49.14 9.5
-9 -3 6 49.6 5.77
12 -9 6 46.46 6.2
-12 9 -6 51.61 5.8
9 3 -6 43.08 1.75
3 -12 -9 246.11 15.9
-12 9 -9 223.69 7.93
-9 -3 9 224.3 9.75
12 -9 9 204.53 7.96
-12 9 -9 217.29 12.92
3 -12 -12 24.93 6.8
-12 9 -12 13.86 3.45
-9 -3 12 16.4 4.1
-12 9 -12 20.49 5.07
3 -12 -15 69.82 18.92
-9 -3 15 76.04 17.6
-12 9 -15 71.5 18.51
3 -12 -18 7.3 6.29
-9 -3 18 8.94 4.4
-12 9 -18 16.73 5.19
3 -12 -21 86.12 15.81
-9 -3 21 41.71 12.63
-12 9 -21 74.67 17.09
-8 -4 -22 22.62 6.85
-12 8 22 26.79 12.52
-8 -4 -19 1.33 3.17
-12 8 19 10 5.39
-4 12 -19 5.97 3.16
-8 -4 -16 104.51 11.08
-12 8 16 97.29 11.01
-4 12 -16 101.12 10.92
-8 -4 -13 -0.61 2.52
-12 8 13 5.22 3.34
-4 12 -13 1.93 2.9
4 -12 10 27.65 1.69
-8 -4 -10 38.26 9.09
-12 8 10 29.18 10.81
-4 12 -10 30.95 8.01
4 -12 7 2.65 1.07
-8 -4 -7 4.27 2.82
-4 12 -7 0.97 0.91
-12 8 7 1.71 3.44
-4 12 -7 0.03 2.69
-12 8 7 1.34 1.57
4 -12 4 205.19 6.01
-8 -4 -4 205.77 9.42
-4 12 -4 209.71 7.34
-12 8 4 178.12 8.97
-12 8 4 186.2 7.65
4 -12 1 -0.09 1.91
-8 -4 -1 2.14 2.06
-12 8 1 0.53 2.44
-12 8 1 0.35 1.76
4 -12 -2 716.29 19.38
-8 -4 2 764.5 16.2
-12 8 -2 740.14 16.82
8 4 -2 724.58 11.96
-12 8 -2 777.73 16.15
4 -12 -5 8.46 4.45
-8 -4 5 19.14 5.92
-12 8 -5 9.45 3.1
8 4 -5 10.53 2.96
-12 8 -5 23.47 6.79
4 -12 -8 99.36 10.53
-12 8 -8 90.3 7.8
-8 -4 8 101.52 19.98
12 -8 8 74.84 4.17
-12 8 -8 83.67 11.44
4 -12 -11 25.7 11.18
-12 8 -11 17.07 3.35
-8 -4 11 24.21 5.97
-12 8 -11 21.02 6.07
4 -12 -14 66.01 16.96
-12 8 -14 50.84 7.02
-8 -4 14 53.66 7.75
-12 8 -14 64.35 11.24
4 -12 -17 4.81 2.66
-8 -4 17 1.97 1.6
-12 8 -17 3.37 1.23
4 -12 -20 66.86 19.2
-8 -4 20 45.63 15.25
-12 8 -20 58.51 17.49
-7 -5 -20 28.6 6.65
-12 7 20 19.17 9.3
-5 12 -20 27.6 7.59
-7 -5 -17 2.53 3.07
-12 7 17 4.21 2.75
-5 12 -17 2.29 1.98
-7 -5 -14 10.91 4.74
-12 7 14 16.25 6.11
-5 12 -14 22.3 5.49
-7 -5 -11 11.15 4.49
-12 7 11 4.09 3.34
-5 12 -11 2.51 3.36
-12 7 11 3.47 2.33
5 -12 8 130.05 3.17
-7 -5 -8 132.88 10.02
-5 12 -8 131.52 2.44
-12 7 8 139.87 9.94
-5 12 -8 135.14 5.89
-12 7 8 127.92 5.77
5 -12 5 278 9.43
-7 -5 -5 289.82 11.72
-5 12 -5 293.79 7.05
-12 7 5 280.32 9.25
-12 7 5 285.73 12.25
-5 12 -5 259.52 9.74
5 -12 2 266.44 8.72
-5 12 -2 241.64 7.09
-7 -5 -2 275.14 14.41
-12 7 2 269.63 9.88
-12 7 2 253.79 11.04
5 -12 -1 105.48 9.6
-7 -5 1 94.41 8.01
-12 7 -1 87.03 5.4
7 5 -1 99.38 4.98
-12 7 -1 101 12.4
5 -12 -4 126.4 9.51
-7 -5 4 117.96 7.73
-12 7 -4 108.88 9.21
7 5 -4 107.55 5.71
-12 7 -4 120.54 8.8
5 -12 -7 2.16 2.4
-12 7 -7 5.95 2.26
-7 -5 7 8.57 3.99
7 5 -7 2 1.01
-12 7 -7 3.76 3.21
5 -12 -10 7.29 4.38
-12 7 -10 5.4 2.91
-7 -5 10 7.39 5.46
-12 7 -10 3.98 3.46
5 -12 -13 32.36 9.08
-12 7 -13 26.67 5.37
-7 -5 13 20.89 6.81
-12 7 -13 31.61 6.43
5 -12 -16 122.5 8.88
-7 -5 16 106.38 8.51
-12 7 -16 100.4 16.27
5 -12 -19 6.4 5.11
-7 -5 19 14.32 4.7
-12 7 -19 12.13 5.41
5 -12 -22 33.27 14.09
-12 7 -22 38.51 13.24
-6 -6 -21 112.88 17.03
-12 6 21 85.35 28.53
-6 12 -21 98.35 10.27
-6 -6 -18 127.18 19.84
-12 6 18 120.64 20.66
-6 12 -18 125.29 7.46
-6 -6 -15 134.8 11.57
-12 6 15 112.23 22.25
-6 12 -15 132.79 9.11
-6 -6 -12 282.61 15.39
-12 6 12 268.58 12.92
-6 12 -12 247.67 12.68
-12 6 12 254.69 11.93
-6 -6 -9 458.77 15.74
-12 6 9 474.3 19.41
-6 12 -9 518.67 22.08
-12 6 9 486.19 15.01
6 -12 6 207.62 5.2
-6 -6 -6 190.06 18.28
-6 12 -6 203.4 5.96
-12 6 6 222.18 9.37
-12 6 6 198.45 7.26
-6 12 -6 199.01 7.84
6 -12 3 257.23 6.07
-6 12 -3 271.8 9.1
-6 -6 -3 256.25 8.49
-12 6 3 251.5 15.86
-12 6 3 254.49 6.96
6 -12 0 159.3 7.7
-6 -6 0 172.98 6.79
-12 6 0 160.79 8.59
-12 6 0 178.98 5.74
6 -12 -3 748.54 16.85
-6 -6 3 784.14 15.81
6 6 -3 798.91 12.97
-12 6 -3 756.26 15.59
6 -12 -6 418.57 16.92
-12 6 -6 407.78 15.84
-6 -6 6 406.05 16.9
6 6 -6 409.02 9.13
-12 6 -6 423.14 14.79
6 -12 -9 602.52 29.76
-12 6 -9 587.98 20.07
-6 -6 9 684.51 21.5
-12 6 -9 602.85 27.35
6 -12 -12 63.82 7.25
-12 6 -12 65.09 9.76
-6 -6 12 72.96 6.01
-12 6 -12 68.49 15.48
6 -12 -15 85.03 23.28
-12 6 -15 87.47 11.3
-6 -6 15 101.99 9.84
-12 6 -15 94.08 13.07
6 -12 -18 120.62 13.91
-6 -6 18 112.97 14.99
-12 6 -18 138.49 9.49
-12 6 -21 93.64 16.69
-5 -7 -22 32.41 10.26
-12 5 22 18.92 6.83
-7 12 -22 21.4 4.37
-5 -7 -19 353.47 18.23
-12 5 19 356.01 30.78
-7 12 -19 356.09 20.05
-5 -7 -16 84.31 12.57
-12 5 16 83.08 10.92
-7 12 -16 67.47 13.27
-5 -7 -13 479.95 20.98
-12 5 13 551.63 22.07
-7 12 -13 540.24 21.48
-12 5 13 499.45 15.92
-5 -7 -10 263.75 11.52
-12 5 10 251.65 11.86
-7 12 -10 264.12 9.78
-12 5 10 245.79 7.43
-5 -7 -7 499.61 16.19
-7 12 -7 500.73 9.56
-12 5 7 447.97 16.54
-7 12 -7 492.98 9.38
-12 5 7 477.05 13.29
-7 12 -7 494.9 13.02
7 -12 4 70.75 4.22
-7 12 -4 66.53 4.66
-5 -7 -4 76.88 6.16
-12 5 4 73.98 7.46
-12 5 4 66.61 8.88
-7 12 -4 67.54 4.79
7 -12 1 847.44 15.08
-7 12 -1 849.47 14.53
-5 -7 -1 810.46 20.93
-12 5 1 860.22 18.42
-12 5 1 829.93 14.52
7 -12 -2 853.31 17.16
-5 -7 2 812.57 20.25
-12 5 -2 816.83 16.28
-12 5 -2 804.57 20.52
7 -12 -5 827.4 23.94
-5 -7 5 800.77 23.5
-12 5 -5 821.75 18.25
-12 5 -5 786.4 21.04
7 -12 -8 222.58 15.86
-12 5 -8 236.84 10.43
-5 -7 8 249.16 18.18
-12 5 -8 266.59 13.22
5 7 -8 261.84 8.25
7 -12 -11 554.08 28.43
-12 5 -11 604.6 19.07
-5 -7 11 586.12 28.39
-12 5 -11 586.11 28.87
5 7 -11 586.08 16.16
7 -12 -14 245.46 16.09
-12 5 -14 219.28 13.57
-5 -7 14 227.26 12.15
-12 5 -14 261.65 14.95
7 -12 -17 174.49 21
-5 -7 17 209 16.97
-12 5 -17 202.72 9.99
-7 12 20 49.99 13.23
-12 5 -20 70.44 16.68
-4 -8 -20 170.36 25.63
-12 4 20 185.79 15.81
-8 12 -20 179.8 20.16
-4 -8 -17 1.35 3.25
-12 4 17 2.6 2.6
-8 12 -17 0.27 2.04
-4 -8 -14 337.91 19.19
-12 4 14 293.49 26.58
-8 12 -14 333.59 20.32
-4 -8 -11 14.97 6.69
-12 4 11 15.24 6.43
-8 12 -11 15.1 4.84
-12 4 11 11.07 2.69
-4 -8 -8 638.76 25.12
-12 4 8 692.42 24.25
-12 4 8 633.51 18.37
-8 12 -8 655.29 22.15
-8 12 -5 55.59 4.05
-4 -8 -5 71.15 12.78
-12 4 5 69.87 6.27
-8 12 -5 68.95 4.28
-12 4 5 73.13 6.57
-8 12 -5 67.3 7.22
-8 12 -2 1038.42 16.62
-4 -8 -2 1013.18 26.77
-12 4 2 981.85 18.57
-8 12 -2 1007.87 19.97
-12 4 2 1007.52 18.03
-8 12 -2 1005.92 24.57
8 -12 -1 69.31 7.97
-4 -8 1 80.79 10.78
-12 4 -1 68.83 5.31
-12 4 -1 73.22 5.28
8 -12 -4 551.78 17.9
-4 -8 4 559 19
-12 4 -4 555.2 16.67
-12 4 -4 571.33 18.22
8 -12 -7 11.09 3.69
-12 4 -7 13.82 3.9
-4 -8 7 12.34 3.59
-12 4 -7 8.73 4.77
8 -12 -10 506.41 24.79
-12 4 -10 539.46 18.89
-4 -8 10 555.83 18.22
-12 4 -10 465.2 19.24
4 8 -10 517.73 14.2
8 -12 -13 60.39 17.95
-12 4 -13 46.76 10.81
-4 -8 13 71.88 10.06
-12 4 -13 74.01 17
-12 4 -16 377.93 15.36
-4 -8 16 365.43 19.32
-12 4 -16 365.83 19.71
-8 12 19 -0.37 2.7
-12 4 -19 8.56 3.49
-8 12 22 126.89 20.64
-12 4 -22 136.96 10.43
-3 -9 -21 4.12 2.76
-12 3 21 3.48 3.85
-9 12 -21 6.01 3.14
-3 -9 -18 58.22 10.67
-12 3 18 47.1 13.12
-9 12 -18 52.91 11.89
-3 -9 -15 2.7 4.52
-12 3 15 4.84 1.97
-9 12 -15 3.28 2.43
-3 -9 -12 97.43 17.07
-12 3 12 83.74 16.52
-9 12 -12 84.01 9.77
-3 -9 -9 108.32 15.37
-12 3 9 102.35 9.17
-12 3 9 92.65 3.45
-9 12 -9 95.33 9.36
-9 12 -6 164.15 5.12
-3 -9 -6 177.45 8.98
-12 3 6 191.05 7.95
-9 12 -6 169.56 5.23
-12 3 6 183.58 6.62
-9 12 -6 172.12 7.62
-9 12 -3 81.76 5.11
-3 -9 -3 84.94 9.36
-12 3 3 85.53 8.45
-9 12 -3 83.86 4.11
-12 3 3 96.35 9.06
-9 12 -3 81.93 8.19
12 -3 -3 79.92 4.87
-3 -9 0 29.65 3.73
-12 3 0 30.74 8.25
-9 12 0 30.9 3.04
-12 3 0 27.09 7.26
-9 12 0 27.38 3.68
-3 -9 3 -0.61 2.54
-12 3 -3 3.39 3.82
-9 12 3 5.75 2.32
-12 3 -3 4.58 1.96
9 -12 -6 334.03 14.14
-3 -9 6 318.91 12.32
-12 3 -6 310.4 14.16
-12 3 -6 298.63 20.69
-12 3 -9 16.07 3.4
-3 -9 9 11.01 4.7
-12 3 -9 21.07 4.17
3 9 -9 14.49 2.35
-12 3 -12 30.3 9.23
-3 -9 12 40.82 5.67
-9 12 12 33.75 7.69
-12 3 -12 38.19 10.59
3 9 -12 30.21 5.82
-12 3 -15 48.74 12.43
-3 -9 15 51.71 6.64
-9 12 15 66.89 10.91
-12 3 -15 65.47 17.51
-12 3 -18 19.45 5.03
-9 12 18 15.52 7.79
-12 3 -18 16.37 6.57
-9 12 21 4.8 3.81
-12 3 -21 2.37 3.08
-2 -10 -22 42.25 17.74
-12 2 22 30.54 14.11
-10 12 -22 50 16.56
-2 -10 -19 6.16 3.56
-12 2 19 8.53 3.51
-10 12 -19 3.44 1.78
-2 -10 -16 183.41 12.69
-12 2 16 193.12 14.83
-10 12 -16 202.68 11.91
-2 -10 -13 5.18 2.7
-12 2 13 8.28 3.28
-10 12 -13 8.3 4.58
-2 -10 -10 179.5 20.41
-12 2 10 177.37 14.1
-10 12 -10 170.89 8.98
-10 12 -7 22.53 3.32
-2 -10 -7 36.44 11.06
-12 2 7 36.69 11.08
-12 2 7 26.46 3.68
-10 12 -7 29.92 7.2
-10 12 -4 542.34 12.09
-2 -10 -4 569.3 20.97
-12 2 4 560.73 14.75
-10 12 -4 531.35 12.55
-12 2 4 544.4 12.12
-10 12 -4 517.31 19.82
12 -2 -4 533.57 11.75
-2 -10 -1 58.74 7.83
-12 2 1 53.47 6.35
-10 12 -1 51.56 5.11
-12 2 1 56.05 3.29
-10 12 -1 61.64 5.27
-2 -10 2 117.65 5.8
-12 2 -2 144.13 13.82
-10 12 2 124.99 7.88
-12 2 -2 157.32 13.7
-2 -10 5 11.15 3.43
-12 2 -5 1.93 3.33
-10 12 5 5.85 2.77
-12 2 -5 12.52 5.1
-12 2 -8 526.05 21.99
-2 -10 8 589.73 18.01
-10 12 8 542.34 18.77
-12 2 -8 543.12 22.95
2 10 -8 564.47 19.87
-12 2 -11 0.96 2.22
-2 -10 11 4.32 2.8
-10 12 11 -0.84 3.35
-12 2 -11 8.32 3.05
2 10 -11 4.11 1.42
-12 2 -14 167.25 12.92
-2 -10 14 171.98 14.53
-10 12 14 165.93 12.72
-12 2 -14 158.03 15.66
-12 2 -17 7.01 3.01
-10 12 17 9.82 4.88
-12 2 -17 17.69 6.01
-12 2 -20 26.32 7.39
-1 -11 -20 66.31 20.86
-12 1 20 76.98 11.83
-11 12 -20 77.03 15.83
-1 -11 -17 229.72 16.01
-12 1 17 214.86 19.13
-11 12 -17 230.32 15.07
-1 -11 -14 155.68 17.89
-12 1 14 135.18 11.87
-11 12 -14 144.8 10.06
-1 -11 -11 338.15 20.26
-12 1 11 323.86 24.8
-11 12 -11 343.7 15.67
-11 12 -8 324.06 8.02
-1 -11 -8 337.88 20.76
-12 1 8 331.98 12.6
-11 12 -8 365.98 19.21
-11 12 -5 543.37 16.18
-1 -11 -5 541.58 22.56
-12 1 5 560.93 23.66
-11 12 -5 557.76 16.31
-12 1 5 551.26 15.28
-11 12 -5 608.95 20.64
12 -1 -5 554.01 15.19
-1 -11 -2 359.48 11.7
-12 1 2 368.97 11.15
-11 12 -2 358.38 14.7
-12 1 2 342.07 15.73
-11 12 -2 365.02 12.85
-1 -11 1 144.78 6.06
-12 1 -1 144.58 15.36
-11 12 1 144.52 6.35
-12 1 -1 150.98 12.76
-11 12 1 167.88 7.93
-1 -11 4 370.97 15.18
-12 1 -4 409.9 12.54
-11 12 4 379.79 17.93
-12 1 -4 362.25 15.45
-1 -11 7 957.21 28.57
-12 1 -7 969.14 31.15
-11 12 7 923.95 29.4
-12 1 -7 1021.15 29.99
-12 1 -10 30.61 11.02
-1 -11 10 27.82 5.77
-11 12 10 28.07 7.56
-12 1 -10 29.95 6.08
1 11 -10 27.96 6.94
-12 1 -13 322.2 15.44
-1 -11 13 315.41 15.22
-11 12 13 271.91 28.83
-12 1 -13 293.21 28.2
1 11 -13 324.3 17.62
-12 1 -16 51.77 10.5
-11 12 16 34.58 14.11
-12 1 -16 54.63 5.81
-12 1 -19 128.57 15.98
-11 12 19 131.43 18.07
-12 1 -19 97.84 13.58
-11 12 22 47.06 13.11
0 -12 -21 80.3 16.37
-12 0 21 53.76 18.82
-12 12 -21 88.92 21.66
0 -12 -18 49.98 10.58
-12 0 18 40.09 12.13
-12 12 -18 44.69 7.41
0 -12 -15 469.41 17.1
-12 0 15 477.64 25.42
-12 12 -15 457.21 13.93
0 -12 -12 151.9 9.79
-12 0 12 144.4 15.57
-12 12 -12 154.1 8.2
0 -12 -9 615.75 21.89
-12 0 9 600.02 24.96
-12 12 -9 615.91 21.09
-12 12 -6 306.58 9.38
0 -12 -6 332.58 14.06
-12 0 6 285.34 13.9
-12 12 -6 303.3 11.99
-12 0 6 282.37 9.01
-12 12 -6 278.24 12.15
0 -12 -3 731.48 22.27
-12 0 3 809.98 30.89
-12 12 -3 743.66 21.66
-12 0 3 790.28 22.77
12 0 -3 749.02 20.33
-12 12 -3 780.71 23.76
0 -12 0 19.97 3.59
-12 0 0 25.38 10.17
-12 12 0 17.66 4.42
-12 0 0 14.13 4.15
-12 12 0 10.06 2.31
0 -12 3 672.86 20.02
-12 0 -3 666.2 20.52
-12 12 3 675.58 23.53
-12 0 -3 686.23 26.24
-12 12 3 720.85 23.37
0 -12 6 451.71 14.87
-12 0 -6 425.95 14.18
-12 12 6 483.81 19.35
-12 0 -6 449.02 20.4
0 -12 9 582.65 20.81
-12 0 -9 557.24 25.7
-12 12 9 546.38 26.89
-12 0 -9 541.04 27.49
0 12 -9 580.54 21.49
-12 0 -12 262.02 20.17
0 -12 12 253.29 14.57
-12 12 12 290.82 16.67
-12 0 -12 275.6 23.15
0 12 -12 271.04 13.82
-12 0 -15 118.81 18.62
-12 12 15 141.21 11.68
-12 0 -15 125.23 10.84
-12 0 -18 85.62 18.08
-12 12 18 67.04 20.31
-12 0 -18 67.82 19.02
-12 12 21 171.81 32.2
-12 -1 -20 92.08 20.39
-13 12 20 55.91 23.96
-12 -1 -17 15.13 6.81
-13 12 17 22.1 6.73
-12 -1 -17 15.37 6.83
-12 -1 -14 91.64 12.42
-13 12 14 106.68 27.26
-12 -1 -14 110.27 11.1
-1 13 -14 99.22 6.16
1 -13 11 8.85 2.4
-12 -1 -11 7.59 4.59
1 -13 8 442.4 17.39
-12 -1 -8 438.76 19.11
-13 12 8 416.74 17.06
-12 -1 -8 449.79 21.89
-1 13 -8 431.25 21.35
1 -13 5 146.48 7.67
-12 -1 -5 151.65 9.84
-13 12 5 124.27 8.26
-13 12 5 145.41 8.98
1 -13 2 236.57 14.56
-12 -1 -2 230.18 10.21
-13 12 2 257.44 11.05
-12 -1 -2 226.17 16.52
-13 12 2 228.67 19.93
1 -13 -1 29.69 7.57
-12 -1 1 11.93 5.96
-13 12 -1 19.38 5.22
-12 -1 1 18.98 4.84
-13 12 -1 27.24 6.45
1 -13 -4 417.01 19.5
-12 -1 4 417.88 15.77
-13 12 -4 412.65 14.66
-13 12 -4 413.24 19.88
12 1 -4 397.92 12.07
-13 12 -7 39.33 2.35
1 -13 -7 43.75 10.66
-13 12 -7 41.58 7.26
-12 -1 7 47.98 10.63
-13 12 -7 49.58 12.46
1 -13 -10 147.48 9.58
-12 -1 10 158.19 14.62
-13 12 -10 175.74 10.97
1 -13 -13 5.26 4.61
-12 -1 13 7.61 4.04
-13 12 -13 4.92 3.52
1 -13 -16 114.84 16.29
-12 -1 16 107.13 11.35
-13 12 -16 114.19 16.28
1 -13 -19 4.73 2.96
-12 -1 19 5.29 4.41
-13 12 -19 6.32 5.48
-11 -2 -21 1.91 2.2
-13 11 21 3.18 1.55
-11 -2 -18 16.43 4.52
-13 11 18 8.72 7.52
-11 -2 -15 84.77 16.46
-13 11 15 97.53 12.94
-11 -2 -15 86.59 16.3
-2 13 -15 102.9 8.96
-11 -2 -12 26.83 6.95
-13 11 12 7.16 4.49
-11 -2 -12 13.49 6.01
-2 13 -12 17.07 3.13
2 -13 9 0.56 1.68
-11 -2 -9 4.36 3.61
-2 13 -9 0.5 1.05
-13 11 9 3.72 3.69
-11 -2 -9 1.67 2.52
-2 13 -9 1.3 2.36
2 -13 6 174.81 9.3
-11 -2 -6 169.56 13.2
-13 11 6 190.13 16.95
-11 -2 -6 181.99 11.34
-13 11 6 172.24 8.49
2 -13 3 54.12 10.85
-11 -2 -3 48.73 9.52
-13 11 3 48.84 5.06
-11 -2 -3 61.74 9.36
-13 11 3 75.77 16.01
2 -13 0 0.24 3.77
-11 -2 0 7.82 4.63
-13 11 0 0.76 1.99
-11 -2 0 2.84 1.69
-13 11 0 1.2 3.12
2 -13 -3 16.45 6.62
-11 -2 3 23.29 5.49
-13 11 -3 17.68 4.49
11 2 -3 11.99 3.64
-13 11 -3 15.42 4.47
2 -13 -6 30.98 10.65
-11 -2 6 29.5 8.32
-13 11 -6 23.03 5.07
-13 11 -6 30.41 9.06
11 2 -6 28.25 2.14
2 -13 -9 277.98 12.14
-13 11 -9 254.31 9.59
-11 -2 9 266.56 14.86
-13 11 -9 247.39 15.4
2 -13 -12 35.43 11.92
-11 -2 12 31.3 7.51
-13 11 -12 26.75 7.15
2 -13 -15 1.95 7.32
-11 -2 15 9.18 2.56
-13 11 -15 1.99 1.98
2 -13 -18 32.93 8.41
-11 -2 18 21.5 7.91
-13 11 -18 37.73 7.94
2 -13 -21 10.61 7.71
-11 -2 21 8.37 4.18
-13 11 -21 15.27 4.74
-10 -3 -22 73.91 19.26
-13 10 22 52.34 18.28
-10 -3 -19 2.41 2.17
-10 -3 -16 202.01 11.32
-13 10 16 156.49 29.97
-3 13 -16 185.54 8.75
-10 -3 -13 1.87 3.2
-13 10 13 9.54 5.44
-3 13 -13 4 2.26
3 -13 10 379.58 12.83
-10 -3 -10 335.43 21.28
-13 10 10 379.75 17.45
-10 -3 -10 356.91 15.24
-3 13 -10 360.92 14.67
3 -13 7 14 4.04
-10 -3 -7 25.04 6.71
-3 13 -7 11.64 2.51
-13 10 7 22.08 5.73
-10 -3 -7 13.39 6.42
-3 13 -7 15.44 3.82
-13 10 7 12.74 4.49
3 -13 4 1285.01 35.24
-10 -3 -4 1258.23 35.24
-13 10 4 1259.49 37.32
-10 -3 -4 1297.46 35.6
-13 10 4 1281.89 37.7
3 -13 1 25.44 7.57
-10 -3 -1 24.13 9.06
-13 10 1 27.51 8.97
-13 10 1 21.41 4.51
3 -13 -2 92.81 16.23
-10 -3 2 94.8 9.03
-13 10 -2 86.14 6.03
10 3 -2 73.31 5.76
-13 10 -2 88.64 10.97
3 -13 -5 68.85 8.29
-10 -3 5 66.85 15.2
-13 10 -5 62.45 6.52
10 3 -5 48.39 3.97
-13 10 -5 62.51 5.4
3 -13 -8 714.57 28.54
-13 10 -8 657.06 19.12
-10 -3 8 737.7 21.46
13 -10 8 687.7 17.55
-13 10 -8 689.51 20.12
3 -13 -11 4.02 3.15
-13 10 -11 7.18 1.69
-10 -3 11 7.82 3.15
-13 10 -11 9.78 3.63
3 -13 -14 221.95 13.54
-10 -3 14 204.45 30.36
-13 10 -14 216.73 14.3
3 -13 -17 45.98 8.5
-10 -3 17 40.18 12.47
-13 10 -17 57.83 11.92
3 -13 -20 120.46 19.93
-10 -3 20 72.44 18.34
-13 10 -20 117.15 25.92
-9 -4 -20 73.78 15.04
-13 9 20 54.43 14.7
-9 -4 -17 124.3 18.24
-13 9 17 143.36 14.39
-4 13 -17 142.39 10.43
-9 -4 -14 270.35 13.2
-13 9 14 270.07 17.13
-4 13 -14 293.59 12.47
-9 -4 -11 895.22 28.74
-13 9 11 905.02 38.38
-4 13 -11 964.39 29.75
-13 9 11 903.88 27.71
4 -13 8 114.97 4.6
-9 -4 -8 104.49 13.58
-4 13 -8 116.59 5.69
-13 9 8 134.47 16.03
-4 13 -8 110.15 12.99
-13 9 8 125.08 6.38
4 -13 5 438.71 13.3
-9 -4 -5 388.68 21.53
-4 13 -5 417.77 12.88
-13 9 5 421.44 18.7
-13 9 5 382.22 16.46
-4 13 -5 391.03 17.56
4 -13 2 361.67 9.99
-9 -4 -2 326.42 14.99
-13 9 2 301.39 15.37
-13 9 2 351.8 11.15
4 -13 -1 650.58 18.78
-9 -4 1 642.09 20.07
-13 9 -1 644.5 15.92
-13 9 -1 630.93 16.85
4 -13 -4 324.18 18.69
-9 -4 4 354.35 24.13
-13 9 -4 364.01 13.21
9 4 -4 334 8.57
-13 9 -4 381.57 21.67
4 -13 -7 853.14 25.33
-13 9 -7 834.37 23.08
-9 -4 7 833.36 28.94
-13 9 -7 863.7 25.62
9 4 -7 860.26 21.92
4 -13 -10 118.05 17.96
-13 9 -10 144.44 8.26
-9 -4 10 130.14 14.58
-13 9 -10 133.86 13.19
4 -13 -13 579.11 25.72
-13 9 -13 519.01 21.68
-9 -4 13 538.95 28.05
-13 9 -13 556.16 32.96
4 -13 -16 7.79 3.17
-9 -4 16 12.22 3.38
-13 9 -16 12.89 5.76
4 -13 -19 141.29 23.13
-9 -4 19 143.71 17.52
-13 9 -19 166.75 13.41
4 -13 -22 30.42 15.03
-13 9 -22 43.97 14.93
-8 -5 -21 79.43 17.22
-13 8 21 41.7 14.38
-8 -5 -18 21.16 6.2
-13 8 18 17 7.51
-5 13 -18 24.64 8.41
-8 -5 -15 116.8 17.7
-13 8 15 106.22 21.49
-5 13 -15 106.86 16.15
-8 -5 -12 38.58 9.26
-13 8 12 36.41 6.13
-5 13 -12 39.06 8.76
-13 8 12 24.78 7.59
5 -13 9 142.22 3.69
-8 -5 -9 135.66 13.21
-5 13 -9 136.52 3.47
-13 8 9 144.09 14.12
-5 13 -9 154.72 7.8
-13 8 9 140.66 9.99
5 -13 6 58.28 6.06
-8 -5 -6 72.26 16.82
-5 13 -6 55.3 4.07
-13 8 6 66.66 6.05
-13 8 6 63.42 11.21
-5 13 -6 73.66 16.88
5 -13 3 233.31 6.8
-5 13 -3 210.56 9.96
-8 -5 -3 211.51 9.56
-13 8 3 235.49 9.3
-13 8 3 263.03 9.92
5 -13 0 187 7.23
-8 -5 0 179.03 9.04
-13 8 0 171.82 6.72
-13 8 0 187.17 6.93
5 -13 -3 376.66 25
-8 -5 3 329.7 12.74
-13 8 -3 329.92 10.38
8 5 -3 309.84 7.44
-13 8 -3 340.57 10.88
5 -13 -6 124.57 13.53
-8 -5 6 142.5 12.41
-13 8 -6 135.09 8.24
8 5 -6 140.06 2.91
-13 8 -6 128.99 13.93
5 -13 -9 259.94 24.21
-13 8 -9 256.92 10.06
-8 -5 9 261.25 11.66
-13 8 -9 282.55 12.84
5 -13 -12 80.92 7.51
-13 8 -12 95.43 14.51
-8 -5 12 80.3 15.09
-13 8 -12 80.31 8.59
5 -13 -15 42.32 21.21
-8 -5 15 37.9 5.12
-13 8 -15 40.39 14.09
5 -13 -18 33.67 10.71
-8 -5 18 36.38 10.26
-13 8 -18 42.31 8.01
-13 8 -21 16.52 4.67
-7 -6 -22 6.6 3.7
-13 7 22 6.89 2.81
-7 -6 -19 48.98 14.76
-13 7 19 31.24 7.93
-6 13 -19 34.81 6.63
-7 -6 -16 18.27 7.88
-13 7 16 8.16 4.83
-6 13 -16 15.71 4.98
-7 -6 -13 49.94 9.04
-13 7 13 47.42 13.36
-6 13 -13 37.34 5.35
-13 7 13 29.93 7.41
-7 -6 -10 12.87 5.89
-13 7 10 13.62 6.74
-6 13 -10 19.14 4.43
-13 7 10 17.16 3.2
6 -13 7 187.91 6.8
-7 -6 -7 196.2 15.78
-6 13 -7 189.14 6.37
-13 7 7 198.57 7.53
-6 13 -7 198.46 17.12
6 -13 4 22.46 6.23
-7 -6 -4 11.47 4.12
-6 13 -4 15.72 3.89
-13 7 4 26.64 7.65
-13 7 4 16.83 5.44
-6 13 -4 18.19 5.06
6 -13 1 5.46 3.42
-7 -6 -1 1.91 3.38
-13 7 1 4.48 2.77
-13 7 1 -0.14 2.36
6 -13 -2 67.29 5.11
-7 -6 2 69.39 13.92
-13 7 -2 61.45 5.6
6 -13 -5 275.03 18.41
-7 -6 5 293.56 12.88
-13 7 -5 275.74 12.35
7 6 -5 265.38 6.61
-13 7 -5 298.4 11.76
6 -13 -8 31.04 7.83
-13 7 -8 21.74 5.28
-7 -6 8 28.81 6.6
7 6 -8 18.59 2.63
-13 7 -8 28.5 8.24
7 6 -8 21.64 2.55
6 -13 -11 116.3 13.64
-13 7 -11 152.59 8.75
-7 -6 11 116.14 7.94
-13 7 -11 125.89 6.75
6 -13 -14 5.26 3.89
-13 7 -14 3.49 2.68
-7 -6 14 4.32 2.1
-13 7 -14 7.6 3.96
6 -13 -17 65 11.66
-7 -6 17 73.34 6.89
-13 7 -17 76.6 16.41
6 -13 -20 -0.73 3.12
-13 7 -20 7.7 5.04
-6 -7 -20 81.84 13.1
-13 6 20 68.75 19.42
-7 13 -20 81.56 13.32
-6 -7 -17 8.64 5.24
-13 6 17 13.62 4.24
-7 13 -17 11.63 3.05
-6 -7 -14 77.38 23.15
-13 6 14 72.35 5.91
-7 13 -14 83.27 12.48
-6 -7 -11 9.04 6.11
-13 6 11 14.3 3.91
-7 13 -11 20.35 5.75
-13 6 11 9.95 3.56
-6 -7 -8 281.86 13.81
-13 6 8 273.35 11.64
-13 6 8 318.46 11.75
-7 13 -8 299.65 14.04
7 -13 5 0.47 0.77
-6 -7 -5 -4.31 3.12
-7 13 -5 0.24 1.01
-13 6 5 4.15 3.07
-13 6 5 0.92 2.52
-7 13 -5 3 2.47
7 -13 2 3.34 3.09
-7 13 -2 1.86 1.94
-6 -7 -2 7.15 4.18
-13 6 2 10.83 3.93
-13 6 2 9.59 3.47
7 -13 -1 78.92 7.35
-6 -7 1 99.79 13.31
-13 6 -1 89.4 11.04
-13 6 -1 80.42 4.47
7 -13 -4 243.16 8.98
-6 -7 4 239.19 9.96
-13 6 -4 241.53 12.69
6 7 -4 257.86 7.38
-13 6 -4 247.15 11.9
7 -13 -7 100.67 7.3
-13 6 -7 93.21 8.14
-6 -7 7 94.7 8.37
6 7 -7 81.25 3.12
-13 6 -7 84.23 8.12
7 -13 -10 519.89 18.09
-13 6 -10 572.27 19.65
-6 -7 10 579.24 25.34
-13 6 -10 563.96 22.55
7 -13 -13 39.02 14.2
-13 6 -13 33.89 7.57
-6 -7 13 34.49 7.68
-13 6 -13 33.43 8.99
7 -13 -16 65.01 16.27
-13 6 -16 29.19 8.92
-6 -7 16 28.33 8.24
-13 6 -16 37.65 8.76
7 -13 -19 9.12 4.18
-13 6 -19 4.95 2.77
-7 13 22 6.53 2.41
-5 -8 -21 41.36 9.71
-13 5 21 42.87 14.53
-8 13 -21 38.91 11.57
-5 -8 -18 76.51 13.48
-13 5 18 72.05 6.34
-8 13 -18 66.06 11.37
-5 -8 -15 193.66 25.46
-13 5 15 170.97 15.92
-8 13 -15 185.58 13.36
-5 -8 -12 2.37 3.19
-13 5 12 7.45 4.09
-8 13 -12 5.59 3.43
-13 5 12 -0.13 0.74
-5 -8 -9 441.42 14.63
-13 5 9 457.91 20.85
-13 5 9 483.89 12.85
-8 13 -9 439.72 20.25
-5 -8 -6 5.69 4.18
-8 13 -6 1.99 1.4
-13 5 6 2.99 3.96
-8 13 -6 1.15 1.02
-13 5 6 3.49 3.28
-8 13 -6 7.81 3.13
-8 13 -3 27.75 4.62
-5 -8 -3 39.94 10.67
-13 5 3 33.14 8.13
-13 5 3 31.14 4.52
-8 13 -3 48.1 11.38
8 -13 0 5.38 2.42
-5 -8 0 6.66 3.9
-13 5 0 -1.62 2.86
-13 5 0 1.66 1.23
8 -13 -3 462.36 16.78
-5 -8 3 475.78 16.25
-13 5 -3 504.84 13.26
-13 5 -3 475.02 13.68
8 -13 -6 82.74 7.13
-5 -8 6 78.36 7.61
-13 5 -6 78.38 12.31
-13 5 -6 88.1 7.58
8 -13 -9 505.34 17.81
-13 5 -9 500.05 20.51
-5 -8 9 547.79 22.57
-13 5 -9 507.22 17.58
5 8 -9 548.12 14.61
8 -13 -12 109.58 22.37
-13 5 -12 87 10.42
-5 -8 12 67.74 15.03
-13 5 -12 91.37 17.12
8 -13 -15 180.68 10.7
-13 5 -15 166.82 7.74
-5 -8 15 126 13.18
-13 5 -15 152.66 19.34
-13 5 -18 5.48 2.49
-8 13 21 22.6 7.94
-13 5 -21 18.02 6.53
-4 -9 -22 6.62 3.31
-13 4 22 6.93 4.2
-9 13 -22 7.41 3.55
-4 -9 -19 37.73 7.83
-13 4 19 38.82 9.84
-9 13 -19 34.09 8.32
-4 -9 -16 8.93 3.75
-13 4 16 2.77 1.71
-9 13 -16 0.6 2.54
-4 -9 -13 4.17 3.98
-13 4 13 1.67 1.7
-9 13 -13 1.44 2.47
-4 -9 -10 42.29 12.28
-13 4 10 39.3 12.95
-13 4 10 35.54 3.79
-9 13 -10 43.04 10.6
-4 -9 -7 188.62 11.83
-9 13 -7 175.29 5.01
-13 4 7 189.15 10.65
-13 4 7 188.55 9.87
-9 13 -7 202.37 9.21
-9 13 -4 0.36 1.16
-4 -9 -4 -0.22 3.43
-13 4 4 1.35 2.27
-9 13 -4 0.6 1.39
-13 4 4 0.29 1.54
-9 13 -4 4.01 3.18
-4 -9 -1 40.36 10.44
-13 4 1 30.1 8.7
-9 13 -1 32.34 6.17
-13 4 1 32.25 7.85
-9 13 -1 25.56 5.54
9 -13 -2 24.47 6.42
-4 -9 2 20.22 10.96
-13 4 -2 18.83 4.12
-13 4 -2 15.87 4.11
9 -13 -5 123.1 16.24
-4 -9 5 107.1 5.13
-13 4 -5 105.25 7.16
-13 4 -5 128.51 15.21
9 -13 -8 8.09 4.37
-13 4 -8 5.33 2.64
-4 -9 8 13.34 2.92
-13 4 -8 3.77 6.51
4 9 -8 5.83 2.26
9 -13 -11 2.24 3.68
-13 4 -11 3.91 2.89
-4 -9 11 1.13 2.24
-13 4 -11 1.89 2.25
4 9 -11 -0.22 0.64
-13 4 -14 44.88 9.96
-4 -9 14 28.78 9.98
-13 4 -14 53.99 15.48
-13 4 -17 3.39 3.18
-9 13 17 11.06 5.07
-13 4 -17 9.24 4.41
-9 13 20 6.85 4.28
-13 4 -20 8.19 3.26
-3 -10 -20 8.61 3.75
-13 3 20 7.81 3.02
-10 13 -20 5.31 2.4
-3 -10 -17 190.19 26.26
-13 3 17 139.44 27.12
-10 13 -17 166.09 11.12
-3 -10 -14 75.93 13.5
-13 3 14 79.69 10.22
-10 13 -14 82.5 16.35
-3 -10 -11 85.27 11.51
-13 3 11 98.25 16.16
-10 13 -11 110.99 9.46
-3 -10 -8 7.24 4.6
-13 3 8 4.63 2.77
-13 3 8 3.13 1.33
-10 13 -8 4.05 3.9
-10 13 -5 72.14 4.9
-3 -10 -5 72.29 9.23
-13 3 5 76.82 5.14
-10 13 -5 88.21 6.54
-13 3 5 76.95 4.94
-10 13 -5 77.01 7.38
-3 -10 -2 25.57 9.68
-13 3 2 29.75 6.45
-10 13 -2 26.01 2.95
-13 3 2 28.03 6.92
-10 13 -2 33.45 8.63
-3 -10 1 230.31 7.75
-13 3 -1 222.54 19
-10 13 1 242.3 11.5
-13 3 -1 254.33 10.07
-3 -10 4 2.53 1.28
-13 3 -4 4.56 2.51
-10 13 4 3.08 2.13
-13 3 -4 1.12 2.5
-3 -10 7 669.07 18.36
-13 3 -7 659.89 18.71
-10 13 7 621.95 18.31
-13 3 -7 673.98 20.55
-13 3 -10 15.15 4.32
-3 -10 10 29.65 6.66
-10 13 10 34.94 6.68
-13 3 -10 24.38 5.83
3 10 -10 24.17 5.1
-13 3 -13 86.73 8.49
-3 -10 13 82.48 14.07
-10 13 13 83.13 7.63
-13 3 -13 99.61 18.78
-13 3 -16 9.78 4.95
-10 13 16 9.69 5.29
-13 3 -16 7.99 3.65
-10 13 19 28.44 12.11
-13 3 -19 30.97 10.4
-10 13 22 11.35 6.55
-13 3 -22 13.42 8.95
-2 -11 -21 180.88 15.98
-13 2 21 152.36 24.82
-11 13 -21 157.52 12.84
-2 -11 -18 107.87 23.8
-13 2 18 91.79 21.02
-11 13 -18 103.03 22.77
-2 -11 -15 243.61 10.09
-13 2 15 241.3 20.94
-11 13 -15 229.89 20.7
-2 -11 -12 122.45 15.17
-13 2 12 123.18 7.6
-11 13 -12 119.34 7.94
-2 -11 -9 136.11 20.08
-13 2 9 146.74 14.85
-13 2 9 133.1 2.91
-11 13 -9 148.63 20.33
-11 13 -6 43.02 3.78
-2 -11 -6 41.32 5.98
-13 2 6 55.25 11.06
-11 13 -6 36.77 5.32
-13 2 6 38.11 4.55
-11 13 -6 45.8 11.4
-2 -11 -3 825.28 27.3
-13 2 3 773.43 29.69
-11 13 -3 829.8 24.5
-13 2 3 806.33 24.2
-11 13 -3 803.06 27.52
-2 -11 0 568.5 20.27
-13 2 0 534.35 18.7
-11 13 0 508.83 19.42
-13 2 0 496.2 15.86
-11 13 0 530.1 20.64
-2 -11 3 519.88 18.59
-13 2 -3 496.16 25.22
-11 13 3 492.69 19.53
-13 2 -3 524.19 20.82
-2 -11 6 507.95 16.53
-13 2 -6 508.5 19.75
-11 13 6 508.41 21.19
-13 2 -6 551.89 16.45
-13 2 -9 204.58 16.93
-2 -11 9 232.94 10.52
-11 13 9 186.83 16.53
-13 2 -9 215.89 11.19
2 11 -9 231.72 10.11
-13 2 -12 85.83 11.4
-2 -11 12 81.19 8.33
-11 13 12 77.66 9.56
-13 2 -12 107.49 21.29
2 11 -12 89.59 4.34
-13 2 -15 215.29 13.73
-11 13 15 210.47 20.33
-13 2 -15 189.5 17.22
-13 2 -18 62.16 12.11
-11 13 18 81.08 11.88
-13 2 -18 88.15 12.05
-11 13 21 64.09 21.34
-13 2 -21 85.15 14.71
-1 -12 -19 4.68 2.64
-13 1 19 1.94 1.88
-12 13 -19 5.77 2.99
-1 -12 -16 277.69 21.58
-13 1 16 252.51 12.47
-12 13 -16 270.87 17.39
-1 -12 -13 5.77 3.57
-13 1 13 7.95 3.08
-12 13 -13 17.27 7.6
-1 -12 -10 801.94 33.82
-13 1 10 772.49 32.02
-12 13 -10 796.06 33.71
-12 13 -7 1.99 1.2
-1 -12 -7 2.31 4.43
-12 13 -7 0.34 0.67
-13 1 7 -0.08 3.53
-13 1 7 1.17 0.94
-12 13 -7 5.84 2.74
-1 -12 -4 1255.85 41.73
-13 1 4 1337.9 20.68
-12 13 -4 1303.73 11.92
-13 1 4 1345.84 15.01
13 -1 -4 1260.03 33.58
-1 -12 -1 10.63 5.07
-13 1 1 7.32 2.74
-12 13 -1 6.8 3.96
-13 1 1 4.69 2.14
-12 13 -1 5.27 4.14
-1 -12 2 1167.91 32.43
-13 1 -2 1166.31 33.06
-12 13 2 1151.56 35.69
-13 1 -2 1089.98 35
-12 13 2 1166.27 33.56
-1 -12 5 5.24 3.13
-13 1 -5 -0.36 3.41
-12 13 5 5.81 4.42
-13 1 -5 11.36 2.67
-1 -12 8 905.44 31.26
-13 1 -8 841.98 35.77
-12 13 8 899.51 30.88
-13 1 -8 923.78 36.69
1 12 -8 950.39 29.91
-13 1 -11 9.76 3.46
-1 -12 11 13.84 2.42
-12 13 11 13.41 2.71
-13 1 -11 8.62 6.46
1 12 -11 5.74 3.18
-13 1 -14 401.7 17.53
-12 13 14 387.84 18.66
-13 1 -14 339.69 30.08
-13 1 -17 0.22 2.08
-12 13 17 3.23 2.36
-13 1 -17 8.06 4.16
-12 13 20 297.65 41.48
-13 1 -20 394.89 13.82
0 -13 -20 64.95 21.1
-13 0 20 34.31 14.32
-13 13 -20 61.75 15.66
0 -13 -17 158.94 24.67
-13 0 17 156.79 17.51
-13 13 -17 176.22 15.35
0 -13 -14 146.13 22.01
-13 0 14 152.75 14.55
-13 13 -14 145.37 19.86
0 -13 -11 271.67 23.23
-13 0 11 267.96 21.04
-13 13 -11 271.45 16.54
0 -13 -8 310.8 15.73
-13 13 -8 308.77 9.78
-13 0 8 316.37 13.82
-13 13 -8 315.7 25.96
0 -13 -5 491.51 25.44
-13 0 5 459.52 19.6
-13 13 -5 475.36 15.94
-13 0 5 500.19 14.67
-13 13 -5 475.1 21.96
13 0 -5 466.71 12.89
0 -13 -2 229.61 21.45
-13 0 2 224.92 14.89
-13 13 -2 178.25 7.87
-13 0 2 196.2 8.38
-13 13 -2 193.05 10.29
0 -13 1 553.22 21.95
-13 0 -1 619.8 19.82
-13 13 1 600.74 18.64
-13 0 -1 568.67 22.23
-13 13 1 619.79 27.29
0 -13 4 205.83 17.6
-13 0 -4 226.26 13.07
-13 13 4 201.67 8.74
-13 0 -4 186.77 15.93
-13 13 4 195.49 11.76
0 -13 7 860.54 28.93
-13 0 -7 805.33 28.27
-13 13 7 779.22 29.89
-13 0 -7 779.88 30.39
0 -13 10 59.66 5.68
-13 0 -10 50.74 11.68
-13 13 10 59.42 8.69
-13 0 -10 54.63 12.52
0 13 -10 60.6 4.59
-13 0 -13 118.98 12.27
-13 13 13 163.91 12.69
-13 0 -13 131.51 15.04
0 13 -13 156.13 7
-13 0 -16 150.28 8.47
-13 13 16 135.49 23.12
-13 0 -16 134.39 15.73
-13 0 -19 319.94 26.04
-13 13 19 257.27 28.83
-13 0 -19 277.11 30.22
-13 -1 -18 16.5 6.02
-14 13 18 32.34 12.45
-13 -1 -15 88.83 18.37
-14 13 15 79.87 15.52
-13 -1 -15 83.89 21.28
-13 -1 -12 5.9 3.26
-14 13 12 7.07 4.72
-13 -1 -12 10.08 4.01
-1 14 -12 3.03 1.96
1 -14 9 43.94 8.01
-13 -1 -9 67.29 7.79
-14 13 9 49.09 15.18
-13 -1 -9 47.98 11.56
-1 14 -9 40.09 10.08
1 -14 6 76.33 6.08
-13 -1 -6 76.54 14.36
-14 13 6 59.87 5.71
-13 -1 -6 53.08 7.04
-14 13 6 73.22 7.31
1 -14 3 95.85 8.31
-13 -1 -3 95.17 20.65
-14 13 3 87.17 6.51
-13 -1 -3 71.91 9.62
-14 13 3 114.56 19.09
1 -14 0 46.99 10
-13 -1 0 48.08 8.52
-14 13 0 38.82 5.42
-13 -1 0 36.53 8.57
-14 13 0 41.49 8.6
1 -14 -3 44.29 7.63
-13 -1 3 44.39 14.68
-14 13 -3 41.24 8.96
-13 -1 3 31.8 3.83
-14 13 -3 51.03 9.12
1 -14 -6 21.23 13.47
-13 -1 6 20.1 5.16
-14 13 -6 24.13 4.12
-14 13 -6 14.88 10.23
1 -14 -9 165.73 8.14
-14 13 -9 160.07 7.74
-13 -1 9 156.02 12.33
-14 13 -9 157.67 9.28
1 -14 -12 1.97 1.95
-13 -1 12 8.29 3.9
-14 13 -12 6.17 3.51
1 -14 -15 65.54 10.21
-13 -1 15 52.37 12.27
-14 13 -15 56.75 17.81
1 -14 -18 3.08 1.13
-13 -1 18 1.83 2.78
-14 13 -18 5.38 4.98
-12 -2 -19 1.58 3.07
-14 12 19 4.23 2.76
-12 -2 -16 74.91 15.33
-14 12 16 96.3 11.47
-12 -2 -13 2.59 1.53
-14 12 13 5.18 3
-12 -2 -13 5.08 3.39
-2 14 -13 2.91 2.31
2 -14 10 140.38 6.25
-12 -2 -10 139.17 25.75
-14 12 10 134.08 6.84
-12 -2 -10 158.5 8.31
-2 14 -10 143.93 7.75
2 -14 7 203.43 8.38
-12 -2 -7 179.37 10.69
-14 12 7 198.43 11.26
-12 -2 -7 163.84 10.87
-14 12 7 146.21 14.34
-2 14 -7 167.29 7.69
2 -14 4 5.16 1.74
-12 -2 -4 12.61 6.4
-14 12 4 7.7 5.79
-12 -2 -4 7.01 2.88
-14 12 4 8.19 3.23
2 -14 1 1.52 3.6
-12 -2 -1 3.19 2.6
-14 12 1 3.39 2.24
-12 -2 -1 0.42 1.84
-14 12 1 6.19 3.81
2 -14 -2 152.64 11.2
-12 -2 2 182.22 16.96
-14 12 -2 158.53 13.64
-14 12 -2 168.13 8.32
2 -14 -5 2.86 4.61
-12 -2 5 4.32 4.09
-14 12 -5 4.29 1.43
-14 12 -5 3.95 2.79
12 2 -5 2.8 1.93
2 -14 -8 351.8 15.44
-14 12 -8 319.95 13.55
-12 -2 8 345.35 14.44
-14 12 -8 343.2 16.11
2 -14 -11 49.79 12.29
-12 -2 11 45.66 8.63
-14 12 -11 37.1 8.37
2 -14 -14 4.4 3.03
-12 -2 14 6.85 3.11
-14 12 -14 2.82 2.58
2 -14 -17 4.7 3.99
-12 -2 17 -2.15 2.37
-14 12 -17 1.35 2.33
2 -14 -20 10.47 5.53
-12 -2 20 5.1 3.04
-11 -3 -20 29.52 8.25
-14 11 20 19.11 9.62
-11 -3 -17 114.18 18.86
-14 11 17 155.28 11.27
-11 -3 -14 25.45 10.31
-14 11 14 50.13 9.04
-3 14 -14 35.16 9.54
-11 -3 -11 221.4 14.09
-14 11 11 224.94 12.81
-3 14 -11 256.77 18.09
3 -14 8 86.28 5.27
-11 -3 -8 83.66 17.04
-14 11 8 86.47 17.49
-11 -3 -8 94.15 6.83
-3 14 -8 104.85 6.18
-14 11 8 79.36 11.22
3 -14 5 440.91 13.32
-11 -3 -5 462.93 15.43
-14 11 5 418.05 20.93
-11 -3 -5 419.26 13.98
-14 11 5 435.4 16.1
3 -14 2 118.19 11.04
-11 -3 -2 124.99 6.84
-14 11 2 117.31 6.1
-14 11 2 126.31 11.06
3 -14 -1 342.02 17.45
-11 -3 1 373.86 13.96
-14 11 -1 357.23 13.33
-14 11 -1 370.79 13.2
3 -14 -4 105.92 7.25
-11 -3 4 89.11 11.45
-14 11 -4 84.25 7.63
11 3 -4 93.4 4.56
-14 11 -4 94.41 8.91
3 -14 -7 458.71 19.37
-14 11 -7 419.26 19.1
-11 -3 7 394.36 24.32
-14 11 -7 477.46 19.4
11 3 -7 432.89 12.23
3 -14 -10 46.04 9.21
-14 11 -10 28.64 7
-11 -3 10 45.41 11.81
-14 11 -10 40.86 9.4
3 -14 -13 189.36 20.68
-11 -3 13 190.58 21.84
-14 11 -13 201.55 11.34
3 -14 -16 14.22 4.68
-11 -3 16 9.3 3.58
-14 11 -16 19.89 5.3
3 -14 -19 89.07 27.39
-11 -3 19 122.02 14.54
-14 11 -19 103.06 16.66
-10 -4 -21 176.26 23.19
-14 10 21 151.81 21.97
-10 -4 -18 90.17 23.95
-14 10 18 80.05 14.53
-10 -4 -15 275.6 10.78
-14 10 15 292.34 21.09
-4 14 -15 297.73 11.92
-10 -4 -12 318.26 20.61
-14 10 12 309.83 15.51
-4 14 -12 319.19 17.46
-14 10 12 302.43 14.01
4 -14 9 704.07 20.88
-10 -4 -9 666.35 22.91
-14 10 9 682.92 29.24
-4 14 -9 728.39 25.85
-14 10 9 692.73 22.49
4 -14 6 163.06 8.83
-10 -4 -6 166.2 10.37
-4 14 -6 155.75 7.46
-14 10 6 158.23 8.47
-14 10 6 134.15 6.73
-4 14 -6 152.76 9.74
4 -14 3 1117.14 30.87
-10 -4 -3 1103.94 38.4
-14 10 3 1100.88 35.86
-14 10 3 1072.76 30.6
4 -14 0 257.79 20.31
-10 -4 0 251.5 14.15
-14 10 0 229.69 11.67
-14 10 0 243.16 16.97
4 -14 -3 798.3 25.61
-10 -4 3 777.77 29.34
-14 10 -3 811.87 23.65
10 4 -3 744.96 21.23
-14 10 -3 798.69 24.11
4 -14 -6 442.37 19.32
-10 -4 6 437.34 20.79
-14 10 -6 427.61 15.28
-14 10 -6 445.88 19.27
10 4 -6 445.94 11.34
4 -14 -9 300.47 23.82
-14 10 -9 309.06 13.74
-10 -4 9 304.7 21.03
-14 10 -9 292.13 14.8
4 -14 -12 315.3 17.19
-14 10 -12 403.05 16.01
-10 -4 12 353.56 17.86
-14 10 -12 351.85 17.96
4 -14 -15 251.62 34.49
-10 -4 15 239.52 12.73
-14 10 -15 237.79 13.29
4 -14 -18 124.59 22.54
-10 -4 18 97.68 13.24
-14 10 -18 106.54 21.42
4 -14 -21 198.02 20.93
-14 10 -21 209.96 18.25
-9 -5 -19 6.02 3.67
-14 9 19 1.29 3.95
-9 -5 -16 266.21 21.88
-14 9 16 275.79 24.26
-5 14 -16 307.32 15.69
-9 -5 -13 62.32 15.84
-14 9 13 75.4 12.68
-5 14 -13 71.68 11.13
-14 9 13 78.76 9.77
-9 -5 -10 1112.21 45.49
-14 9 10 1160.11 23.12
-5 14 -10 1189.27 23.34
-14 9 10 1119.46 36.55
5 -14 7 0.32 0.76
-9 -5 -7 3.59 4.13
-5 14 -7 0.19 0.45
-14 9 7 3.84 3.76
-14 9 7 3.82 2.86
-5 14 -7 -0.13 2.67
5 -14 4 670.07 18.96
-9 -5 -4 691.91 32.11
-14 9 4 706.63 26.44
-14 9 4 692.85 20.27
5 -14 1 31.63 7.12
-9 -5 -1 32.05 6.92
-14 9 1 24.59 6.33
-14 9 1 47.31 10.65
5 -14 -2 989.12 30.06
-9 -5 2 966.38 34.36
-14 9 -2 1021.1 28.53
-14 9 -2 1073.15 31.97
5 -14 -5 3.17 3.29
-9 -5 5 2.94 3.73
-14 9 -5 3 3.08
9 5 -5 1.99 1.93
-14 9 -5 4.55 2.2
5 -14 -8 1034.37 17
-14 9 -8 1036.52 16.64
-9 -5 8 1015.15 36.99
-14 9 -8 1020.29 31.8
5 -14 -11 3.38 2.99
-14 9 -11 -0.02 1.28
-9 -5 11 4.2 2.9
-14 9 -11 5.35 4.17
5 -14 -14 519.25 26.91
-9 -5 14 450.38 22.74
-14 9 -14 429.36 20.99
5 -14 -17 2 4.65
-9 -5 17 1.66 2.35
-14 9 -17 5.66 5.12
5 -14 -20 194.41 24.92
-14 9 -20 276.01 22.37
-8 -6 -20 34.32 8.63
-14 8 20 30.79 8.53
-8 -6 -17 114.23 19.67
-14 8 17 90.24 23.77
-6 14 -17 112.1 14.04
-8 -6 -14 31.38 10.59
-14 8 14 51.96 15.49
-6 14 -14 37.88 5.03
-8 -6 -11 25.17 5.86
-14 8 11 16.87 5.14
-6 14 -11 6.25 3.5
-14 8 11 3.95 2.57
6 -14 8 4.12 1.22
-8 -6 -8 19.05 8.74
-6 14 -8 1.47 0.98
-14 8 8 12.49 4.39
-14 8 8 9.53 2.56
-6 14 -8 3.95 3.02
6 -14 5 21.7 6
-8 -6 -5 30.75 8.57
-6 14 -5 21.65 3.74
-14 8 5 40.88 10.37
-14 8 5 22.1 4.44
-6 14 -5 25.2 5.52
6 -14 2 484.9 15.35
-8 -6 -2 487.6 18.96
-14 8 2 466.32 20.19
-14 8 2 504.73 17.05
6 -14 -1 826.33 25.99
-8 -6 1 791.25 29.3
-14 8 -1 786.72 26.98
-14 8 -1 839.19 25.37
6 -14 -4 50.51 5.77
-8 -6 4 44.94 12.08
-14 8 -4 41.98 6.94
8 6 -4 33.48 4.94
-14 8 -4 44.4 10.25
6 -14 -7 220.4 10.06
-14 8 -7 210.88 12.53
-8 -6 7 221.41 11.88
8 6 -7 218.58 7.17
-14 8 -7 201.81 17.37
6 -14 -10 45.61 9.23
-14 8 -10 39.71 8.75
-8 -6 10 44.72 12.54
-14 8 -10 39.97 15.34
6 -14 -13 13.63 7.96
-14 8 -13 8.52 3.39
-8 -6 13 13.64 5.18
-14 8 -13 29.66 8.17
6 -14 -16 24.84 6.47
-8 -6 16 26.17 7.82
-14 8 -16 29.21 8.29
6 -14 -19 101.94 14.36
-14 8 -19 122.65 26.77
-7 -7 -21 3 2.59
-14 7 21 1.37 3.52
-7 -7 -18 1.69 3.5
-14 7 18 1.99 3.06
-7 14 -18 0.87 1.06
-7 -7 -15 9.83 5.85
-7 14 -15 8.8 4.55
-7 -7 -12 20.33 10.98
-14 7 12 37.32 11.88
-7 14 -12 35.68 9.54
-14 7 12 27.93 6.68
-7 -7 -9 5.2 4.21
-14 7 9 3.9 4.26
-14 7 9 8.08 2.51
-7 14 -9 4.85 4.39
7 -14 6 13.03 3.22
-7 -7 -6 18.92 7.33
-7 14 -6 15.5 2.47
-14 7 6 21.01 6.57
-14 7 6 22.31 5.77
-7 14 -6 23.27 7.92
7 -14 3 67.92 6.56
-7 14 -3 53.79 6.1
-7 -7 -3 64.2 15.35
-14 7 3 47.63 5.06
-14 7 3 67 4.48
-7 14 -3 56.52 12.3
7 -14 0 8.17 3.51
-7 -7 0 14.85 3.37
-14 7 0 5.53 3.31
-14 7 0 6.61 3.73
7 -14 -3 27.58 3.34
-7 -7 3 21.47 6.43
-14 7 -3 21.86 5.49
-14 7 -3 27.92 6.6
7 -14 -6 43.56 12.21
-7 -7 6 38.06 8.68
-14 7 -6 30.54 5.92
7 7 -6 25.27 4.64
-14 7 -6 30.03 11.09
7 -14 -9 8.1 5.74
-14 7 -9 4.04 1.91
-7 -7 9 5.84 2.9
7 7 -9 5.71 1.32
-14 7 -9 4.73 4.79
7 7 -9 4.65 1.13
7 -14 -12 22.09 5.77
-14 7 -12 19.33 5.07
-7 -7 12 22.46 5.24
-14 7 -12 29.5 7.57
7 -14 -15 5.25 5.69
-14 7 -15 7.55 2.87
-7 -7 15 15.81 7.95
-14 7 -15 21.07 6.87
7 -14 -18 24.25 10.34
-7 -7 18 19.95 7.38
-14 7 -18 12.97 5.37
-14 7 -21 3.27 4.5
-6 -8 -19 4.02 2.53
-14 6 19 5.9 3.55
-8 14 -19 3.91 2.21
-6 -8 -16 31.68 7.43
-14 6 16 16.46 9.76
-8 14 -16 25.57 5.21
-6 -8 -13 22.27 7.48
-14 6 13 20.43 5.47
-8 14 -13 28.54 7.27
-6 -8 -10 225.97 15.33
-14 6 10 274.36 13
-14 6 10 236.26 10.84
-8 14 -10 245.37 13.02
-6 -8 -7 26.69 6
-8 14 -7 12.45 2.7
-14 6 7 14.38 4.97
-14 6 7 12.87 3.79
-8 14 -7 23.3 6.62
-8 14 -4 15.5 4.67
-6 -8 -4 43.82 10.38
-14 6 4 28.18 4.63
-14 6 4 27.69 6.43
-8 14 -4 34.36 8.06
8 -14 1 60.58 3.79
-6 -8 -1 53.95 4.88
-14 6 1 66.56 6.94
-14 6 1 63.04 4.54
8 -14 -2 226.44 15.71
-6 -8 2 250.58 11.66
-14 6 -2 226.69 11.67
-14 6 -2 240.78 9.51
8 -14 -5 3.25 2.45
-6 -8 5 4.11 3.51
-14 6 -5 3.1 3.26
6 8 -5 11.87 2.58
-14 6 -5 6.76 7.26
8 -14 -8 64.99 11.12
-14 6 -8 63.15 8.34
-6 -8 8 74.56 11.11
6 8 -8 53.51 2.86
-14 6 -8 58.03 15.37
8 -14 -11 184.67 14.13
-14 6 -11 158.18 7.68
-6 -8 11 144.25 13.58
-14 6 -11 160.63 10.26
8 -14 -14 57.67 15.32
-14 6 -14 44.68 9.05
-6 -8 14 55.57 14.03
-14 6 -14 62.16 15.2
8 -14 -17 5.14 4.22
-6 -8 17 4.96 2.91
-14 6 -17 6.1 3.94
-8 14 20 7.07 4.65
-14 6 -20 6.45 2.45
-5 -9 -20 5.74 1.45
-14 5 20 3.41 4.75
-9 14 -20 2.33 2.2
-5 -9 -17 1.81 2.14
-14 5 17 5.03 3.93
-9 14 -17 2.84 3.1
-5 -9 -14 5.49 3.03
-14 5 14 3.98 4.19
-9 14 -14 8.42 3.43
-5 -9 -11 200.48 12.18
-14 5 11 197.06 10.74
-9 14 -11 179.75 10.5
-5 -9 -8 131.11 21.62
-14 5 8 96.12 12.95
-14 5 8 121.26 6.7
-9 14 -8 120.19 13.04
-5 -9 -5 193 24.47
-9 14 -5 201.43 8.08
-14 5 5 198.97 10.17
-9 14 -5 205.92 7.93
-14 5 5 201.42 8.72
-9 14 -5 215.83 10.23
-5 -9 -2 83.84 5.58
-14 5 2 65.02 6.22
-9 14 -2 66.74 3.33
-14 5 2 82.17 7.51
-9 14 -2 79.07 10.44
9 -14 -1 83.51 6.09
-5 -9 1 75.22 10.11
-14 5 -1 69.46 8.6
-14 5 -1 88.4 5.02
9 -14 -4 40.13 5.25
-5 -9 4 59.6 16.74
-14 5 -4 45.55 9.08
-14 5 -4 61.68 8.32
9 -14 -7 7.4 3.47
-5 -9 7 10.63 4.35
-14 5 -7 13.94 4.19
-14 5 -7 5.47 4.84
9 -14 -10 3.66 5.83
-14 5 -10 2.9 3.03
-5 -9 10 2.64 4.07
-14 5 -10 6.46 3.41
5 9 -10 5.67 1.91
9 -14 -13 182.33 10.69
-14 5 -13 167.97 16.45
-5 -9 13 184.64 10.01
-14 5 -13 146.29 10.07
-14 5 -16 1.73 1.11
-5 -9 16 -0.39 1.48
-14 5 -16 4.58 4.12
-9 14 19 5.73 3.75
-14 5 -19 9.06 5.88
-4 -10 -21 3.96 2.79
-14 4 21 6.48 4.06
-10 14 -21 5.18 4.17
-4 -10 -18 8.17 3.81
-14 4 18 8.91 5.65
-10 14 -18 3.92 2.7
-4 -10 -15 8.13 4.27
-14 4 15 8.2 5.09
-10 14 -15 5.94 4.47
-4 -10 -12 59.77 12.37
-14 4 12 85.27 20.25
-10 14 -12 70.03 12.38
-4 -10 -9 13.21 6.04
-14 4 9 18.87 4.65
-14 4 9 18.6 4.3
-10 14 -9 30.16 7.46
-4 -10 -6 35.76 16.1
-10 14 -6 27.61 3.96
-14 4 6 43.64 9.54
-10 14 -6 32 5.03
-14 4 6 28.92 5.08
-10 14 -6 31.5 9.74
-4 -10 -3 333.62 13.56
-14 4 3 309.12 12.08
-10 14 -3 327.64 12.77
-14 4 3 270.13 14.64
-10 14 -3 291.96 12
-4 -10 0 3.65 2.46
-14 4 0 4.32 3.46
-10 14 0 2.38 1.29
-14 4 0 3.3 1.53
-10 14 0 5.1 3.78
-4 -10 3 65.99 8.19
-14 4 -3 79.69 11.03
-10 14 3 72.69 13.89
-14 4 -3 64.46 8.62
-4 -10 6 3.36 3.08
-14 4 -6 3.73 3.08
-14 4 -6 1.57 3.15
-14 4 -9 49.45 8.67
-4 -10 9 54.1 6.65
-14 4 -9 38.94 8.51
4 10 -9 46.03 6.54
-14 4 -12 24.7 5.38
-4 -10 12 24.28 4.76
-10 14 12 12.47 5.77
-14 4 -12 14.66 5.26
-14 4 -15 19.38 5.37
-4 -10 15 23.93 9.71
-10 14 15 23.02 6.64
-14 4 -15 37.68 7.28
-10 14 21 10.74 3.38
-14 4 -21 26.93 9.95
-3 -11 -19 3.21 2.36
-14 3 19 8.42 4.02
-11 14 -19 6.73 5.22
-3 -11 -16 134.59 20.18
-14 3 16 129.1 13.86
-11 14 -16 137.94 12.2
-3 -11 -13 9.43 4.16
-14 3 13 12.1 4.64
-11 14 -13 11.18 4.63
-3 -11 -10 150.14 10.03
-14 3 10 168.96 10.73
-11 14 -10 150.98 13.63
-3 -11 -7 5.37 2.81
-11 14 -7 1.27 1.02
-14 3 7 -0.74 3.47
-14 3 7 0.41 1.3
-11 14 -7 3.28 1.54
-11 14 -4 234.04 10.33
-3 -11 -4 263.1 23.23
-14 3 4 292.6 13.49
-11 14 -4 267.03 10.24
-14 3 4 280.96 13.5
-11 14 -4 254.58 10.31
-3 -11 -1 77.19 15.96
-14 3 1 54.76 15.02
-11 14 -1 49.55 5.46
-14 3 1 44.9 7.48
-11 14 -1 70.29 10.42
-3 -11 2 382.83 13.37
-14 3 -2 399.03 19.04
-11 14 2 380.17 16.34
-14 3 -2 349.88 16.5
-3 -11 5 3.89 3.29
-14 3 -5 2.09 2.52
-11 14 5 2.8 3.52
-14 3 -5 6.74 4.97
-3 -11 8 82.93 5.14
-14 3 -8 75.35 12.51
-11 14 8 97.7 10.95
-14 3 -8 89 7.53
3 11 -8 83.29 10.74
-14 3 -11 39.04 7.48
-3 -11 11 28.13 7.38
-11 14 11 43.34 7.53
-14 3 -11 40.14 10.04
3 11 -11 24.66 5.6
-14 3 -14 189.25 13.91
-3 -11 14 190.89 9.79
-11 14 14 176.93 13.56
-14 3 -14 158.06 15.85
-14 3 -17 4.4 2.42
-11 14 17 5.35 5.35
-14 3 -17 8.76 13.47
-11 14 20 46.95 17.52
-14 3 -20 64.33 19.31
-2 -12 -20 35.55 12.16
-14 2 20 30.85 14.81
-12 14 -20 54.63 14.29
-2 -12 -17 77.68 17.49
-14 2 17 69.99 19.45
-12 14 -17 94.3 19.48
-2 -12 -14 133.39 20.31
-14 2 14 125.05 14.31
-12 14 -14 130.99 21.56
-2 -12 -11 374.72 26.02
-14 2 11 360.39 19.03
-12 14 -11 377.05 20.13
-2 -12 -8 50.74 10.28
-14 2 8 48.38 10.14
-14 2 8 52.29 2.79
-12 14 -8 46.14 11.1
-12 14 -5 1005.35 24.75
-2 -12 -5 1029.03 28.46
-14 2 5 1042.26 22.38
-12 14 -5 1035.69 25.6
-14 2 5 1052.13 10.78
-12 14 -5 1077.78 15.63
-2 -12 -2 100.45 18.02
-14 2 2 107.52 21.08
-12 14 -2 96.39 4.69
-14 2 2 94.22 6.68
-12 14 -2 94.12 15.9
-14 2 -1 972.23 26.15
-12 14 1 1019.78 27.79
-14 2 -1 1013.02 27.82
-12 14 1 1029.59 33.49
-2 -12 4 235.86 10.02
-14 2 -4 227.25 9.04
-12 14 4 254.24 12.05
-14 2 -4 252.85 18.01
-2 -12 7 220.68 13.53
-14 2 -7 234.02 16.57
-12 14 7 228.27 17.53
-14 2 -7 217.87 17.12
-14 2 -10 187.34 14.75
-2 -12 10 197.02 13.94
-12 14 10 160.77 12.18
-14 2 -10 161.46 17.34
2 12 -10 185.29 10.86
-14 2 -13 374.28 14.89
-12 14 13 359.67 29.03
-14 2 -13 368.62 19.54
-14 2 -16 6.18 2.96
-12 14 16 8.53 3.45
-14 2 -16 21.8 7.2
-12 14 19 247.85 20.97
-14 2 -19 174.02 33.9
-1 -13 -18 26.21 5.44
-14 1 18 24.92 6.82
-13 14 -18 26.86 7.85
-1 -13 -15 193.97 13.55
-14 1 15 162.65 12.62
-13 14 -15 233.25 16.52
-1 -13 -12 25.07 5.85
-14 1 12 22.06 8.23
-13 14 -12 34.31 5.87
-1 -13 -9 466.76 27.51
-14 1 9 466.04 24.66
-13 14 -9 484.11 23.6
-1 -13 -6 326.16 19.12
-14 1 6 321.77 13.55
-13 14 -6 333.72 12.98
-14 1 6 346.55 11.73
-13 14 -6 311.61 21.95
-1 -13 -3 315.08 18.53
-14 1 3 290.39 17.64
-13 14 -3 279.57 15.01
-14 1 3 302.86 9.53
-13 14 -3 299.42 22.12
-1 -13 0 143.89 12.97
-14 1 0 129.71 17.73
-13 14 0 140.64 9.83
-14 1 0 142.05 13.02
-13 14 0 137.36 9.83
-1 -13 3 723.04 20.67
-14 1 -3 721.71 21.11
-13 14 3 723.18 27.27
-14 1 -3 730.42 21.25
-13 14 3 753.22 23.55
-1 -13 6 65.48 8.22
-14 1 -6 63.88 11.35
-13 14 6 70.2 8.47
-14 1 -6 74.57 7.47
-1 -13 9 452.51 20.01
-14 1 -9 465.38 22.67
-13 14 9 483.94 26.52
-14 1 -9 485.64 22.17
1 13 -9 484.79 24.32
-14 1 -12 91.27 19.24
-1 -13 12 89.2 9.36
-13 14 12 124.12 9.77
-14 1 -12 94.2 10.01
1 13 -12 110.53 11.68
-14 1 -15 118.05 20.16
-13 14 15 90.33 19.8
-14 1 -15 96.72 22.61
-14 1 -18 100.57 13.19
-13 14 18 87.44 16.77
-14 1 -18 111.56 23.61
0 -14 -19 8.47 5.82
-14 0 19 7.33 5.18
-14 14 -19 6.05 4.72
0 -14 -16 136.12 20.66
-14 0 16 138.19 12.3
-14 14 -16 140.85 25.33
0 -14 -13 40.84 9.17
-14 0 13 48.81 10.66
-14 14 -13 34.48 7.89
0 -14 -10 233.51 22.61
-14 0 10 240.98 19.99
-14 14 -10 199.66 21.63
0 -14 -7 13.07 6.27
-14 14 -7 5.45 1.73
-14 0 7 7.62 4.04
-14 14 -7 10.96 4.5
0 -14 -4 29.29 6.61
-14 0 4 22.4 5.26
-14 14 -4 27.93 6.36
-14 0 4 30.5 3.22
-14 14 -4 39.5 10.32
0 -14 -1 70.6 7.71
-14 0 1 75.68 6.62
-14 14 -1 84.27 6.01
-14 0 1 87.52 4.5
-14 14 -1 91.64 9.75
0 -14 2 198.61 8.96
-14 0 -2 225.24 13.55
-14 14 2 200.72 9.26
-14 0 -2 218.23 12.06
-14 14 2 183.97 15.91
0 -14 5 18.67 3.99
-14 0 -5 24.12 6.06
-14 14 5 28.46 7.44
-14 0 -5 23.89 4.83
-14 14 5 5.65 6.41
0 -14 8 364.21 17.23
-14 0 -8 309.45 22.89
-14 14 8 327.56 18.38
-14 0 -8 330.55 20.16
0 14 -8 326.92 16.37
0 -14 11 0.35 1.41
-14 0 -11 -0.24 1.46
-14 14 11 8.38 4.08
-14 0 -11 3.57 3.55
0 14 -11 0.8 1.28
-14 0 -14 35.07 9.22
-14 14 14 60.82 14.06
-14 0 -14 53.03 16.4
-14 0 -17 14.47 4.42
-14 14 17 14.03 4.87
-14 0 -17 17.09 5.78
-14 14 20 22 9.35
-14 -1 -19 4.5 1.9
-15 14 19 4.26 3.98
-14 -1 -16 65.85 8.77
-15 14 16 50.34 16
-14 -1 -16 53.21 7.94
-14 -1 -13 4.05 3.15
-15 14 13 6.88 3.91
-14 -1 -13 3.24 2.2
-1 15 -13 3 1.93
-14 -1 -10 58.09 19.79
-15 14 10 63.29 13.4
-14 -1 -10 63.76 7.42
-1 15 -10 77.18 13.75
1 -15 7 11.3 4.35
-14 -1 -7 7.45 5.32
-15 14 7 5.52 5
-14 -1 -7 12.89 4.61
-15 14 7 9.69 5.32
-1 15 -7 15.08 4.5
1 -15 4 74.53 9.3
-14 -1 -4 88.07 17.84
-15 14 4 72.46 11.99
-14 -1 -4 69.54 11.69
-15 14 4 70.03 6.77
1 -15 1 11.19 3.21
-14 -1 -1 2.46 2.66
-15 14 1 9.85 3.18
-14 -1 -1 11.69 3.91
-15 14 1 4.08 3.64
1 -15 -2 146.58 6.52
-14 -1 2 133.9 23.08
-15 14 -2 112.66 10.71
-14 -1 2 127.24 4.61
-15 14 -2 131.07 6.6
1 -15 -5 17.45 8.99
-15 14 -5 13.71 3.27
-15 14 -5 8.1 3.01
1 -15 -8 197.69 17.74
-15 14 -8 167.77 6.19
-14 -1 8 191.41 11.94
-15 14 -8 178.67 9.8
1 -15 -11 10.8 4.66
-14 -1 11 20.6 5.29
-15 14 -11 19.27 6.4
1 -15 -14 31.04 8.38
-14 -1 14 29.79 7.17
-15 14 -14 20.84 5.5
1 -15 -17 5.21 5.09
-15 14 -17 19.82 6.13
-13 -2 -20 7.79 4.61
-15 13 20 9.87 3.4
-13 -2 -17 0.81 3
-15 13 17 3.58 4.13
-13 -2 -14 3.57 2.75
-15 13 14 2.11 2.46
-2 15 -14 3.92 2.67
-13 -2 -11 -0.11 2.23
-15 13 11 13.87 8.2
-13 -2 -11 7.19 4.63
-2 15 -11 4.73 2.05
-15 13 11 15.22 4
2 -15 8 14.77 3.68
-13 -2 -8 15.32 6.81
-15 13 8 9.93 4.48
-13 -2 -8 23.36 6.72
-2 15 -8 15.86 3.92
-15 13 8 17.56 4.02
2 -15 5 91.88 10.45
-13 -2 -5 72.38 7.5
-15 13 5 74.59 6.51
-13 -2 -5 74.42 7.46
-15 13 5 73.94 10.07
2 -15 2 75.7 8.19
-13 -2 -2 61.61 10.37
-15 13 2 69.54 7.6
-13 -2 -2 70.21 9.57
-15 13 2 73.58 6.88
2 -15 -1 3.11 3.02
-13 -2 1 2.84 4.91
-15 13 -1 3.9 2.02
-15 13 -1 1.62 4.06
2 -15 -4 8.39 4.77
-13 -2 4 7.98 4.21
-15 13 -4 6.78 2.36
-15 13 -4 3.71 3.47
2 -15 -7 2.51 4.13
-15 13 -7 1.29 0.92
-13 -2 7 0.34 2.22
-15 13 -7 7.41 5.23
2 -15 -10 3.89 4.35
-13 -2 10 2.25 1.96
-15 13 -10 2.83 4.24
2 -15 -13 13.09 6.6
-13 -2 13 6.81 3.15
-15 13 -13 10.12 2.89
2 -15 -16 27.87 8.81
-13 -2 16 30.79 7.85
-15 13 -16 26.69 7.13
2 -15 -19 1.76 2.95
-13 -2 19 0.03 2.73
-15 13 -19 3.23 2.99
-12 -3 -18 2.28 1.53
-15 12 18 3.36 2.86
-12 -3 -15 65.67 14.94
-15 12 15 100.68 13.29
-3 15 -15 88.13 6.3
-12 -3 -12 8.89 4.53
-15 12 12 22.04 6.3
-3 15 -12 19.16 4.41
-15 12 12 11.52 4.16
3 -15 9 275.89 14.58
-12 -3 -9 303.63 15.87
-15 12 9 313.34 16.21
-3 15 -9 303.48 19.38
-15 12 9 312.53 19.47
3 -15 6 28.97 4.14
-12 -3 -6 27.47 9.65
-15 12 6 31.48 6.25
-15 12 6 27.78 7.26
-3 15 -6 26.83 7
3 -15 3 86.04 7.63
-12 -3 -3 113.36 19.65
-15 12 3 111.16 9.46
-15 12 3 104.54 8.33
3 -15 0 42.66 11.7
-12 -3 0 55.24 11.32
-15 12 0 35.84 8.59
-15 12 0 53.27 6.57
3 -15 -3 49.59 10.06
-12 -3 3 73.78 13.46
-15 12 -3 69.95 10.27
-15 12 -3 73.75 15.45
3 -15 -6 2.86 3
-12 -3 6 0.69 3.54
-15 12 -6 0.83 0.92
-15 12 -6 0.7 3.44
3 -15 -9 259.38 14.23
-15 12 -9 242.17 11.21
-12 -3 9 257.26 14.3
-15 12 -9 235.23 20.03
3 -15 -12 14.3 5.78
-12 -3 12 2.11 2.81
-15 12 -12 3.6 3.94
3 -15 -15 132.16 16.21
-12 -3 15 117.44 10.28
-15 12 -15 133.47 8.76
3 -15 -18 28.32 7.5
-12 -3 18 19.82 8.86
-15 12 -18 23.07 5.24
-11 -4 -19 4.16 4.07
-15 11 19 8.64 5.52
-11 -4 -16 234.23 20.12
-15 11 16 236.18 21.19
-4 15 -16 212.26 9.1
-11 -4 -13 7.09 4.22
-15 11 13 4.68 3.31
-4 15 -13 5.54 3.34
-15 11 13 2.55 2.41
-11 -4 -10 335.45 20.01
-15 11 10 320.65 17.24
-4 15 -10 362.06 21.56
-15 11 10 351.22 21.5
4 -15 7 5.66 2.06
-11 -4 -7 12.81 5.85
-15 11 7 11.83 6.14
-15 11 7 3.46 4.7
-4 15 -7 2.64 2.57
4 -15 4 694.8 20.74
-11 -4 -4 686.52 20.56
-15 11 4 661.65 22.11
-15 11 4 606.86 26.83
4 -15 1 14.45 6.03
-11 -4 -1 13.43 4.5
-15 11 1 14.98 4.27
-15 11 1 12.35 5.24
4 -15 -2 1002.88 32.04
-11 -4 2 1023.09 27.84
-15 11 -2 981.5 30.21
-15 11 -2 1027 28.53
4 -15 -5 47.56 12.34
-11 -4 5 35.24 9.32
-15 11 -5 39.1 7.29
11 4 -5 40.46 2.88
-15 11 -5 40.45 8.75
4 -15 -8 214.25 21.18
-15 11 -8 210.33 11.08
-11 -4 8 240.18 12.67
-15 11 -8 219.38 19.93
-15 11 -11 4.85 2.35
-11 -4 11 4.93 3.42
-15 11 -11 13.65 4.36
4 -15 -14 375.88 20.92
-11 -4 14 367.69 18.14
-15 11 -14 410.18 13.28
4 -15 -17 10.02 6.48
-11 -4 17 10.18 3.89
-15 11 -17 9.67 5.02
4 -15 -20 161.9 20.2
-11 -4 20 135.27 15.07
-15 11 -20 150.23 25.88
-10 -5 -20 44.17 8.4
-15 10 20 40.32 10.77
-10 -5 -17 109.56 16.35
-15 10 17 101.72 27.31
-5 15 -17 122.37 11.19
-10 -5 -14 215.89 9.87
-15 10 14 209.12 22.04
-5 15 -14 244.5 10.48
-10 -5 -11 621.23 31.12
-15 10 11 636.39 26.8
-5 15 -11 656.65 25.85
-15 10 11 603.36 21.91
5 -15 8 287.68 10.77
-10 -5 -8 259.11 16.04
-15 10 8 236.89 16.41
-15 10 8 267.13 14.62
-5 15 -8 300.86 13.46
5 -15 5 849.99 25.57
-10 -5 -5 783.63 28.52
-15 10 5 817.52 32.27
-15 10 5 786.04 25
-5 15 -5 780.62 25.23
5 -15 2 204.45 13.8
-10 -5 -2 229.45 11.11
-15 10 2 221.94 14.02
-15 10 2 231.13 18.4
5 -15 -1 507.31 15.58
-10 -5 1 522.33 23.59
-15 10 -1 528.57 17.74
-15 10 -1 522.02 23.71
5 -15 -4 205.67 9.46
-10 -5 4 219.82 11.31
-15 10 -4 194.34 8.41
10 5 -4 181.35 7.75
-15 10 -4 210.4 14.93
5 -15 -7 507.1 29.79
-15 10 -7 511.24 19.76
-10 -5 7 570.07 19.51
-15 10 -7 565.26 26.81
5 -15 -10 243.99 14.68
-15 10 -10 241.45 10.79
-10 -5 10 229.16 13.38
-15 10 -10 226.19 15.75
5 -15 -13 665.57 26.53
-10 -5 13 658.46 31.66
-15 10 -13 745.49 18.1
5 -15 -16 28.14 6.09
-10 -5 16 19.22 4.94
-15 10 -16 28.74 6.97
5 -15 -19 155.96 31.08
-10 -5 19 229.82 16.56
-15 10 -19 217.26 39.55
-9 -6 -21 61.09 14.73
-15 9 21 55.17 19.1
-9 -6 -18 38.5 10.14
-15 9 18 22.36 8.4
-6 15 -18 20.02 7.63
-9 -6 -15 159.99 14.52
-15 9 15 185.93 17.12
-6 15 -15 199.44 18.15
-9 -6 -12 3.37 3.62
-15 9 12 2.26 4.53
-6 15 -12 1.26 0.94
-15 9 12 1.44 2.24
-9 -6 -9 287.59 19.94
-15 9 9 281.61 17.53
-6 15 -9 293.81 15.89
-15 9 9 285.73 18.18
6 -15 6 119.64 5.23
-9 -6 -6 102.75 14.25
-6 15 -6 110.64 5.81
-15 9 6 101.24 9.46
-15 9 6 132.8 7.55
-6 15 -6 114.88 13.36
6 -15 3 446.99 12.99
-9 -6 -3 423.65 19.72
-15 9 3 440.65 15.57
-15 9 3 409.51 17.33
6 -15 0 162.51 10.75
-9 -6 0 140.77 24.46
-15 9 0 135.66 8.37
-15 9 0 130.84 12.26
6 -15 -3 150.36 17.13
-9 -6 3 155.54 10.49
-15 9 -3 138.16 15.32
-15 9 -3 153.2 11.1
6 -15 -6 136.1 11.89
-9 -6 6 127.02 16.76
-15 9 -6 121.23 6.23
9 6 -6 107 4.01
-15 9 -6 117.39 6.42
6 -15 -9 429.08 19.71
-15 9 -9 382.15 16.33
-9 -6 9 381.8 26.02
-15 9 -9 407.05 17.4
6 -15 -12 21.68 6.24
-9 -6 12 21.97 6.25
-15 9 -12 9.76 5.47
6 -15 -15 96.78 14.91
-9 -6 15 85.46 10.06
-15 9 -15 101.4 20.93
6 -15 -18 93.25 18.84
-9 -6 18 35.01 16.74
-15 9 -18 77.86 20.18
6 -15 -21 29.06 16.59
-15 9 -21 55.4 16.55
-8 -7 -19 12.04 4.15
-15 8 19 14.55 5.39
-7 15 -19 15.4 3.51
-8 -7 -16 66.7 11.92
-15 8 16 62.58 17.46
-7 15 -16 53.01 10.67
-8 -7 -13 42.82 10.23
-15 8 13 58.19 12.01
-7 15 -13 33.61 10.2
-8 -7 -10 1.14 2.95
-15 8 10 -0.8 3.39
-7 15 -10 0.83 2.07
-15 8 10 2.63 2.1
-8 -7 -7 26.55 6.92
-7 15 -7 13.11 3.4
-15 8 7 19.16 11.12
-7 15 -7 21.08 5.57
7 -15 4 24.1 2.78
-8 -7 -4 21.1 4.93
-7 15 -4 13.6 3.69
-15 8 4 21.47 6.41
-15 8 4 22.42 6.49
-7 15 -4 22.97 8.33
7 -15 1 125.49 10.93
-8 -7 -1 114.31 12.73
-15 8 1 118.97 6.12
-15 8 1 120.19 6.9
7 -15 -2 42.49 11.26
-8 -7 2 48.49 11.67
-15 8 -2 45.09 7.77
-15 8 -2 43.31 6.71
7 -15 -5 2.73 3.19
-8 -7 5 -1.48 3.04
-15 8 -5 5.41 2.55
8 7 -5 -0.27 0.81
-15 8 -5 2.26 3.32
7 -15 -8 141.92 10.48
-15 8 -8 137.44 9.73
-8 -7 8 136.63 21.87
-15 8 -8 136.51 11.42
7 -15 -11 41.5 11.36
-15 8 -11 34.19 6.9
-8 -7 11 41.88 11.8
-15 8 -11 49.28 12.12
7 -15 -14 -2.45 3.43
-15 8 -14 0.08 1.37
-8 -7 14 -0.27 2.1
-15 8 -14 11.72 5.61
7 -15 -17 5.68 3.92
-8 -7 17 5.59 1.76
-15 8 -17 1.94 3.94
7 -15 -20 19.24 7.77
-7 -8 -20 4.69 3
-15 7 20 1.63 2.78
-8 15 -20 4.28 2.74
-7 -8 -17 38.66 6.24
-15 7 17 38.27 8.96
-8 15 -17 25.88 9.81
-7 -8 -14 20.36 8.67
-15 7 14 38.3 7.24
-8 15 -14 9.21 7.61
-7 -8 -11 613.43 26.62
-15 7 11 659.09 32.64
-8 15 -11 561.76 31.36
-15 7 11 588.84 24.55
-7 -8 -8 210.29 13.55
-15 7 8 213.11 20.67
-15 7 8 218.6 11.24
-8 15 -8 220.15 10.24
-7 -8 -5 12.12 6.34
-8 15 -5 12.78 3.42
-15 7 5 16.58 5.92
-15 7 5 13.34 3.71
-8 15 -5 21.29 6.07
8 -15 2 86.95 5.63
-7 -8 -2 81.34 15.99
-15 7 2 68.86 13.47
-15 7 2 90.88 10.72
8 -15 -1 312.17 14.3
-7 -8 1 292.35 26.17
-15 7 -1 339.94 16.05
-15 7 -1 322.3 11.43
8 -15 -4 34.3 10.54
-7 -8 4 32.72 7.62
-15 7 -4 35.16 7.86
-15 7 -4 28.84 6.94
8 -15 -7 154 15.74
-7 -8 7 149.76 6.59
-15 7 -7 149.95 18.12
-15 7 -7 139.41 11.1
8 -15 -10 319.92 18.62
-15 7 -10 317.01 16.3
-7 -8 10 315.3 35.06
-15 7 -10 312.09 16.85
8 -15 -13 130.52 12.4
-15 7 -13 150.88 7.93
-7 -8 13 141.97 18.81
-15 7 -13 125.43 14.74
8 -15 -16 26.53 9.44
-7 -8 16 23.14 7.15
-15 7 -16 39.53 9.55
8 -15 -19 22.7 7.2
-15 7 -19 23.29 9.98
-6 -9 -21 11.25 3.53
-15 6 21 11.16 4.62
-9 15 -21 9.28 4.34
-6 -9 -18 131.44 24.13
-15 6 18 127.3 13.26
-9 15 -18 137.52 11.91
-6 -9 -15 -0.04 2.59
-15 6 15 5.71 2.51
-9 15 -15 0.56 2.32
-6 -9 -12 358.49 25.77
-15 6 12 323.55 19.55
-9 15 -12 337.1 19.03
-6 -9 -9 149.92 12.31
-15 6 9 136.8 15.18
-15 6 9 137.33 7.5
-9 15 -9 152.59 15.43
-6 -9 -6 455.36 17.55
-9 15 -6 428.54 13.64
-15 6 6 424.63 22.78
-9 15 -6 470.64 14.15
-15 6 6 473.32 17
-9 15 -6 429.83 16.94
-6 -9 -3 51.23 11.52
-15 6 3 47.88 16.44
-9 15 -3 46.3 3.07
-15 6 3 44.14 7.45
-9 15 -3 44.51 10.64
9 -15 0 921.63 24.23
-6 -9 0 824.01 33.53
-15 6 0 871.94 24.65
-15 6 0 883.15 28.3
9 -15 -3 1.85 2.12
-6 -9 3 6.32 3.3
-15 6 -3 0.08 2.14
-15 6 -3 2.99 3.39
9 -15 -6 275.57 16.55
-6 -9 6 277.96 15.26
-15 6 -6 249.84 17.35
-15 6 -6 287.21 12.7
9 -15 -9 13.25 8.34
-15 6 -9 3.76 2.98
-6 -9 9 3.22 2.96
-15 6 -9 5.02 1.85
6 9 -9 8.42 2.7
9 -15 -12 430.92 21.78
-15 6 -12 438.03 17.64
-6 -9 12 412.39 24.24
-15 6 -12 413.19 19.49
9 -15 -15 25.58 9.11
-15 6 -15 20.65 7.54
-6 -9 15 23.48 9.23
-15 6 -15 30.36 7.33
-9 15 18 201.45 12.92
-15 6 -18 193.55 28.91
-9 15 21 1.58 5.16
-15 6 -21 9.01 4.96
-5 -10 -19 37.66 9.01
-15 5 19 35.02 10.62
-10 15 -19 41.35 9.14
-5 -10 -16 41.42 10.19
-15 5 16 44.98 14.3
-10 15 -16 35.77 9.09
-5 -10 -13 119.34 14.55
-15 5 13 149.67 16.5
-10 15 -13 138.39 16.56
-5 -10 -10 72.56 18.28
-15 5 10 73.08 15.62
-10 15 -10 73.2 9.81
-5 -10 -7 123.66 11.9
-15 5 7 130.86 11.18
-15 5 7 126.75 4.98
-10 15 -7 150.53 10.15
-10 15 -4 52.51 4.2
-5 -10 -4 80.12 16.61
-15 5 4 78.55 11.18
-10 15 -4 63.8 4.33
-15 5 4 59.99 4.9
-10 15 -4 69.38 14.55
-5 -10 -1 444.15 21.25
-15 5 1 439.95 14.84
-10 15 -1 426.98 15.1
-15 5 1 435.21 14.73
-10 15 -1 469.05 20.7
-5 -10 2 78.53 11.8
-15 5 -2 77.59 13.49
-15 5 -2 72.57 5.84
10 -15 -5 183.05 13.5
-5 -10 5 172.21 10.49
-15 5 -5 172.83 7.35
-15 5 -5 183.89 11.78
10 -15 -8 82.09 7.35
-15 5 -8 65.34 11.3
-5 -10 8 75.07 7.94
-15 5 -8 71.35 13.99
10 -15 -11 274.08 15.06
-15 5 -11 244.55 14.41
-5 -10 11 276.2 20.85
-15 5 -11 227.97 22.22
-15 5 -14 22.9 4.85
-5 -10 14 13.12 4.44
-10 15 14 17.48 6.59
-15 5 -14 23.53 11.39
-10 15 17 57.05 14.61
-15 5 -17 55.91 15.85
-10 15 20 9.54 4.91
-15 5 -20 5.59 2.58
-4 -11 -20 8.75 4.32
-15 4 20 4.07 3.96
-11 15 -20 5.55 2.78
-4 -11 -17 18.2 8.15
-15 4 17 13.92 5.37
-11 15 -17 6.12 3.77
-4 -11 -14 39.09 7.97
-15 4 14 48.96 10.94
-11 15 -14 42.44 13.37
-4 -11 -11 28.1 8.16
-15 4 11 28.7 9.65
-11 15 -11 24.39 7.76
-4 -11 -8 105.79 22.31
-15 4 8 111.73 10.35
-15 4 8 103.32 7.42
-11 15 -8 109.35 15.31
-11 15 -5 196.26 5.95
-4 -11 -5 218.49 11.75
-15 4 5 215.96 11.18
-11 15 -5 207.36 10.7
-15 4 5 203.2 10.06
-11 15 -5 204.1 13.57
-11 15 -2 773.17 20.5
-15 4 2 784.31 22.76
-11 15 -2 701.83 35.48
-4 -11 1 2.88 1.76
-15 4 -1 9.65 7.03
-11 15 1 5.39 2.03
-15 4 -1 3.58 4.09
-11 15 1 13.07 7.64
-4 -11 4 10.07 5.22
-15 4 -4 14.27 3.75
-11 15 4 7.23 4.7
-15 4 -4 0.95 3.91
-4 -11 7 206.6 19.44
-15 4 -7 182.02 13.08
-11 15 7 217.16 10.28
-15 4 -7 189.14 14.18
-15 4 -10 137.65 11.11
-4 -11 10 144.39 12.45
-11 15 10 158.58 17.57
-15 4 -10 172.66 16.14
4 11 -10 142.64 5.44
-15 4 -13 5.19 3.43
-4 -11 13 -0.05 1.8
-11 15 13 6.25 3.84
-15 4 -13 2.91 2.19
-15 4 -16 39.01 9.55
-11 15 16 55.59 15.48
-15 4 -16 47.57 15.65
-11 15 19 7.86 6.93
-15 4 -19 9.53 4.51
-3 -12 -18 7.48 2.8
-15 3 18 2.94 2.61
-12 15 -18 3.08 2.28
-3 -12 -15 179.26 26.64
-15 3 15 192.08 16.38
-12 15 -15 189.79 10.22
-3 -12 -12 37.17 12.88
-15 3 12 24.78 5.93
-12 15 -12 26.5 9.56
-3 -12 -9 75.96 13.3
-15 3 9 86.87 16.36
-12 15 -9 89.18 12.52
-3 -12 -6 33.97 8.19
-15 3 6 31.05 10.03
-12 15 -6 22.57 4.13
-15 3 6 18.76 4.8
-12 15 -6 24.94 8.01
-15 3 3 129.28 6.28
-12 15 -3 133.74 6.68
-15 3 3 134.2 7.53
-12 15 -3 147.23 13.55
-3 -12 0 6.11 3.98
-15 3 0 4.24 3.31
-12 15 0 1.78 1.78
-15 3 0 0.31 2.2
-12 15 0 5.07 5.85
-3 -12 3 313.36 12.33
-15 3 -3 299.11 19.92
-12 15 3 321.96 14.96
-15 3 -3 306.32 12.34
-3 -12 6 1 3.09
-15 3 -6 12.28 3.77
-12 15 6 11.36 3.88
-15 3 -6 8.29 5.59
-3 -12 9 145.24 14.4
-15 3 -9 129.07 18.7
-12 15 9 152.7 13.87
-15 3 -9 137.99 11.57
3 12 -9 151.54 6.25
-15 3 -12 27.04 6.24
-3 -12 12 21.88 5.96
-12 15 12 32.83 7.75
-15 3 -12 26.68 7.57
-15 3 -15 23.49 8.98
-12 15 15 44.25 9.46
-15 3 -15 40.39 8.75
-12 15 18 20.98 12.38
-15 3 -18 4.89 2.97
-2 -13 -19 7.87 7.62
-15 2 19 12.9 5.57
-13 15 -19 11.74 4.31
-2 -13 -16 157.29 15.55
-15 2 16 131.64 14.85
-13 15 -16 150.07 23.35
-2 -13 -13 5.72 2.48
-15 2 13 9.37 7.27
-13 15 -13 4.19 3.86
-2 -13 -10 139.51 21.4
-15 2 10 134.88 12.47
-13 15 -10 138.71 16.27
-2 -13 -7 7.56 3.69
-15 2 7 12.04 4.83
-13 15 -7 9.61 2.03
-15 2 7 5.17 1.19
-13 15 -7 0.05 4.59
-2 -13 -4 797.42 26.61
-15 2 4 770.07 25.56
-13 15 -4 750.43 25.38
-15 2 4 786.04 25.31
-13 15 -4 705.09 33.83
-2 -13 -1 2.64 1.57
-15 2 1 2.78 2.22
-13 15 -1 -0.08 1.69
-15 2 1 1.37 2.06
-13 15 -1 3.02 2.21
-2 -13 2 737.54 30.77
-15 2 -2 747.32 33.73
-13 15 2 748.41 30.92
-15 2 -2 752.13 24.25
-13 15 2 704.92 36
-2 -13 5 49.61 6.14
-15 2 -5 64.02 15.35
-13 15 5 61.71 6.27
-15 2 -5 76.23 7.04
-2 -13 8 221.33 19.3
-15 2 -8 224.04 13.08
-13 15 8 185.65 18.99
-15 2 -8 192.14 12.39
2 13 -8 194.38 13.57
-15 2 -11 2.07 2.33
-2 -13 11 0.73 1.61
-13 15 11 2.64 2.24
-15 2 -11 3.02 2.87
2 13 -11 1.45 1.35
-15 2 -14 85.03 15.65
-13 15 14 94.24 9.73
-15 2 -14 107.84 22.38
-15 2 -17 1.29 2.54
-13 15 17 9.96 8.11
-15 2 -17 8.65 4.21
-13 15 20 72.33 23.51
-15 2 -20 89.83 23.31
-1 -14 -17 54.64 10.69
-15 1 17 36.53 9.76
-14 15 -17 44.12 10.84
-1 -14 -14 34.97 10.89
-15 1 14 41.29 11.32
-14 15 -14 31.99 6.56
-1 -14 -11 61.47 11.58
-15 1 11 81.18 12.39
-14 15 -11 66.66 11.8
-1 -14 -8 11.71 5.63
-15 1 8 7.69 5.41
-14 15 -8 21.39 8.49
-1 -14 -5 293.61 18.82
-15 1 5 267.16 12.12
-14 15 -5 261.85 12.15
-15 1 5 274.31 10.85
-14 15 -5 281.87 11.91
-1 -14 -2 12.56 4.91
-15 1 2 12.92 5.41
-14 15 -2 4.51 2.92
-15 1 2 6.49 3.43
-14 15 -2 8.46 2.79
-1 -14 1 4.68 2.42
-15 1 -1 12.27 5.53
-14 15 1 8.5 3.79
-15 1 -1 7.01 4.95
-14 15 1 1.7 2.76
-1 -14 4 0.17 2.41
-15 1 -4 6.74 3.07
-14 15 4 2.63 2.54
-15 1 -4 1.98 1.85
-14 15 4 3.85 1.95
-1 -14 7 194.66 10.65
-15 1 -7 151.91 20.69
-14 15 7 191.68 12.54
-15 1 -7 192.56 12.02
-1 -14 10 14.71 4.59
-15 1 -10 10.67 4.13
-14 15 10 7.32 5.64
-15 1 -10 19.15 5.57
1 14 -10 14.11 4.3
-15 1 -13 25.04 12.6
-14 15 13 37.72 10.53
-15 1 -13 27.42 8.56
-15 1 -16 4.47 3.61
-14 15 16 6.75 3.33
-15 1 -16 3.38 1.74
-14 15 19 70.16 17.84
-15 1 -19 48.49 21.29
0 -15 -18 3.77 2.46
-15 0 18 9.55 3.68
-15 15 -18 6.73 2.85
0 -15 -15 17.33 5.93
-15 0 15 13.02 4.84
-15 15 -15 12.7 5.86
0 -15 -12 32.43 9.36
-15 0 12 27.37 8.56
-15 15 -12 29.44 9.63
0 -15 -9 67.65 13
-15 0 9 52.86 14.62
-15 15 -9 64.23 12.86
0 -15 -6 15 5.48
-15 0 6 3.21 2.07
-15 15 -6 7.09 2.14
-15 15 -6 5.95 4.94
0 -15 -3 15.64 5.85
-15 0 3 12.7 8.08
-15 15 -3 20.79 5.44
-15 0 3 15.01 4.13
-15 15 -3 13 3.58
0 -15 0 60.76 12.44
-15 0 0 60.76 14.38
-15 15 0 58.35 10.51
-15 0 0 56.94 5.4
-15 15 0 55.61 11.92
0 -15 3 5.69 2.96
-15 0 -3 10.28 5.18
-15 15 3 8.51 3.12
-15 0 -3 4.97 3.18
-15 15 3 10.66 5.75
0 -15 6 4.9 3.33
-15 0 -6 3.57 1.35
-15 15 6 3.39 1.99
-15 0 -6 5.06 3.97
-15 15 6 4.06 2.21
0 -15 9 20.05 5.65
-15 0 -9 11.81 4.05
-15 15 9 22.89 4.26
-15 0 -9 23.32 5.86
0 15 -9 16.79 6.71
-15 0 -12 9.94 4.99
-15 15 12 22.62 6.15
-15 0 -12 23.55 5.02
0 15 -12 20.91 4.64
-15 0 -15 6.53 5.28
-15 15 15 13.31 6.67
-15 0 -15 13.69 4.66
-15 0 -18 3.74 3.29
-15 15 18 4.46 2.67
-15 0 -18 5.24 3.94
-15 -1 -17 66.48 16.54
-16 15 17 77.78 12.31
-15 -1 -14 3.71 5.17
-16 15 14 5.06 4.58
-15 -1 -14 12.87 8.94
-15 -1 -11 252.23 10.54
-16 15 11 280.49 12.86
-15 -1 -11 282.97 13.08
-1 16 -11 245.44 10.14
-16 15 11 192.59 20.64
1 -16 8 77.2 11.4
-15 -1 -8 74.83 12.66
-16 15 8 89.43 7.82
-15 -1 -8 79.04 12.59
-16 15 8 88.26 11.39
-1 16 -8 79.21 11.54
1 -16 5 96.5 12.51
-15 -1 -5 115.6 20.65
-16 15 5 105.9 7.63
-15 -1 -5 97.22 7.54
-16 15 5 103.28 7.15
1 -16 2 0.22 1.96
-15 -1 -2 5.83 3.85
-16 15 2 1.52 2.33
-15 -1 -2 2.12 1.73
-16 15 2 3.32 2.9
1 -16 -1 426.86 24.99
-15 -1 1 443.63 25.54
-16 15 -1 417.48 22.18
-15 -1 1 445.49 20.53
-16 15 -1 438.01 22.79
1 -16 -4 37.37 8.73
-15 -1 4 30.64 5.14
-16 15 -4 25.8 6.35
-16 15 -4 37.43 10.39
1 -16 -7 232.44 16.6
-15 -1 7 206.82 14.04
-16 15 -7 211.95 9.94
-16 15 -7 219.25 17.76
1 -16 -10 68.67 13.41
-15 -1 10 52.89 12.02
-16 15 -10 58.39 17.04
1 -16 -13 69.81 17.35
-15 -1 13 69.87 7.05
-16 15 -13 71.46 19.85
1 -16 -16 20.73 7.33
-15 -1 16 11.41 5.63
-16 15 -16 24.83 5.62
-14 -2 -18 41.97 16.77
-16 14 18 66.14 12
-14 -2 -12 123.81 19.19
-16 14 12 129.17 8.67
-14 -2 -12 139.22 13.42
-2 16 -12 114.17 8.3
-16 14 12 91.55 11.24
-14 -2 -9 25.61 7.81
-16 14 9 25.67 6.55
-14 -2 -9 20.06 8.41
-2 16 -9 21.95 6.12
-16 14 9 24.13 5.79
2 -16 6 375.88 16.64
-14 -2 -6 374.16 18.53
-16 14 6 373.08 20.11
-14 -2 -6 359.19 30.56
-16 14 6 373.22 20.77
2 -16 3 7.67 3.65
-14 -2 -3 6.61 5.31
-16 14 3 3.82 2.87
-14 -2 -3 4.86 2.54
-16 14 3 4.21 3.11
2 -16 0 409.86 16.98
-14 -2 0 408.72 22.62
-16 14 0 366.69 17.99
-16 14 0 411.71 15.31
2 -16 -3 -1.21 2.51
-14 -2 3 3.68 3.44
-16 14 -3 2.26 1.91
-16 14 -3 2.71 2.47
2 -16 -6 218.03 16.29
-14 -2 6 195.48 12.7
-16 14 -6 217.85 11.16
-16 14 -6 183.64 13.96
2 -16 -9 9.17 6.92
-14 -2 9 7.06 6.33
-16 14 -9 4.44 4.54
2 -16 -12 164.64 21.96
-14 -2 12 188.39 16.19
-16 14 -12 191.69 10.58
2 -16 -15 4.73 4.38
-14 -2 15 5.49 2.71
-16 14 -15 -2.71 3.01
2 -16 -18 94.78 12.84
-14 -2 18 96.28 14.03
-16 14 -18 102.69 15.68
-13 -3 -19 20.67 8.57
-16 13 19 17.43 6.29
-13 -3 -16 1.27 2.86
-16 13 16 6.53 2.05
-13 -3 -13 113.41 18.49
-16 13 13 111.45 23.37
-3 16 -13 116.5 11.74
-16 13 13 130.54 9.79
-13 -3 -10 4.65 3.13
-16 13 10 10.09 5.52
-3 16 -10 5.44 2.14
-16 13 10 3.6 2.11
3 -16 7 92.43 5.1
-13 -3 -7 94.85 14.72
-16 13 7 103.88 9.91
-16 13 7 109.99 9.09
-3 16 -7 89.82 7.92
3 -16 4 1.02 2.13
-13 -3 -4 5.44 2.51
-16 13 4 8.33 3.86
-16 13 4 5.19 2.16
3 -16 1 149.48 14.16
-13 -3 -1 156.73 9.21
-16 13 1 143.8 8.72
-16 13 1 162.02 16.69
3 -16 -2 61.69 13.78
-13 -3 2 48.44 9.72
-16 13 -2 40.43 11.14
-16 13 -2 38.38 9.77
3 -16 -5 116.47 8.1
-13 -3 5 124.21 13.35
-16 13 -5 113.41 5.47
-16 13 -5 119.47 14.1
3 -16 -8 6.49 3.07
-16 13 -8 3.76 2.18
-13 -3 8 8.13 4.44
-16 13 -8 8.27 3.52
3 -16 -11 201.16 19.14
-13 -3 11 197.76 16.84
-16 13 -11 209.63 13.06
3 -16 -14 7.72 4.62
-13 -3 14 4.11 3.55
-16 13 -14 4.15 3.84
3 -16 -17 27.35 6.82
-13 -3 17 10.02 4.58
-16 13 -17 24.66 5.21
-12 -4 -17 5.66 4.57
-16 12 17 1.88 4.61
-12 -4 -14 75.48 17.12
-16 12 14 81.18 8.06
-4 16 -14 78.17 5.94
-16 12 14 63.54 8.74
-12 -4 -11 2.44 2.55
-16 12 11 -0.56 3.64
-4 16 -11 2.63 3.21
-16 12 11 0.57 1.33
4 -16 8 43.87 4.76
-12 -4 -8 57.91 18.39
-16 12 8 50.01 10.6
-16 12 8 59.18 10.32
-4 16 -8 58.07 13.65
4 -16 5 64.18 3.99
-12 -4 -5 62.86 12.64
-16 12 5 66.64 16.27
-16 12 5 63.99 5.4
4 -16 2 52.9 12.74
-12 -4 -2 60.27 14.57
-16 12 2 66.57 14.98
-16 12 2 61.52 12.58
4 -16 -1 54.47 9.14
-12 -4 1 58.25 14.25
-16 12 -1 53.62 7.4
-16 12 -1 62.35 10.4
4 -16 -4 32.78 6.58
-12 -4 4 34.57 9.82
-16 12 -4 26.9 7.06
-16 12 -4 33.22 6.84
4 -16 -7 19.99 2.87
-12 -4 7 18.51 5.36
-16 12 -7 27.46 4.78
-16 12 -7 28.86 6.88
4 -16 -10 197.76 20.81
-12 -4 10 219.48 21.3
-16 12 -10 206.56 12.1
4 -16 -13 26.78 10.8
-12 -4 13 31.67 5.79
-16 12 -13 39.37 9.44
4 -16 -16 9.9 3.86
-12 -4 16 14.94 4.99
-16 12 -16 9.81 4.55
4 -16 -19 19.52 5.99
-12 -4 19 3.47 1.54
-16 12 -19 6.82 5.49
-11 -5 -18 16.18 3.73
-16 11 18 6.21 3.57
-11 -5 -15 174.25 25.43
-16 11 15 195.47 21.98
-5 16 -15 223.29 8.62
-11 -5 -12 93.5 15.85
-16 11 12 86.6 25.45
-5 16 -12 99.05 19.96
-16 11 12 82.75 14.99
-11 -5 -9 128.53 16.83
-16 11 9 152.96 9.53
-5 16 -9 149.82 8.8
-16 11 9 136.08 13.72
5 -16 6 267.4 11.25
-11 -5 -6 234.97 20.02
-16 11 6 257.69 14.08
-16 11 6 231.91 16.2
-5 16 -6 251.89 11.66
5 -16 3 160.14 11.4
-11 -5 -3 157.56 8.19
-16 11 3 156.92 16.57
-16 11 3 171.59 9.4
5 -16 0 14.97 5.59
-11 -5 0 19.64 3.78
-16 11 0 20.95 4.91
5 -16 -3 439.59 19.52
-11 -5 3 431.02 23.51
-16 11 -3 470.79 16.18
-16 11 -3 496.35 18.34
5 -16 -6 116.01 22.58
-11 -5 6 95.82 9.72
-16 11 -6 99.89 9.03
-16 11 -6 106.79 13.79
5 -16 -9 247.91 25.5
-16 11 -9 229.9 14.66
-11 -5 9 274.98 15.77
-16 11 -9 252.85 14.21
5 -16 -12 99.68 10.91
-11 -5 12 104.66 20.85
-16 11 -12 105.77 23.1
5 -16 -15 35.97 9.93
-11 -5 15 34 10.96
-16 11 -15 39.95 9.07
5 -16 -18 61.56 10.65
-11 -5 18 33.47 9.06
-16 11 -18 42.23 7.78
-10 -6 -19 8.43 4.18
-16 10 19 4.46 4.24
-10 -6 -16 76.21 14.26
-16 10 16 88.03 11.28
-6 16 -16 96.23 13.22
-10 -6 -13 7.89 4.13
-16 10 13 14.43 5.09
-6 16 -13 9.25 6.56
-10 -6 -10 155.71 25.7
-16 10 10 151.47 15.02
-6 16 -10 167.34 11.04
-16 10 10 152.32 12.79
6 -16 7 0.48 0.96
-10 -6 -7 4.99 3.87
-16 10 7 7.26 4.19
-16 10 7 3.85 2.02
-6 16 -7 4.47 3.4
6 -16 4 542.45 17.42
-10 -6 -4 552.46 19.55
-16 10 4 527.42 20.89
-16 10 4 536.65 18.18
6 -16 1 7.2 5.31
-10 -6 -1 18.31 4.38
-16 10 1 7.2 4.74
-16 10 1 16.33 5.92
6 -16 -2 219.74 18.24
-10 -6 2 196.38 15.43
-16 10 -2 209.32 12.21
-16 10 -2 210.49 18.35
6 -16 -5 21.38 7.88
-10 -6 5 9.69 3.53
-16 10 -5 7.05 3.83
-16 10 -5 14.79 6.16
6 -16 -8 199.31 18.34
-16 10 -8 199.75 9.66
-10 -6 8 197.82 11.45
-16 10 -8 222.6 23.69
6 -16 -11 9.38 5.53
-16 10 -11 1.42 1.49
-10 -6 11 8.24 4.49
-16 10 -11 3.74 2.64
6 -16 -14 64.48 14.64
-10 -6 14 96.34 7.98
-16 10 -14 106.69 22.35
6 -16 -17 10.39 6.18
-10 -6 17 3.63 3.15
-16 10 -17 17.29 4.03
6 -16 -20 93.09 14.44
-16 10 -20 64.48 18.47
-9 -7 -20 2.45 3.28
-16 9 20 3.58 3.05
-9 -7 -17 8.17 5.77
-16 9 17 9.41 5.7
-7 16 -17 6.83 4.28
-9 -7 -14 53.86 12.31
-16 9 14 57.56 15.23
-7 16 -14 49.3 12.81
-9 -7 -11 7.38 5.09
-16 9 11 14.66 6.26
-7 16 -11 3.32 1.38
-16 9 11 6.35 3.31
-9 -7 -8 6.07 4.78
-16 9 8 2.48 1.48
-16 9 8 1.8 2.26
-7 16 -8 -0.32 2.39
7 -16 5 14.56 4.06
-9 -7 -5 4.72 5.99
-16 9 5 10.93 6.05
-16 9 5 12.22 4.15
-7 16 -5 12.96 2.86
7 -16 2 59.5 6.17
-9 -7 -2 75.46 14.19
-16 9 2 62.32 10.28
-16 9 2 62.51 11.65
7 -16 -1 3.02 2.28
-9 -7 1 7.87 6.8
-16 9 -1 3.14 3.74
-16 9 -1 8.62 4.1
7 -16 -4 82.27 15.2
-9 -7 4 104.22 18.06
-16 9 -4 80.62 11.17
-16 9 -4 84.38 8.33
7 -16 -7 184.23 9.36
-9 -7 7 170.54 9.22
-16 9 -7 166.36 7.68
-16 9 -7 195.1 15.77
7 -16 -10 4.58 2.81
-16 9 -10 -0.01 1.57
-9 -7 10 3.33 2.94
-16 9 -10 5.78 2.94
7 -16 -13 3.64 4.15
-9 -7 13 7.42 4.07
-16 9 -13 13.98 4.62
7 -16 -16 1.44 3.5
-9 -7 16 5.96 3.18
-16 9 -16 2.02 2.65
7 -16 -19 2.91 1.96
-16 9 -19 6.5 5.53
-8 -8 -18 48.19 9.76
-16 8 18 54.32 17.06
-8 16 -18 49.85 9.26
-8 -8 -15 4.26 4.26
-16 8 15 9.35 5.57
-8 16 -15 5.42 2.91
-8 -8 -12 138.56 17.33
-16 8 12 110.9 20.08
-8 16 -12 148.33 10.05
-8 -8 -9 3.11 2.1
-16 8 9 3.77 2.63
-16 8 9 1.96 2.51
-8 16 -9 4.04 2.1
-8 -8 -6 120.89 11.9
-16 8 6 122.14 7.98
-16 8 6 126.22 10.21
-8 16 -6 126.78 8.69
8 -16 3 42.19 4.51
-8 -8 -3 42.25 6.56
-16 8 3 50.31 14.78
-16 8 3 49.96 6.56
-8 16 -3 40.06 12.97
8 -16 0 621.6 18.1
-8 -8 0 579.04 22.85
-16 8 0 598.95 24.04
-16 8 0 614.63 17.92
8 -16 -3 32.26 7.81
-8 -8 3 31.94 7.96
-16 8 -3 32.41 7.05
-16 8 -3 25.68 6.22
8 -16 -6 94.73 15.54
-8 -8 6 109.65 10.21
-16 8 -6 103.83 7.54
-16 8 -6 122.58 20.9
8 -16 -9 16.97 3.8
-16 8 -9 4.28 3.74
-8 -8 9 19.77 3.63
-16 8 -9 19.17 6.51
8 -16 -12 144.75 27.16
-16 8 -12 100.31 16.73
-8 -8 12 132.38 16.88
-16 8 -12 149.56 28.37
8 -16 -15 0.8 3.37
-8 -8 15 0.4 1.73
-16 8 -15 3.75 4.24
8 -16 -18 53.95 18.18
-16 8 -18 60.83 14.53
-7 -9 -19 98.64 27.62
-16 7 19 81.83 24.82
-9 16 -19 137.79 14.14
-7 -9 -16 86.2 20.12
-16 7 16 71.35 16.11
-9 16 -16 73.58 14.42
-7 -9 -13 163.5 16.85
-16 7 13 182.21 20.56
-9 16 -13 148.44 11.85
-7 -9 -10 528.3 22.33
-16 7 10 635.22 26.37
-16 7 10 535.21 21.4
-9 16 -10 576.35 28.94
-7 -9 -7 1072.09 38.43
-16 7 7 1167.12 19.6
-16 7 7 1164.82 13.42
-9 16 -7 1073.07 43.36
-7 -9 -4 55.09 13.51
-16 7 4 39.73 16.97
-9 16 -4 41.64 3.6
-16 7 4 42.82 4.52
-9 16 -4 45.99 14.62
9 -16 1 932.29 31.7
-7 -9 -1 848.54 33.82
-16 7 1 823.3 34.66
-16 7 1 842.51 35.08
9 -16 -2 116.03 10
-7 -9 2 91.87 15.59
-16 7 -2 68.12 9.69
-16 7 -2 78.53 10.34
9 -16 -5 246.07 14.62
-7 -9 5 333.57 24.7
-16 7 -5 244.17 14.87
-16 7 -5 251.12 16.83
9 -16 -8 320.66 13.82
-16 7 -8 323.62 15.41
-7 -9 8 323.92 15.31
-16 7 -8 337.09 15.56
9 -16 -11 567.87 27.41
-16 7 -11 546.14 21.13
-7 -9 11 531.25 21.4
-16 7 -11 500.02 27.91
9 -16 -14 142.7 16.13
-16 7 -14 124.52 9.89
-7 -9 14 124.55 9.88
-16 7 -14 112.08 14.15
9 -16 -17 351.44 12.21
-16 7 -17 336.31 16.74
-9 16 20 8.52 3.1
-16 7 -20 3.68 2.6
-6 -10 -20 33.62 8.49
-16 6 20 19.69 11.34
-10 16 -20 29.76 7.19
-6 -10 -17 382.9 13.93
-16 6 17 369.79 40.3
-10 16 -17 376.46 13.69
-6 -10 -14 80.07 14.83
-16 6 14 110.3 13.65
-10 16 -14 87.8 16.53
-6 -10 -11 428.8 21.12
-16 6 11 446.84 21.82
-10 16 -11 447 17.1
-6 -10 -8 72.62 17.04
-16 6 8 79.67 18.41
-16 6 8 58.45 7.13
-10 16 -8 76.87 11.76
-6 -10 -5 294.98 13.34
-16 6 5 309.91 14.46
-10 16 -5 310.39 11.71
-16 6 5 293.84 15.42
-10 16 -5 319.4 15.43
-6 -10 -2 118.38 11.43
-16 6 2 104.42 12.54
-10 16 -2 97.98 6.44
-16 6 2 104.82 8.83
-10 16 -2 104.94 8.38
10 -16 -1 526.4 24.17
-6 -10 1 503.31 23.77
-16 6 -1 532.29 18.42
-16 6 -1 514.25 17.79
10 -16 -4 248.3 15.61
-6 -10 4 252.75 13.95
-16 6 -4 263.43 11.54
-16 6 -4 268.35 14.55
10 -16 -7 620.33 29.13
-6 -10 7 608.95 27.35
-16 6 -7 624.22 20.33
-16 6 -7 660.66 26.94
10 -16 -10 275.97 20.01
-16 6 -10 273.16 15.27
-6 -10 10 295.15 14.92
-16 6 -10 303.19 16.31
10 -16 -13 303.2 28.33
-16 6 -13 322.34 11.3
-6 -10 13 308.68 24.08
-16 6 -13 350.08 13.88
-10 16 16 71.42 15.04
-16 6 -16 73.36 16.82
-10 16 19 66.22 20.85
-16 6 -19 98.64 23.54
-5 -11 -18 79.57 23.52
-16 5 18 83.12 22.86
-11 16 -18 96.65 21.79
-5 -11 -15 7.51 3.48
-16 5 15 2.35 2.85
-11 16 -15 3.7 2.1
-5 -11 -12 144.49 22.96
-16 5 12 138.38 17.82
-11 16 -12 143.35 9.24
-5 -11 -9 6.56 3.83
-16 5 9 9.8 6.29
-11 16 -9 11.29 7.43
-5 -11 -6 549.58 24.53
-16 5 6 596.79 20.61
-11 16 -6 534.1 16.83
-16 5 6 528.59 16.61
-11 16 -6 553.55 23.34
-5 -11 -3 120.24 8.56
-16 5 3 99.33 14.56
-11 16 -3 123 5.34
-16 5 3 105.53 4.77
-11 16 -3 120.86 10.85
-5 -11 0 242.35 10.98
-16 5 0 238.96 11.71
-11 16 0 218.68 8.99
-16 5 0 231.12 10
-11 16 0 214.88 16.14
-5 -11 3 0.5 2.8
-16 5 -3 6.52 3.12
-11 16 3 4.46 2.44
-16 5 -3 5.25 2.4
-5 -11 6 384.52 20.15
-16 5 -6 371.77 17.22
-11 16 6 373.9 17.44
-16 5 -6 392.06 21.95
-16 5 -9 2.49 2.33
-5 -11 9 -0.87 2.22
-11 16 9 2.89 3.12
-16 5 -9 1.7 3.22
5 11 -9 1.08 1.28
-16 5 -12 356.94 14.3
-5 -11 12 356.1 18.94
-11 16 12 318.14 20.18
-16 5 -12 333.46 26.55
-16 5 -15 19.37 6
-11 16 15 27.93 8.22
-16 5 -15 28.57 7.59
-11 16 18 93.13 17.41
-16 5 -18 59.47 16.26
-4 -12 -19 2.2 2.84
-16 4 19 2.36 3.81
-12 16 -19 19.34 8.24
-12 16 -16 3.58 3.6
-4 -12 -13 7.7 4.31
-16 4 13 8.14 2.91
-12 16 -13 3.58 2.94
-4 -12 -10 4.71 5.12
-16 4 10 3.17 2.91
-12 16 -10 4.96 3.04
-4 -12 -7 2.05 4.48
-16 4 7 6.55 4.82
-12 16 -7 7.58 1.73
-16 4 7 7.73 2.55
-12 16 -7 10.6 3.52
-4 -12 -4 84.79 8.36
-16 4 4 109.08 6.72
-12 16 -4 95.07 5.54
-16 4 4 110.3 6.12
-12 16 -4 124.26 7.69
-4 -12 -1 72.22 6.89
-16 4 1 75.56 20.24
-12 16 -1 54.62 5.21
-16 4 1 56.85 9.12
-12 16 -1 55.31 17.46
-4 -12 2 16.88 3.98
-16 4 -2 11.3 4.72
-12 16 2 10.62 3.36
-16 4 -2 10.09 3.66
-12 16 2 10.74 5
-4 -12 5 1.38 1.81
-16 4 -5 0.15 2.99
-12 16 5 2.32 2.51
-16 4 -5 0.06 2.29
-4 -12 8 3.52 2.9
-16 4 -8 5.57 4.75
-12 16 8 4.79 2.43
-16 4 -8 2.6 2.96
-16 4 -11 18.51 4.52
-4 -12 11 5.7 3.06
-12 16 11 15.89 5.93
-16 4 -11 20.71 4.11
-16 4 -14 3.1 1.31
-12 16 14 5.26 3.87
-16 4 -14 2.52 2.63
-12 16 17 1.8 3.65
-16 4 -17 3.31 2.92
-3 -13 -17 31.62 6.88
-16 3 17 17.95 9.95
-13 16 -17 45.39 11.59
-3 -13 -14 3.41 2.62
-16 3 14 2.72 2.24
-13 16 -14 -0.03 2.39
-16 3 11 14.04 4.2
-13 16 -11 2.06 2.24
-3 -13 -8 3.05 4.98
-16 3 8 2.51 3.85
-13 16 -8 -1.79 3.07
-3 -13 -5 149.23 19.66
-16 3 5 135.47 8.77
-13 16 -5 130.7 4.75
-16 3 5 124.29 6.11
-13 16 -5 116.13 8.84
-3 -13 -2 47.29 11.86
-16 3 2 47.92 10.96
-13 16 -2 36.64 2.86
-16 3 2 30.95 4.24
-13 16 -2 36.64 12.24
-3 -13 1 73.62 14.38
-16 3 -1 74.49 17.64
-13 16 1 48.55 7.59
-16 3 -1 57.63 4.3
-13 16 1 64.22 6.63
-3 -13 4 147.13 14.67
-16 3 -4 150.87 10.22
-13 16 4 144.63 10.03
-16 3 -4 157.1 7.89
-3 -13 7 21.51 5.4
-16 3 -7 27.26 6.41
-13 16 7 18 6.16
-16 3 -7 27 9.62
-3 -13 10 9.81 3.17
-16 3 -10 5.36 1.79
-13 16 10 3.86 3.84
-16 3 -10 7.01 3.49
3 13 -10 8.06 2.38
-16 3 -13 23.4 6.46
-13 16 13 24.92 7.1
-16 3 -13 29.64 12.79
-16 3 -16 7.53 4
-13 16 16 0.82 4.25
-16 3 -16 14.72 5.01
-13 16 19 4.17 3.56
-16 3 -19 14.85 6.44
-2 -14 -18 131.64 28.19
-16 2 18 121.21 18.43
-14 16 -18 111.92 11.34
-2 -14 -15 3.26 4.07
-16 2 15 2.66 2.96
-14 16 -15 5.35 2.51
-2 -14 -12 43.72 8.06
-16 2 12 23.08 5.88
-14 16 -12 24.76 8.04
-2 -14 -9 10.69 5.29
-16 2 9 24.45 7.06
-14 16 -9 24.25 8.79
-2 -14 -6 91.5 8.1
-16 2 6 115.97 20.33
-14 16 -6 85.14 7.19
-16 2 6 78.61 3.24
-14 16 -6 74.39 7.19
-2 -14 -3 33.16 8.98
-16 2 3 45.89 7.07
-14 16 -3 39.05 5.53
-16 2 3 40.47 8.2
-14 16 -3 40.08 9.06
-2 -14 0 16.8 5.21
-16 2 0 18.45 6.4
-14 16 0 15.49 3.81
-16 2 0 14.21 3.44
-14 16 0 6.49 4.46
-2 -14 3 67.25 6.53
-16 2 -3 51.23 15.48
-14 16 3 61.45 13.59
-16 2 -3 45.72 4
-14 16 3 55.04 14.3
-2 -14 6 217.84 13.81
-16 2 -6 242.21 16.16
-14 16 6 225.32 21.71
-16 2 -6 222.92 20.95
-2 -14 9 0.82 1.26
-16 2 -9 4.26 2.77
-14 16 9 1.9 2.65
-16 2 -9 -0.66 4.37
2 14 -9 3.05 2.12
-16 2 -12 4.43 3.57
-14 16 12 8.92 6.83
-16 2 -12 5.5 2.58
-16 2 -15 0.28 1.91
-14 16 15 1.91 2.88
-16 2 -15 7.21 3.3
-14 16 18 33.59 10.43
-16 2 -18 51.85 17.67
-1 -15 -16 12.65 4.99
-16 1 16 3.77 5.17
-15 16 -16 9.25 2.99
-1 -15 -13 9.45 4.88
-16 1 13 19.86 6.33
-15 16 -13 11.76 5.88
-1 -15 -10 2.19 2.75
-16 1 10 3.26 3.92
-15 16 -10 2.67 4.02
-1 -15 -7 65.83 15.4
-16 1 7 63.46 6.39
-15 16 -7 64.46 14.26
-1 -15 -4 70.86 14.56
-16 1 4 54.14 9.43
-15 16 -4 72.01 7.25
-16 1 4 55.34 7.97
-15 16 -4 94.47 12.19
-1 -15 -1 104.54 10.39
-16 1 1 82.44 6.77
-15 16 -1 87 6.39
-16 1 1 84.6 5.07
-15 16 -1 86.36 7.21
-1 -15 2 318.76 30.75
-16 1 -2 277.84 16.05
-15 16 2 266.41 15.06
-16 1 -2 314.63 24.74
-15 16 2 311.97 27.95
-1 -15 5 55.33 12.08
-16 1 -5 69.09 16.99
-15 16 5 78.8 17.93
-16 1 -5 59.7 8.93
-15 16 5 60.56 17.82
-1 -15 8 1.33 1.81
-16 1 -8 4.12 4.13
-15 16 8 4.27 4.9
-16 1 -8 4.25 2.23
1 15 -8 1.9 1.61
-16 1 -11 5.86 4.3
-15 16 11 10.67 3.5
-16 1 -11 10.3 5.14
1 15 -11 3.45 2.83
-16 1 -14 8.04 5.3
-15 16 14 1.59 4.24
-16 1 -14 7.48 4.71
-16 1 -17 62.37 19.47
-15 16 17 74.56 21.06
-16 1 -17 59.96 20.97
0 -16 -17 37.46 12.99
-16 0 17 33.15 11.98
-16 16 -17 25.82 6.49
0 -16 -14 9.19 5.14
-16 0 14 3.58 2.72
-16 16 -14 8.41 4.54
0 -16 -11 57.51 19.04
-16 0 11 56.7 17.91
-16 16 -11 44.12 5.88
0 -16 -8 16.42 6.83
-16 0 8 8.31 4.62
-16 16 -8 7.01 6.17
0 -16 -5 80.21 13.99
-16 0 5 60.7 10.12
-16 16 -5 40.93 8.12
-16 16 -5 55.37 13.68
0 -16 -2 43.93 14.26
-16 0 2 44.17 14.25
-16 16 -2 45.86 8.58
-16 0 2 38.38 5.16
-16 16 -2 46.76 5.22
0 -16 1 87.43 12.59
-16 0 -1 105.41 12.93
-16 16 1 92.23 9.44
-16 0 -1 97.54 9.64
-16 16 1 86.88 6.49
0 -16 4 7.94 3.04
-16 0 -4 7.78 4.09
-16 16 4 2.75 3.3
-16 0 -4 6.81 2.92
-16 16 4 1.55 4.08
0 -16 7 78.24 11.48
-16 0 -7 84.19 12.09
-16 16 7 85.14 10.19
-16 0 -7 81.52 15.77
-16 16 7 94.39 9.29
-16 0 -10 53.28 12.29
-16 16 10 47.2 15.82
-16 0 -10 46.99 12.49
0 16 -10 36.25 9.34
-16 16 10 41.51 12.34
-16 0 -13 45.42 14.56
-16 16 13 28.65 14.01
-16 0 -13 41.82 8.91
-16 0 -16 9.34 5.2
-16 0 -16 5.82 3
-16 -1 -15 0.74 2.57
-17 16 15 2.69 3.86
-17 16 15 4.7 3.04
-16 -1 -12 256.15 16.04
-17 16 12 211.26 28.41
-16 -1 -12 263.84 32.05
-17 16 12 248 18.51
-16 -1 -9 3.9 2.83
-17 16 9 22.27 6.59
-16 -1 -9 7.69 4.7
-1 17 -9 12.82 4.01
-17 16 9 17.59 5.11
1 -17 6 669.38 23.26
-16 -1 -6 692.89 28.72
-17 16 6 633.44 31.32
-16 -1 -6 635.22 28.42
-17 16 6 652.12 29.27
1 -17 3 12.16 4.42
-16 -1 -3 3.69 3.65
-17 16 3 4.97 4.36
-16 -1 -3 6.6 3.96
-17 16 3 4.89 5.41
1 -17 0 408.16 22.94
-16 -1 0 406.72 21.32
-17 16 0 437.02 18.69
-16 -1 0 422.89 16.41
-17 16 0 424.06 27.97
1 -17 -3 9.63 3.82
-16 -1 3 1.58 3.5
-17 16 -3 1.22 3.02
-17 16 -3 0.61 3.37
1 -17 -6 444.53 19.02
-16 -1 6 453.29 19.65
-17 16 -6 393.91 15.2
-17 16 -6 422.94 17.24
1 -17 -9 20.73 5.49
-16 -1 9 14.52 7.15
-17 16 -9 3.68 3.46
1 -17 -12 216.59 22.51
-16 -1 12 209.57 23.19
-17 16 -12 217.8 22.22
1 -17 -15 3.58 1.96
-16 -1 15 -0.95 3.44
-17 16 -15 1.09 2.7
-15 -2 -16 52.44 16.5
-17 15 16 53.36 21.72
-15 -2 -13 173.64 14
-17 15 13 174.16 21.91
-17 15 13 158.07 12.19
-15 -2 -10 235.85 13.25
-17 15 10 240.28 20.98
-15 -2 -10 231.37 22.13
-2 17 -10 244.94 15.37
-17 15 10 258.96 13.62
2 -17 7 485.68 22.91
-15 -2 -7 446.63 18.55
-17 15 7 465.88 18.74
-15 -2 -7 476.65 21.07
-17 15 7 473.56 39.93
-2 17 -7 459.1 21.15
2 -17 4 11.51 4.65
-15 -2 -4 12.61 5.6
-17 15 4 12.52 2.25
-15 -2 -4 10.65 5.1
-17 15 4 6.09 4.32
2 -17 1 439.66 24.41
-15 -2 -1 457.85 21.9
-17 15 1 460.54 23.38
-17 15 1 440.35 21.39
2 -17 -2 78.82 6.21
-15 -2 2 76.19 19.63
-17 15 -2 78.33 10.33
-17 15 -2 88.56 14.78
2 -17 -5 448.45 19.92
-15 -2 5 426.64 22.14
-17 15 -5 384.68 18.97
-17 15 -5 448.55 21.16
2 -17 -8 67.95 8.2
-15 -2 8 83.59 9.51
-17 15 -8 65.65 16.51
2 -17 -11 273.21 22.84
-15 -2 11 307.24 24.95
-17 15 -11 287.71 16.71
2 -17 -14 108.51 12.85
-15 -2 14 85.69 22.83
-17 15 -14 98.46 27.03
2 -17 -17 223.65 29.54
-15 -2 17 218.75 25.72
-17 15 -17 210.36 26.76
-14 -3 -17 93.41 21.97
-17 14 17 120.17 13.7
-14 -3 -14 85.18 26.1
-17 14 14 103.21 13.41
-17 14 14 95.78 15.53
-14 -3 -11 147.02 28.01
-17 14 11 190.87 12.43
-3 17 -11 154.22 18.52
-17 14 11 164.28 10.19
-14 -3 -8 19.45 4.94
-17 14 8 21.91 5.2
-17 14 8 6.33 2.18
-3 17 -8 9.84 3.53
3 -17 5 153.25 9.77
-14 -3 -5 158.21 10.89
-17 14 5 163.27 9.54
-17 14 5 174.82 11.28
3 -17 2 246.98 15.02
-14 -3 -2 231.58 12.83
-17 14 2 208.71 15.2
-17 14 2 232.28 13.22
3 -17 -1 454.77 23.02
-14 -3 1 485.03 24.51
-17 14 -1 453.03 24.48
-17 14 -1 411.48 26.97
3 -17 -4 140.46 24.03
-14 -3 4 118.74 15.35
-17 14 -4 92.98 8.19
-17 14 -4 87.54 6.83
3 -17 -7 128.15 15.83
-14 -3 7 178.83 14.58
-17 14 -7 135.5 8.13
-17 14 -7 129.66 9.76
3 -17 -10 259.18 12.36
-14 -3 10 234.3 22.83
-17 14 -10 275.08 13.06
3 -17 -13 175.92 12.54
-14 -3 13 173.36 18.94
-17 14 -13 149.78 18.56
3 -17 -16 30.26 11.95
-14 -3 16 35.86 9.8
-17 14 -16 38.46 10.62
-13 -4 -18 6.77 4.03
-17 13 18 13.25 6.03
-13 -4 -15 12.61 3.6
-17 13 15 15.93 5.68
-4 17 -15 14.97 6.63
-13 -4 -12 79.12 18.46
-17 13 12 92.86 8.99
-4 17 -12 96.49 13.13
-17 13 12 73.52 12.47
-13 -4 -9 7.79 6.56
-17 13 9 14.21 3.93
-4 17 -9 20.48 5.76
-17 13 9 14.6 4.18
4 -17 6 56.25 8.36
-13 -4 -6 53.73 14.8
-17 13 6 47.33 13.48
-17 13 6 51.89 4.97
-4 17 -6 41.81 7.02
4 -17 3 100.81 16.02
-13 -4 -3 96.34 21.65
-17 13 3 97.09 13.07
-17 13 3 84.83 6.67
4 -17 0 67.13 6.27
-13 -4 0 65.25 13.02
-17 13 0 67.05 14.23
-17 13 0 72.53 6.92
4 -17 -3 31.65 12.81
-13 -4 3 10.86 4.56
-17 13 -3 21.63 4.75
-17 13 -3 22.58 5.21
4 -17 -6 6.87 4.07
-13 -4 6 5.15 3.33
-17 13 -6 3.45 1.5
-17 13 -6 7.94 4.69
4 -17 -9 28.24 10.71
-17 13 -9 18.96 3.7
-13 -4 9 26.79 7.25
-17 13 -9 27.19 8.1
4 -17 -12 144.23 28.5
-13 -4 12 134.15 12.72
-17 13 -12 155.83 10.44
4 -17 -15 3.25 2.94
-13 -4 15 5.52 4.79
-17 13 -15 11.52 7.17
4 -17 -18 2.5 3.38
-13 -4 18 3.51 3.18
-17 13 -18 1.45 5.2
-12 -5 -19 10.79 2.79
-12 -5 -16 4.97 4.02
-17 12 16 17.85 5.26
-5 17 -16 4.36 2.62
-12 -5 -13 -0.19 2.8
-17 12 13 3.97 2.75
-5 17 -13 4.57 2.56
-12 -5 -10 6.7 1.51
-17 12 10 3.35 3.07
-5 17 -10 2.52 2.45
-17 12 10 0.75 1.35
5 -17 7 46.48 5.6
-12 -5 -7 46.99 17.35
-17 12 7 56.03 7.77
-17 12 7 59.84 10.21
-5 17 -7 47.17 14.16
5 -17 4 46.75 4.72
-12 -5 -4 48.26 16.26
-17 12 4 58.61 6.8
-17 12 4 60.75 5.23
5 -17 1 2.44 3.01
-12 -5 -1 2.2 3.34
-17 12 1 4.08 3.28
-17 12 1 3.34 3.66
5 -17 -2 26.12 3.64
-12 -5 2 36.77 7.51
-17 12 -2 28.62 5.48
-17 12 -2 30.74 8.37
5 -17 -5 41.46 9.85
-12 -5 5 31.52 8.17
-17 12 -5 34.71 7.1
-17 12 -5 38.77 10.89
5 -17 -8 26.05 6.12
-17 12 -8 20.24 4.71
-12 -5 8 25.37 5.46
-17 12 -8 27.15 6.9
5 -17 -11 3.54 2.06
-12 -5 11 3.25 1.22
-17 12 -11 0.8 2.8
5 -17 -14 1.44 2.55
-12 -5 14 1.16 2.21
-17 12 -14 2.7 2.37
5 -17 -17 24.58 10.47
-12 -5 17 15.6 6.89
-17 12 -17 10.33 5.64
-11 -6 -17 18.81 6.37
-17 11 17 17.4 4.43
-6 17 -17 12.41 4.72
-11 -6 -14 2.35 3.1
-17 11 14 4.56 4.62
-6 17 -14 2.69 2.71
-11 -6 -11 36.57 8.96
-17 11 11 17.89 4.19
-6 17 -11 38.72 9.9
-17 11 11 23.16 8.67
-11 -6 -8 31.23 8.92
-17 11 8 31.15 10.64
-17 11 8 24.7 7.19
-6 17 -8 22.69 5.32
6 -17 5 182.42 6.28
-11 -6 -5 167.5 19.56
-17 11 5 195.27 11.09
-17 11 5 180.07 8.87
-6 17 -5 152.8 12
6 -17 2 56.8 7.11
-11 -6 -2 72.52 7.7
-17 11 2 66.82 7.62
-17 11 2 57.9 6.04
6 -17 -1 46.45 4.71
-11 -6 1 47.5 11.36
-17 11 -1 37.18 8.6
-17 11 -1 56.34 10.73
6 -17 -4 37.5 9.07
-11 -6 4 41.98 10.65
-17 11 -4 42.38 9.68
-17 11 -4 38.75 9.33
6 -17 -7 41.36 8.46
-11 -6 7 23.57 4.18
-17 11 -7 28.85 5.66
-17 11 -7 33.12 11.57
6 -17 -10 6.38 5
-17 11 -10 3.34 1.23
-11 -6 10 0.12 2.21
-17 11 -10 6.81 2.81
6 -17 -13 6.03 3.91
-11 -6 13 2.32 2.26
-17 11 -13 11.6 3.59
6 -17 -16 11.6 6.9
-11 -6 16 6.76 4.31
-17 11 -16 10.09 5.61
6 -17 -19 37.1 13.72
-17 11 -19 41.53 9.87
-10 -7 -18 40.12 10.14
-17 10 18 25.24 10.1
-10 -7 -15 1.95 4.44
-17 10 15 1.12 4.39
-7 17 -15 2.02 2.71
-10 -7 -12 3.28 2.13
-17 10 12 1.55 3.61
-7 17 -12 6.89 3.94
-10 -7 -9 29.61 9.79
-17 10 9 30.89 9.3
-17 10 9 24.43 6.41
-7 17 -9 32.86 7.66
7 -17 6 1.96 1.68
-10 -7 -6 5.09 4.14
-17 10 6 0.32 1.36
-17 10 6 -0.28 1.8
-7 17 -6 6.55 2.85
7 -17 3 6.93 3.37
-10 -7 -3 10.23 3.4
-17 10 3 7.9 6.16
-17 10 3 11.68 3.22
7 -17 0 80.7 10.16
-10 -7 0 86.13 19.59
-17 10 0 66.25 6.51
-17 10 0 71.22 5.72
7 -17 -3 40.51 5.02
-10 -7 3 29.12 7.44
-17 10 -3 32.08 6
-17 10 -3 29.89 10.79
7 -17 -6 61.81 6.35
-10 -7 6 63.8 10.53
-17 10 -6 53.38 12.7
-17 10 -6 57.98 11.76
7 -17 -9 18.93 8.31
-17 10 -9 19.66 5.21
-10 -7 9 24.84 7.4
-17 10 -9 27.13 6.24
7 -17 -12 -0.65 3.45
-10 -7 12 6.58 4.03
-17 10 -12 1.35 3.56
7 -17 -15 2.55 1.67
-10 -7 15 0.95 2.66
-17 10 -15 9.92 4.54
7 -17 -18 5.15 4.54
-10 -7 18 4.37 1.82
-17 10 -18 4.72 2.97
-9 -8 -19 3.17 3.66
-17 9 19 9.19 2.99
-9 -8 -16 11.64 6
-17 9 16 7.32 3.55
-8 17 -16 9.48 3.3
-9 -8 -13 19.61 7.16
-17 9 13 39.21 9.15
-8 17 -13 31.98 9.78
-9 -8 -10 2.42 2.08
-17 9 10 4.41 2.61
-17 9 10 2 1.72
-8 17 -10 5.78 3.27
-9 -8 -7 36.81 10.71
-17 9 7 24.32 6.42
-8 17 -7 29.29 2.6
-17 9 7 35.9 6.66
-8 17 -7 31.21 3.65
8 -17 4 1.54 1.87
-9 -8 -4 0.63 5.14
-17 9 4 2.86 2.94
-17 9 4 3.35 2.55
-8 17 -4 0.33 3.26
8 -17 1 0.15 2.24
-9 -8 -1 1.55 3.02
-17 9 1 0.83 2.09
-17 9 1 3.49 2.8
8 -17 -2 246.72 10.94
-9 -8 2 261.35 12.12
-17 9 -2 219.02 14.85
-17 9 -2 237.76 18.45
8 -17 -5 88.81 7.87
-9 -8 5 87.1 10.53
-17 9 -5 62.94 7.05
-17 9 -5 78.19 14.68
8 -17 -8 25.95 9.39
-17 9 -8 19.54 4.92
-9 -8 8 28.6 8.42
-17 9 -8 11.69 6.03
8 -17 -11 29.45 8.54
-17 9 -11 14.3 5.57
-9 -8 11 23.01 8.81
-17 9 -11 6.89 5.53
8 -17 -14 2.4 4.1
-9 -8 14 0.22 2.32
-17 9 -14 2.54 1.85
8 -17 -17 0.96 3.9
-9 -8 17 4.02 3.39
-17 9 -17 12.66 5.47
-8 -9 -17 77.2 15.68
-17 8 17 74.03 20.31
-9 17 -17 60.63 9.71
-8 -9 -14 7.07 8.66
-17 8 14 4.05 2.79
-9 17 -14 3.1 2.34
-8 -9 -11 201.18 26.16
-17 8 11 209.06 17
-9 17 -11 203.62 11.02
-8 -9 -8 102.75 24.13
-17 8 8 116.11 15.55
-17 8 8 97.98 12.28
-9 17 -8 99.73 9.54
-8 -9 -5 298.89 21.72
-17 8 5 264.4 23.5
-9 17 -5 314.63 10.84
-17 8 5 308.41 12.96
-9 17 -5 272.03 16.99
9 -17 2 163.85 15.88
-8 -9 -2 191.42 10.57
-17 8 2 167.44 13.05
-17 8 2 187.28 8.36
-9 17 -2 178.75 12.06
9 -17 -1 398.24 14.87
-8 -9 1 416.95 19.66
-17 8 -1 369.07 15.55
-17 8 -1 412.77 19.96
9 -17 -4 12.63 4.45
-8 -9 4 13.23 5.48
-17 8 -4 7.76 3.52
-17 8 -4 4.18 5.95
9 -17 -7 442.72 21.11
-8 -9 7 506.94 29.83
-17 8 -7 474.16 21
-17 8 -7 466.01 22.59
9 -17 -10 33.08 7.41
-17 8 -10 32.79 8.54
-8 -9 10 29.16 6.95
-17 8 -10 36.33 10.78
9 -17 -13 106.21 23.33
-17 8 -13 118 9.19
-8 -9 13 115.39 13.09
-17 8 -13 114.09 14.83
9 -17 -16 51.09 16.5
-8 -9 16 54.87 9.62
-17 8 -16 68.57 15.12
-17 8 -19 57.79 12.06
-7 -10 -18 157.95 29
-17 7 18 207.97 21.03
-10 17 -18 191.77 17.31
-7 -10 -15 7.9 5.12
-17 7 15 9.84 3.88
-10 17 -15 4.62 2.28
-7 -10 -12 375.63 19.21
-17 7 12 395.48 16.76
-10 17 -12 368.65 18.8
-7 -10 -9 12.31 4.34
-17 7 9 26.32 5.21
-17 7 9 15.57 3.82
-10 17 -9 26.03 5.46
-7 -10 -6 783.88 15.65
-17 7 6 760.33 14.89
-10 17 -6 727.34 28.89
-17 7 6 751.99 14.84
-10 17 -6 695.21 35.11
-7 -10 -3 9.4 5.91
-17 7 3 23.49 6.18
-10 17 -3 14.98 3.48
-17 7 3 14.64 3.38
-10 17 -3 10.31 6.46
10 -17 0 1073.51 33.15
-7 -10 0 994.5 34.15
-17 7 0 1069.39 32.06
-17 7 0 1084.26 36.22
10 -17 -3 3.69 3.23
-7 -10 3 3.79 2.72
-17 7 -3 0.14 2.52
-17 7 -3 0.58 2.15
10 -17 -6 678.15 32.58
-7 -10 6 697.94 33.61
-17 7 -6 727.28 29.76
-17 7 -6 762.28 19.51
10 -17 -9 13.92 4.65
-17 7 -9 6.88 3.66
-7 -10 9 14.93 4.19
-17 7 -9 9.86 4.55
10 -17 -12 385.9 24.23
-17 7 -12 398.39 11.59
-7 -10 12 384.22 12.85
-17 7 -12 427.74 20.22
10 -17 -15 0.75 2.95
-7 -10 15 0.53 1.83
-17 7 -15 8.58 4.89
-10 17 18 187.27 19.77
-17 7 -18 150.92 20.59
-6 -11 -19 87.57 20.43
-17 6 19 43.96 17.05
-11 17 -19 82.37 17.84
-6 -11 -16 87.58 22.77
-17 6 16 104.99 9.84
-11 17 -16 89.43 17.83
-6 -11 -13 245.66 28.27
-17 6 13 259.02 22.74
-11 17 -13 264.65 12.81
-6 -11 -10 110.96 16.8
-17 6 10 100.61 22.89
-11 17 -10 117.48 14.65
-6 -11 -7 297.8 20.86
-17 6 7 314.35 19.87
-17 6 7 270.34 13.56
-11 17 -7 283.58 15.23
-6 -11 -4 36.95 14.08
-17 6 4 41.39 10.35
-11 17 -4 39.75 5.14
-17 6 4 40.99 8.22
-11 17 -4 28.72 9.16
-6 -11 -1 315.98 13.28
-17 6 1 330.08 20.75
-11 17 -1 335.33 14.23
-17 6 1 314.45 13.12
-11 17 -1 317.26 14.2
-6 -11 2 80.72 8.7
-17 6 -2 83.09 8.51
-11 17 2 78.41 5.04
-17 6 -2 90.86 6.07
-6 -11 5 464.96 21.12
-17 6 -5 468.82 22.88
-17 6 -5 460.29 29.17
11 -17 -8 20.47 9.12
-6 -11 8 30.42 7.05
-17 6 -8 29.54 5.87
-17 6 -8 45.4 8.35
-17 6 -11 384.7 19.89
-6 -11 11 412.58 18.85
-17 6 -11 432.22 21.98
-17 6 -14 28.5 12.5
-6 -11 14 25.07 8.18
-11 17 14 34.75 11.56
-17 6 -14 37.56 11.87
-11 17 17 80.6 20.31
-17 6 -17 83.44 17.13
-5 -12 -17 23.37 8.48
-17 5 17 32 11.9
-12 17 -17 41.68 9.12
-5 -12 -14 3.41 3.99
-17 5 14 2.64 4.04
-12 17 -14 4.7 2.71
-5 -12 -11 20.1 6.06
-17 5 11 45.17 11.8
-12 17 -11 37.81 8.19
-5 -12 -8 19.88 5.44
-17 5 8 7.47 4.52
-12 17 -8 4.93 4.11
-5 -12 -5 202.51 35.1
-17 5 5 184.65 22.01
-12 17 -5 208.37 13.78
-17 5 5 207 17.2
-12 17 -5 213.15 16.6
-5 -12 -2 63.94 14.59
-17 5 2 62.48 11.52
-12 17 -2 44.18 7.52
-17 5 2 57.36 6.74
-12 17 -2 43.8 4.23
-5 -12 1 97.09 9.53
-17 5 -1 100 8.59
-12 17 1 108.61 7.71
-17 5 -1 124.3 12.85
-12 17 1 92.78 11.99
-5 -12 4 6.78 4.22
-17 5 -4 3.15 3.21
-12 17 4 6.12 3.49
-17 5 -4 3.23 2.6
-5 -12 7 19.17 5.4
-17 5 -7 23.39 5.81
-12 17 7 24.64 6.66
-17 5 -7 23.01 7.11
-17 5 -10 2.04 2.86
-5 -12 10 3.59 1.74
-12 17 10 5.66 3.08
-17 5 -10 2.74 3.32
-17 5 -13 65.16 11.95
-5 -12 13 77.1 8.84
-12 17 13 72.75 11.28
-17 5 -13 82.23 9.16
-12 17 16 3.72 2.84
-17 5 -16 5.06 4.21
-17 5 -19 18.95 7.49
-4 -13 -18 6.99 4.18
-17 4 18 9.6 4.69
-13 17 -18 32.84 6.05
-4 -13 -15 74.61 15.64
-17 4 15 58.07 6.46
-13 17 -15 61.24 8.64
-4 -13 -12 2.8 1.57
-17 4 12 6.3 5.16
-13 17 -12 9.59 3.96
-4 -13 -9 42.72 9.1
-17 4 9 40.25 10.01
-13 17 -9 30.65 7.31
-4 -13 -6 46.29 12.7
-17 4 6 59.18 15.99
-13 17 -6 48.21 4.54
-17 4 6 51.08 4.55
-13 17 -6 50.01 5.53
-4 -13 -3 128.76 11.6
-17 4 3 141.92 16.39
-13 17 -3 113.6 5.68
-17 4 3 119.25 4.88
-13 17 -3 133.58 8.38
-4 -13 0 90.41 16.77
-17 4 0 85.34 16.59
-13 17 0 78.4 4.83
-17 4 0 64.33 12.7
-13 17 0 85.86 7.26
-4 -13 3 481.67 25.98
-17 4 -3 517.47 23.98
-13 17 3 428.68 27.24
-17 4 -3 500.6 33.03
-13 17 3 527.01 25.16
-4 -13 6 -0.62 2.11
-17 4 -6 3.17 1.91
-13 17 6 2.99 4.23
-17 4 -6 10.53 3.47
-17 4 -9 20.42 5.19
-13 17 9 19.35 6.39
-17 4 -9 7.4 4.67
4 13 -9 18.64 5.18
-17 4 -12 2.03 2.89
-4 -13 12 2.61 1.67
-13 17 12 3.99 4.63
-17 4 -12 5.07 2.15
-17 4 -15 35.81 13.24
-13 17 15 26.89 8.81
-17 4 -15 36.92 11.15
-13 17 18 7.62 7.3
-17 4 -18 10.94 6.52
-3 -14 -16 6.69 4.66
-17 3 16 9.07 3.44
-14 17 -16 2.04 3.24
-3 -14 -13 59.16 12.73
-17 3 13 50.49 11.6
-14 17 -13 59.8 9.91
-3 -14 -10 48.97 17.26
-17 3 10 44.84 9.34
-14 17 -10 58.02 10.27
-3 -14 -7 255.36 16.98
-17 3 7 228.56 19.98
-14 17 -7 287.14 18.56
-3 -14 -4 9.6 5.33
-17 3 4 12.71 4.22
-14 17 -4 8.57 4.47
-14 17 -4 16.7 5.77
-3 -14 -1 193.96 11.91
-17 3 1 167.23 8.04
-14 17 -1 183.03 11.55
-17 3 1 189.46 11.97
-14 17 -1 199.09 18.14
-3 -14 2 234.21 21.12
-17 3 -2 179.52 9.13
-14 17 2 209.5 16.56
-17 3 -2 222.04 12.61
-14 17 2 183.34 13.39
-3 -14 5 141.1 7.65
-17 3 -5 128.31 9.67
-14 17 5 121.67 7.31
-17 3 -5 122.16 9.72
-3 -14 8 0.83 1.83
-17 3 -8 1.26 3.28
-14 17 8 7.63 4.04
-17 3 -8 3.26 2.24
-3 -14 11 47.98 11.87
-17 3 -11 66.91 11.43
-14 17 11 62.16 15.33
-17 3 -11 75.6 7.78
-17 3 -14 76.66 18.11
-14 17 14 77.64 9.77
-17 3 -14 74.63 18.27
-14 17 17 76.79 21.98
-17 3 -17 83.96 23.65
-2 -15 -17 45.45 12.07
-17 2 17 21.91 9.59
-15 17 -17 39.07 8.83
-2 -15 -14 76.25 18.88
-17 2 14 44.59 9.56
-15 17 -14 69.25 18.09
-2 -15 -11 10.85 5.4
-17 2 11 5.85 4.63
-15 17 -11 25.09 13.57
-2 -15 -8 294.83 12.5
-17 2 8 277.62 12.38
-15 17 -8 278.33 13.76
-2 -15 -5 24.87 8.25
-17 2 5 42.69 8.99
-15 17 -5 29.09 5.71
-17 2 5 33.21 4.36
-15 17 -5 34.89 9.04
-2 -15 -2 272.02 12.91
-17 2 2 279.39 14.63
-15 17 -2 289.75 12.02
-17 2 2 262.51 14.59
-15 17 -2 286.58 19.24
-2 -15 1 195.26 11.56
-17 2 -1 172.61 10.91
-15 17 1 160.59 15.86
-17 2 -1 157.89 8.59
-15 17 1 168.32 14.99
-2 -15 4 248.99 13.33
-17 2 -4 251.6 13.28
-15 17 4 261.49 12.47
-17 2 -4 234.97 22.54
-15 17 4 239.64 14.94
-2 -15 7 47.92 4.27
-17 2 -7 39.9 7.77
-15 17 7 43.68 12.93
-17 2 -7 38.08 11.06
-15 17 7 26.81 10.1
-2 -15 10 70.2 10.23
-17 2 -10 100 21.61
-15 17 10 89.35 8.04
-17 2 -10 68.86 6.7
-17 2 -13 0.84 2.61
-15 17 13 6.29 3.12
-17 2 -13 13.63 4.87
-17 2 -16 249.5 18.46
-15 17 16 289.87 19.18
-17 2 -16 209.89 23.84
-1 -16 -15 48.11 9.76
-17 1 15 47.96 13.12
-16 17 -15 39.7 14.38
-1 -16 -12 19.78 5.14
-17 1 12 10.33 4.81
-16 17 -12 5.84 5.81
-1 -16 -9 98.65 15.38
-17 1 9 110 12.84
-16 17 -9 94.74 20.48
-17 1 6 17.99 4.7
-16 17 -6 25.06 8.23
-1 -16 -3 19.15 4.96
-17 1 3 3.39 2.66
-16 17 -3 15.37 4.99
-17 1 3 9.68 3.04
-16 17 -3 16.99 3.9
-1 -16 0 44.59 13.02
-17 1 0 48.84 10.89
-16 17 0 35.97 9.18
-17 1 0 45.07 4.52
-16 17 0 38.66 11.96
-1 -16 3 295.85 13.48
-17 1 -3 286.29 14.48
-16 17 3 298.96 15.38
-17 1 -3 271.18 17.63
-16 17 3 302.32 30.38
-1 -16 6 8.91 3.45
-17 1 -6 9.26 4.35
-16 17 6 3 4.93
-17 1 -6 7.73 3.85
-16 17 6 5.5 2.32
-1 -16 9 29.49 9.8
-17 1 -9 29.43 7.29
-16 17 9 31.44 11.77
-17 1 -9 39.46 9.47
1 16 -9 35.66 7.7
-16 17 9 33.67 9.99
-17 1 -12 4.99 5.58
-16 17 12 11.25 4.59
-17 1 -12 6.43 4.88
-17 1 -15 52.7 15.46
-16 17 15 70.35 22.27
-17 1 -15 64.52 18.61
0 -17 -16 24.6 7.39
-17 0 16 14.43 4.37
-17 17 -16 17.14 7.36
0 -17 -13 39.28 5.61
-17 0 13 35.47 11.53
-17 17 -13 47.83 9.7
0 -17 -10 39.5 9.66
-17 0 10 39.4 8.78
-17 17 -10 36.03 8.24
0 -17 -7 -0.53 4.55
-17 0 7 9.32 5.17
-17 17 -7 0.06 4.12
0 -17 -4 99.04 16.25
-17 0 4 86.07 19.24
-17 17 -4 66.8 9.91
-17 17 -4 76.8 12.64
0 -17 -1 88.45 15.44
-17 0 1 80.21 21.61
-17 17 -1 84.11 6.64
-17 0 1 73.36 8.38
-17 17 -1 89.26 17.98
0 -17 2 44.83 11.41
-17 0 -2 53.62 15.19
-17 17 2 51.42 11.75
-17 0 -2 60.86 5.97
-17 17 2 47.18 15.49
0 -17 5 107.61 6.75
-17 0 -5 105.84 26.59
-17 17 5 107.62 16.62
-17 0 -5 136.41 17.11
-17 17 5 124.12 18.78
0 -17 8 22.28 6.98
-17 0 -8 28.32 8.09
-17 17 8 22.16 7.09
-17 0 -8 30.05 8.11
-17 17 8 31.27 16.58
0 17 -8 25.88 7.42
-17 0 -11 31.47 12.43
-17 17 11 36.64 12.56
-17 0 -11 43.66 11.54
-17 17 11 35.57 11.2
-17 0 -14 32.77 8.33
-17 17 14 41.04 11.91
-17 0 -14 47.18 19.44
-17 -1 -13 47.86 11.21
-18 17 13 49.14 16.73
-17 -1 -13 36.27 17.21
-18 17 13 38.02 6.95
-17 -1 -10 39.25 14.61
-18 17 10 33.89 12.95
-17 -1 -10 51.54 12.63
-1 18 -10 42.32 11.55
-18 17 10 31.98 10.56
-17 -1 -7 202.68 13.37
-18 17 7 190.27 20.93
-17 -1 -7 210.76 17.82
-18 17 7 187.07 14.36
-1 18 -7 191.59 10.69
1 -18 4 18.38 5.14
-17 -1 -4 22.57 4.58
-18 17 4 20 9.25
-17 -1 -4 21.1 6.82
1 -18 1 45.21 5.77
-17 -1 -1 69.15 19.43
-18 17 1 57.5 13.97
-17 -1 -1 64.43 8.86
-18 17 1 73.54 8.55
1 -18 -2 185.05 11.84
-17 -1 2 134.81 19.73
-18 17 -2 137.78 8.68
-18 17 -2 147.67 20.53
1 -18 -5 176.35 12.68
-17 -1 5 168.04 20.51
-18 17 -5 179.42 10.82
1 -18 -8 51.57 13.28
-17 -1 8 47.69 11.81
-18 17 -8 42.39 14.83
1 -18 -11 96.73 23.95
-17 -1 11 72.1 20.16
-18 17 -11 80.2 19.99
1 -18 -14 23.01 5.82
-17 -1 14 21.92 8.66
-18 17 -14 29.15 8.83
-16 -2 -14 4.36 4.02
-18 16 14 10.16 3.99
-16 -2 -11 339.86 20.48
-18 16 11 338.23 22.43
-2 18 -11 355.92 20.75
-18 16 11 315.08 22.44
-16 -2 -8 55.05 13.45
-18 16 8 61.57 6.21
-18 16 8 60.23 16.5
-2 18 -8 64.52 4.84
2 -18 5 241.84 18.27
-16 -2 -5 248.11 14.25
-18 16 5 208.55 19.53
-18 16 5 222.91 19.56
2 -18 2 106.86 8.63
-16 -2 -2 93.48 14.59
-18 16 2 105.65 11.82
-18 16 2 90.22 19.12
2 -18 -1 240.94 19.56
-16 -2 1 209.25 16.57
-18 16 -1 211.23 11.54
-18 16 -1 219.86 15.45
2 -18 -4 85.81 8.02
-16 -2 4 96.03 12.04
-18 16 -4 71.34 11.06
-18 16 -4 97.21 13.7
2 -18 -7 358.86 29.03
-16 -2 7 388.78 14.19
-18 16 -7 388.4 13.8
2 -18 -10 85.61 19.28
-16 -2 10 90.15 8.43
-18 16 -10 95.45 21.18
2 -18 -13 284.65 35.69
-16 -2 13 240.07 19.72
-18 16 -13 290.91 12.8
2 -18 -16 51.05 17.83
-16 -2 16 51.92 14.41
-18 16 -16 63.62 14.39
-15 -3 -15 5 3.58
-18 15 15 10.48 4.04
-15 -3 -12 365.31 36.95
-18 15 12 413.04 16.72
-3 18 -12 459.86 13.82
-18 15 12 369.9 24.45
-15 -3 -9 30.36 6.96
-18 15 9 6.8 4.46
-18 15 9 12.75 4.58
-3 18 -9 15.04 5.29
3 -18 6 262.98 18.44
-15 -3 -6 257.74 35.95
-18 15 6 246.65 18.72
-18 15 6 262.93 23.45
-3 18 -6 251.93 11.49
3 -18 3 13.9 2.67
-15 -3 -3 13.5 4.85
-18 15 3 6.82 3.14
-18 15 3 11.16 5.35
3 -18 0 532.65 21.4
-15 -3 0 514.56 24.8
-18 15 0 488.94 24.74
-18 15 0 523.21 22.88
3 -18 -3 6.49 3.72
-15 -3 3 3.15 4.54
-18 15 -3 0.49 2.35
-18 15 -3 2.16 2.05
3 -18 -6 569.11 29.51
-15 -3 6 599.71 16.69
-18 15 -6 586.36 16.65
-18 15 -6 552.33 17.24
3 -18 -9 81.98 12.28
-15 -3 9 67.26 10.19
-18 15 -9 77.72 16.17
3 -18 -12 303.39 29.74
-15 -3 12 355.83 32.16
-18 15 -12 366.99 23.73
3 -18 -15 4.53 3.28
-15 -3 15 4.67 3.2
-18 15 -15 0.13 2.4
-14 -4 -16 30.65 11.77
-18 14 16 36.63 12.12
-14 -4 -13 132.49 21.3
-18 14 13 107.09 23.98
-4 18 -13 119.51 18.32
-18 14 13 121.95 15.57
-14 -4 -10 82.41 13.74
-18 14 10 94.38 16.97
-4 18 -10 107.38 7.2
-18 14 10 83.65 7.44
-14 -4 -7 36.74 10.07
-18 14 7 37.47 13.85
-18 14 7 42.67 6.22
-4 18 -7 41.45 10.88
4 -18 4 14.07 3.89
-14 -4 -4 11.93 8.94
-18 14 4 11.31 6.61
-18 14 4 12.3 3.94
4 -18 1 221.15 17.72
-14 -4 -1 201.18 12.47
-18 14 1 238 14.11
-18 14 1 204.29 13.18
4 -18 -2 247 15.22
-14 -4 2 248.93 14.42
-18 14 -2 273.4 12.58
-18 14 -2 230.35 17.45
4 -18 -5 28.32 8.11
-14 -4 5 34.36 9.98
-18 14 -5 28.98 5.89
-18 14 -5 30.31 9.26
4 -18 -8 36.85 12.84
-14 -4 8 29.23 12.84
-18 14 -8 27.15 8.39
4 -18 -11 288.22 12.11
-14 -4 11 263.85 23.69
-18 14 -11 289.65 14.84
4 -18 -14 11.86 5.07
-14 -4 14 15.25 4.66
-18 14 -14 17.14 4.73
4 -18 -17 11.58 5.87
-14 -4 17 7.31 4.53
-18 14 -17 13.15 6.7
-13 -5 -17 21.61 7.81
-18 13 17 4.87 3.41
-13 -5 -14 3.04 2.94
-18 13 14 7.56 6.51
-5 18 -14 5.47 3.51
-13 -5 -11 15.35 5.15
-18 13 11 27.82 5.04
-5 18 -11 18.91 4.75
-18 13 11 14.23 4.87
-13 -5 -8 52.77 19.76
-18 13 8 52.58 15.23
-18 13 8 38.3 11.96
-5 18 -8 48.94 15.09
5 -18 5 2.08 2.91
-13 -5 -5 4.25 4.33
-18 13 5 4.96 4.73
-18 13 5 4.75 3.47
-5 18 -5 0.95 2
5 -18 2 9.03 3.46
-13 -5 -2 3.39 5.4
-18 13 2 4.81 3.08
-18 13 2 2.17 2.61
5 -18 -1 54.11 6.91
-13 -5 1 57.63 15.19
-18 13 -1 50.82 10.65
-18 13 -1 57.77 15.92
5 -18 -4 123.77 8.89
-13 -5 4 142.08 14.56
-18 13 -4 138.18 14.87
-18 13 -4 130.47 16.37
5 -18 -7 2.07 2.29
-13 -5 7 0.73 3.18
-18 13 -7 0.32 1.44
-18 13 -7 3.06 4.68
5 -18 -10 1.16 1.84
-13 -5 10 3.78 2.91
-18 13 -10 5.25 4.92
5 -18 -13 3.31 4.93
-13 -5 13 7.86 3.03
-18 13 -13 3.44 3.54
5 -18 -16 27.73 7.44
-13 -5 16 30.2 14.69
-18 13 -16 42.12 9.63
-12 -6 -18 29.87 7.6
-18 12 18 25.18 9.65
-12 -6 -15 68.24 20.53
-18 12 15 52.97 15
-6 18 -15 84.68 12.54
-12 -6 -12 4.25 3.15
-18 12 12 4.63 5.49
-6 18 -12 3 2.37
-12 -6 -9 27.92 7.6
-18 12 9 22.55 8.14
-18 12 9 14.4 4.5
-6 18 -9 15.04 7.76
-12 -6 -6 276.26 20.55
-18 12 6 231.17 21.66
-18 12 6 262.62 17.15
-6 18 -6 196.59 10.38
6 -18 3 81.89 7.41
-12 -6 -3 60.36 18.39
-18 12 3 62.67 7.19
-18 12 3 86.88 6.14
6 -18 0 53.09 5.17
-12 -6 0 57.1 13.13
-18 12 0 42.37 13.97
-18 12 0 54.91 11.77
6 -18 -3 370.83 24.9
-12 -6 3 357.5 23.93
-18 12 -3 329.85 17.14
-18 12 -3 336.36 16.12
6 -18 -6 4.38 2.8
-12 -6 6 1.21 2.32
-18 12 -6 2.77 3.2
-18 12 -6 1.79 3.46
6 -18 -9 15.9 11.17
-18 12 -9 22.33 5.79
-12 -6 9 16.87 4.95
-18 12 -9 12.39 5.47
6 -18 -12 16.84 9.42
-12 -6 12 17.98 7.22
-18 12 -12 12.38 4.57
6 -18 -15 69.89 18.42
-12 -6 15 71.32 7.96
-18 12 -15 61.28 12.61
6 -18 -18 35.78 14.18
-12 -6 18 32.16 9.76
-18 12 -18 36.32 14.32
-11 -7 -16 8.82 5.2
-18 11 16 4.84 4.95
-7 18 -16 6.08 2.85
-11 -7 -13 100.01 14.3
-18 11 13 108.11 13.11
-7 18 -13 105.68 7.89
-11 -7 -10 24.19 6.96
-18 11 10 12.49 5.8
-18 11 10 20.09 4.69
-7 18 -10 25.64 8.31
-11 -7 -7 273.18 20.35
-18 11 7 260.67 18.99
-18 11 7 243.74 12.81
-7 18 -7 244.93 12.35
7 -18 4 40.18 5.9
-11 -7 -4 52.09 10.07
-18 11 4 42.12 11.38
-18 11 4 35.7 7.47
-7 18 -4 36.37 13.42
7 -18 1 349.64 21.42
-11 -7 -1 325.76 20.41
-18 11 1 340.53 22.3
-18 11 1 362.79 19.52
7 -18 -2 132.14 15.09
-11 -7 2 154.45 12.13
-18 11 -2 118.21 13.5
-18 11 -2 147.58 21.84
7 -18 -5 134.72 10.49
-11 -7 5 106.08 12.28
-18 11 -5 109.74 12.25
-18 11 -5 137.75 9.11
7 -18 -8 10.87 3.34
-18 11 -8 5.4 2.8
-11 -7 8 2.05 3.66
-18 11 -8 6.73 6.08
7 -18 -11 150.02 20.19
-11 -7 11 175.09 13.88
-18 11 -11 184.6 15.46
7 -18 -14 62.84 7.37
-11 -7 14 39.22 14.52
-18 11 -14 59.07 16.37
7 -18 -17 61.04 19.48
-11 -7 17 46.23 17.1
-18 11 -17 53.93 14.9
-10 -8 -17 1.69 1.53
-18 10 17 3.89 3.6
-8 18 -17 2.85 2.35
-10 -8 -14 36.52 17.16
-18 10 14 31.86 16.32
-8 18 -14 33.76 10.31
-10 -8 -11 4.1 4.37
-18 10 11 5.77 3.19
-8 18 -11 4.65 3.34
-10 -8 -8 121.44 9.37
-18 10 8 97.35 8.91
-18 10 8 89.99 11.52
-8 18 -8 102.76 6.44
8 -18 5 2.26 2.61
-10 -8 -5 7.28 3.32
-18 10 5 -0.81 3.21
-18 10 5 0.89 1.93
-8 18 -5 -0.29 2.77
8 -18 2 170.73 12.95
-10 -8 -2 179.9 8.68
-18 10 2 171.94 15.82
-18 10 2 178.67 12.6
8 -18 -1 29.47 3.87
-10 -8 1 9.2 4.07
-18 10 -1 18.49 5.71
-18 10 -1 12.68 5.43
8 -18 -4 92.63 8.02
-10 -8 4 92.25 8.17
-18 10 -4 65.93 7.3
-18 10 -4 80.8 8.21
8 -18 -7 5.99 4.01
-10 -8 7 1.62 2.16
-18 10 -7 4.01 3.38
-18 10 -7 5.7 3.04
8 -18 -10 84.23 9.04
-18 10 -10 71.36 9.72
-10 -8 10 85.1 18.09
-18 10 -10 82.77 8.77
8 -18 -13 0.91 3.48
-10 -8 13 2.6 2.91
-18 10 -13 5.38 2.24
8 -18 -16 63.82 9
-10 -8 16 63.48 7.44
-18 10 -16 70.52 15.03
-9 -9 -18 4.89 3.68
-18 9 18 1.22 2.09
-9 18 -18 4.14 3.2
-9 -9 -15 8.74 7.13
-18 9 15 11.8 6.31
-9 18 -15 8.13 6.62
-9 -9 -12 18.2 5.21
-18 9 12 15.6 6.63
-9 18 -12 29.17 8.47
-9 -9 -9 13.78 6.76
-18 9 9 30.28 14.19
-18 9 9 17.84 6.12
-9 18 -9 24.84 6.38
-9 -9 -6 54.86 15.7
-18 9 6 57.5 13.74
-9 18 -6 55.8 6.21
-18 9 6 48.84 10.03
-9 18 -6 53.44 14.43
9 -18 3 5.36 2.77
-9 -9 -3 5.25 4.79
-18 9 3 4.39 2.93
-18 9 3 2.94 2.63
-9 18 -3 5.05 3.27
9 -18 0 5.8 2.23
-9 -9 0 6.65 3.74
-18 9 0 2.18 3.26
-18 9 0 7.49 2.69
9 -18 -3 91.13 7.29
-9 -9 3 96.87 14.19
-18 9 -3 92.69 14.32
-18 9 -3 96.54 7.62
9 -18 -6 163.66 21.92
-9 -9 6 156.76 9.94
-18 9 -6 148.93 10.92
-18 9 -6 164.63 11.65
9 -18 -9 30.83 9.57
-18 9 -9 24.19 6.6
-9 -9 9 40.43 7.43
-18 9 -9 53.66 8.08
9 -18 -12 18.15 5.89
-18 9 -12 4.06 3.21
-9 -9 12 15.75 5.57
-18 9 -12 33.6 7.52
9 -18 -15 16.74 8.24
-9 -9 15 18.14 6.86
-18 9 -15 27.94 5.55
9 -18 -18 9.42 7.6
-18 9 -18 30.73 7.65
-8 -10 -16 9.73 3.99
-18 8 16 7.11 4.44
-10 18 -16 12.36 5.39
-8 -10 -13 58.08 17.33
-18 8 13 68.05 18.69
-10 18 -13 81.92 6.58
-8 -10 -10 31.77 7.91
-18 8 10 36.84 10.77
-10 18 -10 26.71 12.51
-8 -10 -7 57.42 9.91
-18 8 7 78.39 21.4
-18 8 7 65.14 11.61
-10 18 -7 63.91 7.61
-8 -10 -4 237.89 12.95
-18 8 4 249.81 15.01
-10 18 -4 242.25 14
-18 8 4 262.21 16.63
-10 18 -4 253.05 15.51
10 -18 1 279.43 18.71
-8 -10 -1 280.3 14.39
-18 8 1 268.44 14.84
-18 8 1 287.25 13.94
-10 18 -1 250.09 14.2
-8 -10 2 66.98 12.63
-18 8 -2 61.06 14.13
-18 8 -2 76.93 8.21
10 -18 -5 140.67 17.61
-8 -10 5 174.72 16.12
-18 8 -5 148.46 15.78
-18 8 -5 160.4 15.22
10 -18 -8 13.65 3.69
-8 -10 8 16.39 3.96
-18 8 -8 7.1 3.38
-18 8 -8 6.37 5.34
10 -18 -11 40.46 19.08
-18 8 -11 45.66 12.28
-8 -10 11 60.69 16.14
-18 8 -11 62.52 12.19
10 -18 -14 89.29 22.59
-8 -10 14 57.32 14.57
-18 8 -14 76.68 10.86
-18 8 -17 70.03 18.42
-7 -11 -17 35.56 8.07
-18 7 17 49.11 15.19
-11 18 -17 38.33 10.46
-7 -11 -14 54.16 17.96
-18 7 14 66.11 18.59
-11 18 -14 60.08 17.23
-7 -11 -11 243.27 17.66
-18 7 11 256.01 15.76
-11 18 -11 250.47 16.02
-7 -11 -8 77.92 21.16
-18 7 8 90.22 17.13
-18 7 8 71.14 8.85
-11 18 -8 71.44 5.97
-7 -11 -5 311.49 17.43
-18 7 5 261.13 22.95
-11 18 -5 287.13 12.22
-18 7 5 282.59 13.25
-11 18 -5 273.23 13.44
-7 -11 -2 67.73 9.39
-18 7 2 69.87 19.03
-11 18 -2 64.11 6.02
-18 7 2 57.88 5.18
-11 18 -2 54.6 12.41
-7 -11 1 296.61 14.86
-18 7 -1 290.12 20.33
-18 7 -1 320.61 22.71
11 -18 -4 40.69 11.37
-7 -11 4 34.4 15.82
-18 7 -4 71.92 12.68
-18 7 -4 69.41 12.5
11 -18 -7 32.45 7.16
-7 -11 7 36.22 9.88
-18 7 -7 33.89 7.81
-18 7 -7 38.34 6.34
11 -18 -10 156 14.39
-18 7 -10 115.3 13.56
-7 -11 10 149.37 18.4
-18 7 -10 139.73 9.78
-18 7 -13 150.07 13.45
-7 -11 13 168.18 15.52
-18 7 -13 188.76 9.99
-11 18 16 55.75 12.79
-18 7 -16 58.34 12.53
-6 -12 -18 65.69 11.57
-18 6 18 45.05 13.31
-12 18 -18 34.53 20.28
-6 -12 -15 4.72 2.32
-18 6 15 2.72 2.73
-12 18 -15 0.5 2.66
-6 -12 -12 89 19.82
-18 6 12 106.72 14.49
-12 18 -12 96.47 23.75
-6 -12 -9 -0.1 2.45
-18 6 9 8.21 4.63
-12 18 -9 6.66 3.85
-6 -12 -6 124.91 17.57
-18 6 6 123.66 16.76
-18 6 6 114.82 8.28
-12 18 -6 93.65 7.59
-6 -12 -3 2.93 4.83
-18 6 3 3.49 1.93
-12 18 -3 0.56 1.51
-18 6 3 -0.21 1.72
-12 18 -3 2.68 3.64
-6 -12 0 362.37 21.52
-18 6 0 324.93 16.06
-12 18 0 351.16 17.74
-18 6 0 375.23 16.55
-12 18 0 301.73 15.07
-6 -12 3 6.21 4.65
-18 6 -3 4.94 3.52
-12 18 3 2.83 3.38
-18 6 -3 1.36 2.47
-6 -12 6 18.63 7.93
-18 6 -6 20.5 4.16
-12 18 6 27.6 3.66
-18 6 -6 25.27 6.5
-6 -12 9 5.71 3.63
-18 6 -9 5.49 4.22
-12 18 9 8.71 4.07
-18 6 -9 4.14 3.17
-18 6 -12 130.29 7.86
-6 -12 12 131.79 11.29
-12 18 12 128.41 10.75
-18 6 -12 146.45 14.16
-12 18 15 4.1 5.72
-18 6 -15 6.25 1.92
-12 18 18 34.11 11.63
-18 6 -18 35.51 12.55
-5 -13 -16 25.37 6.58
-18 5 16 17.15 8.44
-13 18 -16 23.15 7.43
-5 -13 -13 16.54 4.76
-18 5 13 14.86 7.58
-13 18 -13 7.63 5.81
-5 -13 -10 21.82 5.57
-18 5 10 22.33 6.93
-13 18 -10 19.14 8.45
-5 -13 -7 61.62 15.33
-18 5 7 66.96 11.42
-13 18 -7 53.92 9.21
-5 -13 -4 71.18 17.08
-18 5 4 74.38 14.6
-13 18 -4 71.24 4.99
-18 5 4 68.62 10.58
-13 18 -4 78.52 18.34
-5 -13 -1 6.72 2.71
-18 5 1 8.76 4.12
-13 18 -1 3.78 2.49
-18 5 1 2.97 2.46
-13 18 -1 1.05 3.35
-5 -13 2 97.7 9.89
-18 5 -2 113.77 23.13
-13 18 2 111.79 6.01
-18 5 -2 110.94 8.74
-13 18 2 125.2 10
-5 -13 5 5.36 2.31
-18 5 -5 3.5 2.1
-13 18 5 3.2 2.08
-18 5 -5 3.6 3.87
-5 -13 8 22.79 9.71
-18 5 -8 20.28 7.43
-13 18 8 17.77 7.32
-18 5 -8 23.94 7.02
-18 5 -11 17.3 4.18
-5 -13 11 13.9 4.31
-13 18 11 8.99 7.03
-18 5 -11 28.88 5.71
-18 5 -14 52.65 17.48
-13 18 14 55.29 13.51
-18 5 -14 88.16 18.77
-13 18 17 6.83 3.91
-18 5 -17 2.76 2.3
-4 -14 -17 0.66 2.08
-18 4 17 5.93 2.34
-14 18 -17 1.05 1.61
-4 -14 -14 279.25 18.75
-18 4 14 289.7 25.04
-14 18 -14 253.09 15.04
-4 -14 -11 28.51 7.81
-18 4 11 28.48 7.93
-14 18 -11 18.52 10.93
-4 -14 -8 284.94 24.83
-18 4 8 285.17 26.51
-14 18 -8 297.16 13.72
-4 -14 -5 15.62 5.45
-18 4 5 8.22 7.4
-14 18 -5 12.43 3.82
-18 4 5 16.7 2.6
-14 18 -5 16.11 6.97
-4 -14 -2 177.39 9.32
-18 4 2 198.83 11.52
-14 18 -2 208.23 12.14
-18 4 2 172.16 10.63
-14 18 -2 223.18 19.34
-4 -14 1 15.43 5.67
-18 4 -1 11.24 5.28
-14 18 1 12.26 4.76
-18 4 -1 13.12 3.99
-14 18 1 8.38 4.53
-4 -14 4 353.96 19.63
-18 4 -4 343.53 20.49
-14 18 4 345.44 15.6
-18 4 -4 358.94 16.84
-14 18 4 362.3 23.29
-4 -14 7 1.6 2.19
-18 4 -7 3.47 3.07
-14 18 7 0.3 3.15
-18 4 -7 7.2 3.01
-4 -14 10 160.11 18.64
-18 4 -10 167.75 20.64
-14 18 10 150.02 13.68
-18 4 -10 196.19 21.08
-18 4 -13 36.08 9.72
-14 18 13 46.5 12.04
-18 4 -13 43.75 11.1
-14 18 16 112.31 15.5
-18 4 -16 121.01 29.15
-3 -15 -15 127.92 20
-18 3 15 93.27 24.18
-15 18 -15 120.41 15.28
-3 -15 -12 46.97 7.71
-18 3 12 42.84 10.1
-15 18 -12 35.96 9.88
-3 -15 -9 256.6 19.22
-18 3 9 248.2 15.6
-15 18 -9 272.61 14.98
-3 -15 -6 309.97 17.72
-18 3 6 310.99 16.18
-15 18 -6 320.5 14.46
-3 -15 -3 341.26 15.71
-18 3 3 330.92 16.36
-15 18 -3 316.1 14.1
-18 3 3 303.3 16.72
-15 18 -3 291.78 23.75
-3 -15 0 64.53 15.93
-18 3 0 80.4 15.81
-15 18 0 64 7.18
-18 3 0 72.2 5.72
-15 18 0 60.81 6.19
-3 -15 3 438.22 21.86
-18 3 -3 413.32 24.33
-15 18 3 446.21 22.25
-18 3 -3 432.62 16.93
-15 18 3 457.28 29.1
-3 -15 6 57.59 7.82
-18 3 -6 60.18 14.81
-15 18 6 63.11 15.67
-18 3 -6 61.39 15.83
-15 18 6 53.21 17.75
-3 -15 9 141.78 15.61
-18 3 -9 155.01 13.04
-15 18 9 139.96 19.09
-18 3 -9 143.03 9.79
-18 3 -12 26.03 10.48
-15 18 12 33.56 11.35
-18 3 -12 34.88 8.08
-18 3 -15 359.1 10.6
-15 18 15 318.06 35.11
-18 3 -15 322.33 28.37
-2 -16 -16 3.63 4.18
-18 2 16 5.83 5.35
-16 18 -16 5.54 3.24
-2 -16 -13 100.7 25.79
-18 2 13 98.54 19.83
-16 18 -13 102.67 17.34
-2 -16 -10 105.04 19.95
-18 2 10 88.97 18.13
-16 18 -10 91.79 10.93
-2 -16 -7 147.21 25.52
-18 2 7 181.25 19.95
-16 18 -7 144.47 14.58
-2 -16 -4 2.28 2.53
-18 2 4 2.78 3.65
-16 18 -4 2.05 2.04
-18 2 4 2.01 1.25
-16 18 -4 23.78 12.6
-2 -16 -1 454.11 17.86
-18 2 1 439.86 21.25
-16 18 -1 431.05 16.17
-18 2 1 421.52 18.5
-16 18 -1 375.32 26.97
-2 -16 2 246.43 15.08
-18 2 -2 230.41 13.59
-16 18 2 237.84 13.06
-18 2 -2 236.24 9.83
-16 18 2 285.83 26.82
-2 -16 5 305.54 11.32
-18 2 -5 299.57 15.9
-16 18 5 255.57 19.95
-18 2 -5 267.59 12.06
-16 18 5 309.37 25.52
-2 -16 8 54.07 6.29
-18 2 -8 31.86 8.68
-16 18 8 53.1 15.06
-18 2 -8 44.3 14.03
2 16 -8 45.65 8.27
-16 18 8 57.05 13.45
-18 2 -11 57.61 16.25
-16 18 11 54.17 19.78
-18 2 -11 56.3 22.04
-18 2 -14 41.52 12.71
-16 18 14 52 18.22
-18 2 -14 56.41 14.43
-1 -17 -14 15.44 7.01
-18 1 14 12.27 3.99
-17 18 -14 13.25 7.82
-1 -17 -11 3.94 3.08
-18 1 11 8.22 3.97
-17 18 -11 3.77 3.22
-1 -17 -8 45.41 12.59
-18 1 8 57.68 15.56
-17 18 -8 47.12 11.29
-1 -17 -5 2.1 3.04
-18 1 5 3.9 4.15
-17 18 -5 5.38 2.91
-1 -17 -2 43.98 10.81
-18 1 2 48.19 13.9
-17 18 -2 43.27 11.76
-18 1 2 45.09 5.38
-17 18 -2 56.81 6.49
-1 -17 1 4.37 4.51
-18 1 -1 6.76 4.36
-17 18 1 2.69 4.09
-18 1 -1 5.32 1.58
-17 18 1 2.3 2.23
-1 -17 4 66.49 8.72
-18 1 -4 62.03 13.99
-17 18 4 58.31 7.33
-18 1 -4 72.96 6.87
-17 18 4 63.78 19.57
-1 -17 7 3.01 2.58
-18 1 -7 2.69 2.27
-17 18 7 5.01 3.31
-18 1 -7 3.61 2.83
-17 18 7 9.74 3.29
-18 1 -10 16.79 5.03
-17 18 10 9.9 7.07
-18 1 -10 13.09 5.59
-17 18 10 17.13 7.73
-18 1 -13 4.59 4.42
-17 18 13 8.92 6.04
-18 1 -13 7.05 4.71
0 -18 -15 2.64 2.44
-18 0 15 2.25 4.72
-18 18 -15 0.64 3.01
0 -18 -12 9.67 5.55
-18 0 12 16.27 5.27
-18 18 -12 8.89 5.5
0 -18 -9 9.17 2.97
-18 0 9 3.55 2.8
-18 18 -9 6.42 5.13
0 -18 -6 7.71 2.91
-18 0 6 10.06 6.24
-18 18 -6 7.97 4.68
0 -18 -3 8.88 3.1
-18 0 3 4.55 2.34
-18 18 -3 4.48 2.37
-18 18 -3 2.59 3.03
0 -18 0 6.92 4.95
-18 0 0 3.73 2.75
-18 18 0 0.8 2.82
-18 0 0 6.8 3.4
-18 18 0 8.13 3.44
0 -18 3 7.81 3.84
-18 0 -3 5.16 2.26
-18 18 3 5.37 2.66
-18 0 -3 1.75 2.05
-18 18 3 5.47 3.89
0 -18 6 25.96 8.31
-18 0 -6 53.64 13.84
-18 18 6 37.03 9.93
-18 0 -6 47.57 11.88
-18 18 6 57.09 12.3
-18 0 -9 2.11 3.48
-18 18 9 9.61 3.09
-18 0 -9 3.55 1.23
0 18 -9 4.14 1.63
-18 18 9 7.15 4.4
-18 0 -12 1.01 1.85
-18 18 12 0.94 4.39
-18 0 -12 -0.02 2.46
-18 18 12 4.23 4.08
-18 0 -15 2.89 2.88
-18 18 15 1.39 2.93
-18 0 -15 0.7 2.8
-18 18 15 2.85 2.23
-18 -1 -14 4.78 2.62
-19 18 14 4.7 3.64
-18 -1 -11 9.5 5.42
-19 18 11 9.67 5.08
-18 -1 -11 4.59 5.99
-19 18 11 2.81 2.62
-18 -1 -8 3.59 3.12
-19 18 8 3.75 5.33
-18 -1 -8 6.68 3.07
-19 18 8 3.45 4.39
-1 19 -8 3.82 3.66
1 -19 5 1.58 2.1
-18 -1 -5 7.18 5.33
-19 18 5 2.08 1.5
-18 -1 -5 -0.37 2.27
-19 18 5 2.66 3.19
1 -19 2 3.19 1.99
-18 -1 -2 4.64 5.97
-19 18 2 4.95 2.6
-19 18 2 6.43 7.71
1 -19 -1 120.86 9.57
-18 -1 1 79.67 22.98
-19 18 -1 111.51 7.87
-19 18 -1 112.09 24.34
1 -19 -4 11.03 3.95
-18 -1 4 4.96 3.86
-19 18 -4 3.44 2.32
1 -19 -7 26.03 7.45
-18 -1 7 12.32 7.45
-19 18 -7 27.43 8.34
1 -19 -10 10.24 6.14
-18 -1 10 1.97 3.44
-19 18 -10 6.52 4.95
1 -19 -13 4.07 4.57
-18 -1 13 7.72 2.96
-19 18 -13 6.68 3.98
-17 -2 -12 42.27 16.29
-19 17 12 60.15 19.41
-19 17 12 49.3 12.69
-17 -2 -9 8.94 3.65
-19 17 9 7.33 3.26
-19 17 9 2.71 2.77
-2 19 -9 2.68 2.73
-17 -2 -6 45.81 14.62
-19 17 6 50.43 11.62
-19 17 6 54.58 13.6
2 -19 3 12.93 6.12
-17 -2 -3 20.11 7.22
-19 17 3 22.58 8.36
-19 17 3 17.72 7.33
2 -19 0 143.48 13.5
-17 -2 0 159.08 15.39
-19 17 0 133.78 12.75
-19 17 0 138.22 16.26
-17 -2 3 9.4 6.6
-19 17 -3 8.7 2.09
-19 17 -3 2.14 3.64
2 -19 -6 181.08 14.72
-17 -2 6 173.75 15.26
-19 17 -6 151.91 18.57
2 -19 -9 3.21 1.9
-17 -2 9 4.97 4.57
-19 17 -9 11.07 5.11
2 -19 -12 78.88 22.33
-17 -2 12 60.29 22.22
-19 17 -12 59.21 13.95
-16 -3 -13 82.83 21.57
-19 16 13 53.43 19.74
-16 -3 -10 45.93 9.86
-19 16 10 50.02 17.02
-3 19 -10 53.19 7.95
-19 16 10 50.17 14.68
-16 -3 -7 64.2 11.85
-19 16 7 55.69 14.81
-19 16 7 57.01 7.13
-3 19 -7 62.43 6.02
3 -19 4 132.8 8.81
-16 -3 -4 130.44 13.05
-19 16 4 122.76 15.93
-19 16 4 114.89 9.54
3 -19 1 208.47 17.37
-16 -3 -1 218.5 11.71
-19 16 1 221.39 13.24
-19 16 1 242.35 18.98
3 -19 -2 53.38 10.92
-16 -3 2 29.47 8.75
-19 16 -2 37.19 10.66
-19 16 -2 35.72 10.18
3 -19 -5 254.43 19
-16 -3 5 222.83 22.47
-19 16 -5 266.82 14.88
-19 16 -5 274.11 15.47
3 -19 -8 2.2 2.24
-16 -3 8 1.7 3.69
-19 16 -8 6.81 3.67
3 -19 -11 66.62 13.57
-16 -3 11 64.07 22.06
-19 16 -11 77.21 9.41
3 -19 -14 47.93 15.5
-16 -3 14 47.36 15.88
-19 16 -14 49.36 15.85
-15 -4 -14 14.87 5.65
-19 15 14 14.45 5.97
-15 -4 -11 151.76 34.49
-19 15 11 174.39 18.76
-4 19 -11 187.18 15.26
-19 15 11 173.79 14.48
-15 -4 -8 23.15 4.86
-19 15 8 36.43 8.89
-19 15 8 26.93 11.23
-4 19 -8 22.97 7.11
4 -19 5 96.27 8.13
-15 -4 -5 92.03 12.11
-19 15 5 94.42 25.94
-19 15 5 126.29 8.62
4 -19 2 66.8 7.28
-15 -4 -2 65.76 16.83
-19 15 2 57.06 10.28
-19 15 2 52.65 12.01
4 -19 -1 176.44 18.24
-15 -4 1 174.99 17.34
-19 15 -1 198.81 12.97
-19 15 -1 206.1 20.25
4 -19 -4 4 3.7
-15 -4 4 5.22 2.59
-19 15 -4 1.97 1.83
-19 15 -4 6.01 3.76
4 -19 -7 88.83 16.91
-15 -4 7 77.73 19.9
-19 15 -7 91.1 9.53
4 -19 -10 92.32 12.9
-15 -4 10 68.54 12.39
-19 15 -10 74.71 19.46
4 -19 -13 68.81 14.68
-15 -4 13 44.99 16.31
-19 15 -13 73.28 16.67
4 -19 -16 7.71 3.35
-15 -4 16 4.4 2.87
-19 15 -16 9.89 4.63
-14 -5 -15 15.43 6.45
-19 14 15 4.67 4.35
-14 -5 -12 6.83 5.07
-19 14 12 19.48 5.83
-5 19 -12 18.56 6.45
-14 -5 -9 27.31 7.43
-19 14 9 33.43 15.58
-19 14 9 25.64 8.62
-5 19 -9 24.31 9.79
-14 -5 -6 4.01 6.31
-19 14 6 6.75 4.04
-19 14 6 6.12 4
-5 19 -6 1.62 2.58
5 -19 3 36.47 10.16
-14 -5 -3 38.83 9.49
-19 14 3 44.72 10.4
-19 14 3 32.16 7.39
5 -19 0 128.85 17.52
-14 -5 0 126.88 23.03
-19 14 0 130.29 8.72
-19 14 0 108.58 9.39
5 -19 -3 111.3 11.04
-14 -5 3 117.53 16.17
-19 14 -3 90.8 11.84
-19 14 -3 105.35 12.08
5 -19 -6 7.45 3.95
-14 -5 6 -2.18 3.54
-19 14 -6 3.39 2.32
-19 14 -6 2.75 2.82
5 -19 -9 12.52 4.09
-14 -5 9 16.36 6.41
-19 14 -9 17.89 7.88
5 -19 -12 2.18 2.45
-14 -5 12 3.75 3.3
-19 14 -12 6.46 2.65
5 -19 -15 44.3 14.89
-14 -5 15 27.14 14.11
-19 14 -15 44.44 6.53
-13 -6 -16 12.53 8.63
-19 13 16 8.92 6.68
-13 -6 -13 38.55 14.62
-19 13 13 44.73 14.23
-6 19 -13 31.58 10.9
-13 -6 -10 48.29 12.9
-19 13 10 11.63 4.39
-19 13 10 27.89 3.41
-6 19 -10 27.06 4.92
-13 -6 -7 118.44 16.6
-19 13 7 154.12 9.3
-19 13 7 134.84 13.99
-6 19 -7 137.39 7.86
6 -19 4 19.16 4.86
-13 -6 -4 13.75 8.01
-19 13 4 28.59 8.16
-19 13 4 14.37 7.94
6 -19 1 69.87 15.46
-13 -6 -1 69.99 18.6
-19 13 1 70.21 17.41
-19 13 1 80.83 8.61
6 -19 -2 198.4 23.89
-13 -6 2 234.22 32.58
-19 13 -2 201.22 9.49
-19 13 -2 186.73 16.99
6 -19 -5 84.54 17.89
-13 -6 5 83.59 9.11
-19 13 -5 73.91 15.42
-19 13 -5 102.6 7.04
6 -19 -8 24 7.58
-19 13 -8 19.89 4.73
-13 -6 8 24.96 6.49
-19 13 -8 23.56 9.78
6 -19 -11 69.03 8.84
-13 -6 11 49.99 15.21
-19 13 -11 80.23 12.48
6 -19 -14 56.62 9.99
-13 -6 14 38.09 13.9
-19 13 -14 77.67 11.51
-12 -7 -17 11 6.08
-19 12 17 5.28 4.98
-12 -7 -14 284.9 19.83
-19 12 14 326.98 16.1
-7 19 -14 312.84 9.42
-12 -7 -11 2.57 4.84
-19 12 11 4.94 5.06
-7 19 -11 3.57 4.88
-12 -7 -8 191.27 25.9
-19 12 8 240.86 14.78
-19 12 8 211.39 10.67
-7 19 -8 199.01 15.66
7 -19 5 12.58 4.4
-12 -7 -5 13.17 4.02
-19 12 5 14.5 5.88
-19 12 5 15.1 3.54
-7 19 -5 10.19 2.74
7 -19 2 453.66 20.34
-12 -7 -2 476.22 23.35
-19 12 2 437.08 21.71
-19 12 2 406.97 24.66
7 -19 -1 1 2.14
-12 -7 1 2.5 3.47
-19 12 -1 -0.6 2.48
-19 12 -1 6.48 4.21
7 -19 -4 637.42 29.58
-12 -7 4 617.7 29.57
-19 12 -4 637.8 22.82
-19 12 -4 551.52 32.64
7 -19 -7 2.44 5.41
-12 -7 7 3.32 4.68
-19 12 -7 2.27 1.58
-19 12 -7 3.5 4.21
7 -19 -10 309.79 12.06
-12 -7 10 293.43 12.04
-19 12 -10 299.31 26.48
7 -19 -13 9.3 7.2
-12 -7 13 11.5 6.91
-19 12 -13 8.57 4.48
7 -19 -16 104.19 25.4
-12 -7 16 87.38 22.9
-19 12 -16 130.77 27.7
-11 -8 -15 59.87 18.16
-19 11 15 74.57 16.81
-8 19 -15 63.28 9.65
-11 -8 -12 43.89 20.14
-19 11 12 63.39 21.24
-8 19 -12 54.07 12.9
-11 -8 -9 213.16 14.86
-19 11 9 176.24 16.8
-19 11 9 168.96 13.53
-8 19 -9 185.1 11.52
-11 -8 -6 224.77 15.54
-19 11 6 224.26 12.16
-19 11 6 251.31 10.81
-8 19 -6 188.61 13
8 -19 3 469.45 20.67
-11 -8 -3 441.4 19.58
-19 11 3 449.81 22.41
-19 11 3 434.65 30.69
-8 19 -3 444.52 20.73
8 -19 0 97.6 8.51
-11 -8 0 93.12 14.37
-19 11 0 69.79 9.31
-19 11 0 84.25 8.52
8 -19 -3 442.38 22.03
-11 -8 3 395.4 20.36
-19 11 -3 393.69 16.39
-19 11 -3 385.42 26.46
8 -19 -6 94.25 9.05
-11 -8 6 117.24 22.91
-19 11 -6 108.27 12.88
-19 11 -6 109.91 13.15
8 -19 -9 181.46 14.94
-19 11 -9 196.63 12.95
-11 -8 9 206.94 22.14
-19 11 -9 185.22 19.56
8 -19 -12 64.34 14.24
-11 -8 12 60 18.18
-19 11 -12 71.65 19.39
8 -19 -15 183.2 21.21
-11 -8 15 195.68 15.62
-19 11 -15 220.38 18.06
-10 -9 -16 4.03 1.68
-19 10 16 5.32 2.38
-9 19 -16 1.63 2.02
-10 -9 -13 50.26 11.69
-19 10 13 53.2 15.09
-9 19 -13 60.12 17.01
-10 -9 -10 122.59 18.68
-19 10 10 124.24 23.96
-9 19 -10 118.99 24.34
-10 -9 -7 91.64 19.45
-19 10 7 70.97 18.01
-19 10 7 67.06 7.37
-9 19 -7 65.88 15.73
9 -19 4 31.92 8.64
-10 -9 -4 42.25 10.9
-19 10 4 40.19 11.93
-19 10 4 53.42 11.87
-9 19 -4 42.29 14.53
9 -19 1 34.66 8.73
-10 -9 -1 33.22 10.56
-19 10 1 30.27 7.47
-19 10 1 31.7 6.72
9 -19 -2 23.52 6.4
-10 -9 2 23.94 8.17
-19 10 -2 26.52 6.56
-19 10 -2 18.38 11.84
9 -19 -5 57.42 5.55
-10 -9 5 55.74 15.81
-19 10 -5 47.51 7.24
-19 10 -5 60.43 13.97
9 -19 -8 93.71 10.15
-10 -9 8 109.64 18.37
-19 10 -8 106.33 14.93
-19 10 -8 112 18.66
9 -19 -11 14.65 5.68
-10 -9 11 15.34 5.21
-19 10 -11 27.37 6.4
9 -19 -14 56.67 13.44
-10 -9 14 46.82 15.98
-19 10 -14 71.03 16.16
9 -19 -17 14.19 5.89
-19 10 -17 16.05 6.65
-9 -10 -17 2.39 2.56
-19 9 17 6.17 2.77
-10 19 -17 3.89 2.75
-9 -10 -14 3.44 2.53
-19 9 14 5.48 3.56
-10 19 -14 1.54 1.85
-9 -10 -11 8.28 6.64
-19 9 11 10.93 5.05
-10 19 -11 7.69 4.76
-9 -10 -8 16.96 6.49
-19 9 8 24.1 7.61
-19 9 8 19.5 6.01
-9 -10 -5 20.45 4.47
-19 9 5 16.76 6.93
-10 19 -5 23.25 6.32
-19 9 5 24.25 6.24
-10 19 -5 25.08 7.48
10 -19 2 30.69 3.82
-9 -10 -2 29.54 6.92
-19 9 2 33.79 10.24
-19 9 2 30.21 6.65
-10 19 -2 24.5 9.25
10 -19 -1 -0.51 2.21
-9 -10 1 3.04 2.57
-19 9 -1 5.6 3.47
-19 9 -1 2.06 2.72
10 -19 -4 -1.11 2.93
-9 -10 4 -2.15 2.75
-19 9 -4 1.52 2.4
-19 9 -4 7.7 3.33
10 -19 -7 19.85 7.08
-9 -10 7 15.31 4.92
-19 9 -7 17.12 5.22
-19 9 -7 24.16 4.93
10 -19 -10 6.14 4.61
-19 9 -10 5.69 2.94
-9 -10 10 5.66 2.31
-19 9 -10 3.95 1.62
10 -19 -13 36.12 11.02
-9 -10 13 40.61 9.91
-19 9 -13 32.49 7.36
10 -19 -16 2.88 3.31
-19 9 -16 3.8 3.37
-8 -11 -15 34.23 8.05
-19 8 15 35.68 8.17
-11 19 -15 24.24 8.18
-8 -11 -12 81.15 19.4
-19 8 12 73.97 14.72
-11 19 -12 60.49 17.42
-8 -11 -9 30.57 11.07
-19 8 9 29.24 9.78
-11 19 -9 37.22 9.58
-8 -11 -6 7.99 3.13
-19 8 6 14.02 6.58
-19 8 6 14.32 3.7
-11 19 -6 17.69 6.89
-8 -11 -3 37.33 10.8
-19 8 3 34.25 7.23
-11 19 -3 29.39 6.09
-19 8 3 36.58 5.85
-11 19 -3 35.15 10.13
-8 -11 0 15.21 5.03
-19 8 0 12.3 5.02
-19 8 0 13.36 4.25
-11 19 0 12.88 4.29
11 -19 -3 6.14 3.28
-8 -11 3 7.03 3.27
-19 8 -3 13.77 5.65
-19 8 -3 14.78 5.44
11 -19 -6 -1.04 2.56
-8 -11 6 3.17 2.46
-19 8 -6 4.64 4.15
-19 8 -6 1.33 3.16
11 -19 -9 107.52 12.37
-8 -11 9 110.24 11.77
-19 8 -9 74.15 16.05
-19 8 -9 67.75 7.03
11 -19 -12 40.95 9.69
-19 8 -12 41.54 10.41
-8 -11 12 50.95 10.04
-19 8 -12 43.8 9.9
-19 8 -15 25.93 6.54
-7 -12 -16 23.94 6.13
-19 7 16 8.12 6.22
-12 19 -16 4.13 3.31
-7 -12 -13 46.06 11.68
-19 7 13 37.46 16.19
-12 19 -13 36.49 12.63
-7 -12 -10 4.61 3.14
-19 7 10 7.98 4.66
-12 19 -10 2.69 1.97
-7 -12 -7 22.99 9.18
-19 7 7 25.07 6.5
-12 19 -7 14.41 4.77
-7 -12 -4 3.37 3.58
-19 7 4 3.79 1.85
-12 19 -4 0.11 0.98
-19 7 4 2.12 2.22
-12 19 -4 -0.98 2.94
-7 -12 -1 86.5 8
-19 7 1 77.65 13.68
-12 19 -1 77.94 4.95
-19 7 1 67.35 5.18
-12 19 -1 81.12 9.8
-7 -12 2 4.63 2.92
-19 7 -2 3.33 3.78
-12 19 2 3.05 1.73
-19 7 -2 3.8 3.1
-7 -12 5 -0.31 2.04
-19 7 -5 3.91 3.47
-12 19 5 3.29 1.66
-19 7 -5 2.72 3.15
-7 -12 8 7.23 4.24
-19 7 -8 13.26 4.58
-12 19 8 5.94 4.88
-19 7 -8 8.36 2.1
-19 7 -11 52.85 13.99
-7 -12 11 52.17 16.61
-12 19 11 70.92 14.54
-19 7 -11 79.91 15.54
-12 19 14 5.44 3.94
-19 7 -14 4.26 2.85
-12 19 17 5.45 2.86
-19 7 -17 4.63 5.27
-6 -13 -14 -0.63 3.26
-19 6 14 10.48 5.11
-13 19 -14 0.76 3.13
-6 -13 -11 5.54 3.73
-19 6 11 1.64 4.66
-13 19 -11 4.09 2.76
-6 -13 -8 6.9 4.68
-19 6 8 2.7 2.92
-13 19 -8 1.15 2.34
-6 -13 -5 31.44 6.25
-19 6 5 23.99 5.58
-19 6 5 20.96 5.69
-13 19 -5 12.24 5.55
-6 -13 -2 16.68 8.91
-19 6 2 11.03 3.94
-13 19 -2 8.61 4.47
-19 6 2 9.05 4.78
-13 19 -2 12.01 5.97
-6 -13 1 66.3 6.33
-19 6 -1 81.5 15.38
-13 19 1 78.29 6.03
-19 6 -1 84.86 12.33
-13 19 1 64.72 5.9
-6 -13 4 3.62 3.22
-19 6 -4 5.1 4.55
-13 19 4 3.69 3.97
-19 6 -4 1.19 1.75
-6 -13 7 4.2 3.13
-19 6 -7 2.79 2.78
-13 19 7 3.91 4.63
-19 6 -7 -0.23 2.17
-6 -13 10 0.92 2.53
-19 6 -10 2.11 0.99
-13 19 10 8.15 4.25
-19 6 -10 1.98 2.51
-19 6 -13 1.68 2.36
-13 19 13 1.77 4.04
-19 6 -13 3.69 3.05
-13 19 16 10.38 3.18
-19 6 -16 11.46 5.74
-5 -14 -15 16.66 5.52
-19 5 15 27.37 5.44
-14 19 -15 19.68 7.3
-5 -14 -12 69.58 12.86
-19 5 12 62.1 17.51
-14 19 -12 59.62 8.9
-5 -14 -9 132.37 10.54
-19 5 9 127.82 13.74
-14 19 -9 95.2 9.58
-5 -14 -6 69.91 17.88
-19 5 6 66.9 17.71
-14 19 -6 73.31 7.01
-5 -14 -3 68.15 6.93
-19 5 3 70.73 12.24
-14 19 -3 73.33 9.61
-19 5 3 64.67 5.89
-14 19 -3 70.33 18.43
-5 -14 0 52.06 7.47
-19 5 0 48.88 13.61
-14 19 0 59.54 10.52
-19 5 0 51.25 5.1
-14 19 0 48.63 11.78
-5 -14 3 52.1 16.14
-19 5 -3 54.5 13.73
-14 19 3 45.35 7.36
-19 5 -3 51.25 14.03
-14 19 3 48.5 11.77
-5 -14 6 53.28 6.48
-19 5 -6 51.53 13.43
-14 19 6 41.01 13.89
-19 5 -6 47.4 12.51
-5 -14 9 47.99 5.79
-19 5 -9 44.81 9.37
-14 19 9 37.08 10
-19 5 -9 67.03 14.87
-19 5 -12 13.86 7.49
-14 19 12 30.73 8.61
-19 5 -12 19.01 6.05
-14 19 15 56.47 17.94
-19 5 -15 73.07 15.93
-4 -15 -16 29.12 12.03
-19 4 16 18.54 7.3
-15 19 -16 20.46 7.51
-4 -15 -13 252.3 21.18
-19 4 13 288.4 27.33
-15 19 -13 240.79 20.03
-4 -15 -10 165.66 18.27
-19 4 10 93.53 23.95
-15 19 -10 104.7 18.93
-4 -15 -7 302.92 18.41
-19 4 7 372.18 14.64
-15 19 -7 366.26 17.54
-4 -15 -4 29.48 9.52
-19 4 4 36.01 12.55
-19 4 4 25.12 6.53
-15 19 -4 47.89 7.86
-4 -15 -1 427.2 21.39
-19 4 1 437.43 22.57
-15 19 -1 422.67 20.05
-19 4 1 396.59 20.42
-15 19 -1 475.3 18.49
-4 -15 2 89.8 13.01
-19 4 -2 89.55 15.17
-15 19 2 108.39 7.74
-19 4 -2 80.35 5.88
-15 19 2 105.2 19.86
-4 -15 5 365.27 17.25
-19 4 -5 313.06 22.04
-15 19 5 338.69 14.97
-19 4 -5 326.28 15.73
-15 19 5 352.7 16.18
-4 -15 8 73.22 10.59
-19 4 -8 64.06 18.92
-15 19 8 74.64 10.45
-19 4 -8 85.54 12.53
-19 4 -11 194.85 20.04
-15 19 11 157.65 23.44
-19 4 -11 187.5 18.02
-19 4 -14 51.31 18.57
-15 19 14 90.5 11.44
-19 4 -14 67.41 18.69
-3 -16 -14 277.33 21.19
-19 3 14 276.85 20.46
-16 19 -14 280.68 18.12
-3 -16 -11 6.53 2.66
-19 3 11 6.21 4
-16 19 -11 0.74 2.5
-3 -16 -8 202.97 21.16
-19 3 8 233.36 11.78
-16 19 -8 212.53 14.48
-3 -16 -5 32.32 12.55
-19 3 5 50.48 6.35
-16 19 -5 59.52 12.27
-3 -16 -2 535.4 26.11
-19 3 2 584.88 26.59
-16 19 -2 573.08 17.87
-19 3 2 602.71 14.57
-16 19 -2 600.9 19.12
-3 -16 1 24.25 9.27
-19 3 -1 23.87 8.4
-16 19 1 35.43 4.08
-19 3 -1 30.62 9.99
-16 19 1 37.77 9.49
-3 -16 4 665.3 17.13
-19 3 -4 679.33 15.89
-16 19 4 647.99 25.6
-19 3 -4 654.28 23.28
-16 19 4 686 18.23
-3 -16 7 21.99 6.38
-19 3 -7 15.99 5.6
-16 19 7 20.24 6.47
-19 3 -7 19.63 5.19
-16 19 7 18.93 8.81
-19 3 -10 224.4 13.96
-16 19 10 230.03 17.53
-19 3 -10 234.22 15.64
-19 3 -13 -0.53 1.95
-16 19 13 10.23 4.46
-19 3 -13 3.9 4.16
-2 -17 -12 65.69 21.05
-19 2 12 54.48 15.06
-17 19 -12 62.71 12.33
-2 -17 -9 90.32 20.85
-19 2 9 66.51 15.21
-17 19 -9 83.54 16.43
-2 -17 -6 39.45 14.65
-19 2 6 41.95 12.3
-17 19 -6 44.84 10.37
-2 -17 -3 127.46 18.08
-19 2 3 153.41 10.87
-17 19 -3 133.85 10.83
-17 19 -3 189.82 12.07
-2 -17 0 4.77 3.48
-19 2 0 6.64 5.15
-17 19 0 6.95 5.01
-19 2 0 14.78 4.58
-17 19 0 6.32 2.22
-2 -17 3 96.37 11.33
-19 2 -3 110.21 14.33
-17 19 3 107.41 6.76
-19 2 -3 115.44 10.64
-17 19 3 110.21 10.58
-2 -17 6 35.17 12.19
-19 2 -6 52.25 12.16
-17 19 6 38.71 15.1
-19 2 -6 46.7 5.32
-17 19 6 54.14 6.99
-19 2 -9 63.2 15.93
-17 19 9 61.36 18.51
-19 2 -9 70.44 12.16
-17 19 9 49.21 20.03
-19 2 -12 55.2 14.87
-17 19 12 50.4 14.71
-19 2 -12 52.09 12.22
-1 -18 -13 4.73 3.49
-19 1 13 6.17 3.87
-18 19 -13 2.73 4.93
-1 -18 -10 10.54 5.81
-19 1 10 -2.19 3.04
-18 19 -10 4.3 4.22
-1 -18 -7 19.04 4.74
-19 1 7 11.39 5.24
-18 19 -7 8.17 3.2
-1 -18 -4 10.32 6.59
-19 1 4 11.94 4.45
-18 19 -4 12.31 5.24
-1 -18 -1 21.96 6.06
-19 1 1 24.18 11.87
-18 19 -1 26.69 7.46
-19 1 1 32.72 7.07
-18 19 -1 21.71 7.17
-1 -18 2 1.82 1.61
-19 1 -2 1.49 3.91
-18 19 2 8.57 2.46
-19 1 -2 2.54 2.06
-18 19 2 -1.09 3.35
-1 -18 5 2.68 1.97
-19 1 -5 5.27 4.02
-18 19 5 0.9 2.71
-19 1 -5 2.38 2.88
-18 19 5 5.65 5.17
-19 1 -8 12.36 6.82
-18 19 8 17.54 5.71
-19 1 -8 15.65 3.5
-18 19 8 17.81 7.37
1 18 -8 9.49 4.57
-19 1 -11 9.27 5.29
-18 19 11 10.93 5.84
-19 1 -11 20.84 6.59
-18 19 11 22.24 9.27
-19 1 -14 0.99 2.71
-18 19 14 5.57 5.68
-19 1 -14 3.3 2.62
-18 19 14 5.85 2.57
0 -19 -11 9.05 9.38
-19 0 11 17.53 10.97
-19 19 -11 15.27 5.02
0 -19 -8 27.92 11.73
-19 0 8 29.67 10.38
-19 19 -8 28.37 11.06
0 -19 -5 115.61 11.54
-19 0 5 122.83 17.48
-19 19 -5 108.09 11.34
0 -19 -2 28.77 8.38
-19 0 2 23.83 6.98
-19 19 -2 17.03 4.74
-19 19 -2 31.45 10.44
0 -19 1 7.63 5.81
-19 0 -1 12.12 6
-19 19 1 13.04 4.92
-19 0 -1 1.83 3.77
-19 19 1 9.55 2.77
0 -19 4 9.21 4.14
-19 0 -4 5.54 4.52
-19 19 4 17.1 5.68
-19 0 -4 18.83 5.51
-19 19 4 7.43 4.16
-19 0 -7 58.63 13.61
-19 19 7 75 7.93
-19 0 -7 64.42 6.72
-19 19 7 62.97 8.24
-19 0 -10 10.7 2.72
-19 19 10 6.96 4.62
-19 0 -10 3.37 4.69
-19 19 10 6.32 5.01
-19 0 -13 16.48 11.19
-19 19 13 24.85 6.87
-19 0 -13 15.13 7.5
-19 19 13 14.55 5.52
-19 -1 -12 5.64 4.93
-20 19 12 17.96 8.72
-20 19 12 14.39 6.61
-19 -1 -9 157.65 12.44
-20 19 9 126.28 16.64
-20 19 9 123.35 19.05
-19 -1 -6 43.75 15.01
-20 19 6 57.09 9.28
-20 19 6 65.21 7.47
1 -20 3 108.07 20.83
-19 -1 -3 97.73 24.46
-20 19 3 106.65 14.26
-20 19 3 126.56 12.65
1 -20 0 7.43 5.73
-19 -1 0 8.99 4.4
-20 19 0 8.57 4.34
1 -20 -3 148.92 12.75
-19 -1 3 117.35 20.19
-20 19 -3 116 23.23
1 -20 -6 33.25 11.08
-19 -1 6 23.24 6.48
-20 19 -6 29.93 10.89
1 -20 -9 78.92 15.85
-19 -1 9 73.78 11.29
-20 19 -9 65.77 12.04
1 -20 -12 0.02 3.42
-19 -1 12 1.48 2.35
-20 19 -12 0.26 2.67
-18 -2 -13 10.34 6.31
-20 18 13 4.77 3.25
-18 -2 -10 51.94 13.08
-20 18 10 34.22 13.11
-20 18 10 39.89 12.58
-18 -2 -7 9.88 4.3
-20 18 7 7.48 4.11
-20 18 7 1.14 2.11
-2 20 -7 5.38 3.01
2 -20 4 22.91 5.84
-18 -2 -4 19.73 10.9
-20 18 4 13.88 8.26
-20 18 4 16.67 5.99
2 -20 1 32.55 10.59
-18 -2 -1 28.27 7.23
-20 18 1 29.04 6.5
-20 18 1 21.73 11.33
2 -20 -2 21.05 4.61
-18 -2 2 3.7 4.03
-20 18 -2 10.05 6.02
-20 18 -2 7.18 4.92
2 -20 -5 19 6.47
-18 -2 5 13.08 6.34
-20 18 -5 10.61 6.1
2 -20 -8 47.77 9.52
-18 -2 8 40.55 12.11
-20 18 -8 40.58 9.22
2 -20 -11 9.68 7.38
-18 -2 11 4.73 4.2
-20 18 -11 10.11 6.06
-17 -3 -11 18.06 5.67
-20 17 11 9.07 4.44
-3 20 -11 15.72 5.39
-20 17 11 13.63 5.31
-17 -3 -8 32.31 6.18
-20 17 8 20.88 5.62
-20 17 8 19.62 7.23
-3 20 -8 15.5 4.19
-17 -3 -5 44.96 10.71
-20 17 5 50.02 16.84
-20 17 5 54.04 6.26
3 -20 2 44.53 10.36
-17 -3 -2 41.62 10.39
-20 17 2 37.37 12.04
-20 17 2 29.05 11.92
3 -20 -1 19.47 7.43
-17 -3 1 25.5 7.81
-20 17 -1 13.31 4.33
-20 17 -1 14.76 4.45
3 -20 -4 30.76 5.41
-17 -3 4 19.11 10.6
-20 17 -4 29.27 5.93
-20 17 -4 26.04 9.43
3 -20 -7 3.15 2.86
-17 -3 7 4.23 3.69
-20 17 -7 5.9 3.57
3 -20 -10 2.83 3.46
-17 -3 10 3.45 1.73
-20 17 -10 3.96 4
3 -20 -13 42.28 8.61
-17 -3 13 29.59 10.84
-20 17 -13 26.39 12.01
-16 -4 -12 43.04 14.28
-20 16 12 37.95 14.47
-16 -4 -9 58.45 15.77
-20 16 9 64.47 7.75
-20 16 9 57.7 6.93
-4 20 -9 37.65 12.87
-16 -4 -6 7.68 8.36
-20 16 6 7.09 4.48
-20 16 6 27.25 5.63
-4 20 -6 17.51 7.12
4 -20 3 14.95 6.97
-16 -4 -3 22.34 5.54
-20 16 3 8.02 5.82
-20 16 3 17.43 9.42
4 -20 0 31.71 7.73
-16 -4 0 36.21 9.97
-20 16 0 20.11 5.03
-20 16 0 33.87 7.86
4 -20 -3 22.19 5.03
-16 -4 3 16.6 6.79
-20 16 -3 16.18 5.95
-20 16 -3 17.38 8.31
4 -20 -6 20.55 4.83
-16 -4 6 14.83 4.92
-20 16 -6 15.62 6.4
4 -20 -9 24.01 5.53
-16 -4 9 17.37 7.58
-20 16 -9 12.75 5.51
4 -20 -12 21.75 10.21
-16 -4 12 11.06 8.45
-20 16 -12 20.54 9.98
-15 -5 -13 9.23 4.84
-20 15 13 7.25 3.48
-5 20 -13 7.11 3.46
-15 -5 -10 2.03 3.75
-20 15 10 4.52 2.43
-20 15 10 1.94 1.63
-5 20 -10 4.11 3.65
-15 -5 -7 2.37 4.04
-20 15 7 4.6 2.93
-20 15 7 0.86 2.63
-5 20 -7 1.52 2.15
5 -20 4 0.87 1.77
-15 -5 -4 2.97 2.67
-20 15 4 4.55 1.96
-20 15 4 2.28 3.65
5 -20 1 5.74 3.51
-15 -5 -1 3.67 3.45
-20 15 1 3.85 3.47
-20 15 1 8.4 3.63
5 -20 -2 4.2 3.39
-15 -5 2 4.09 3.22
-20 15 -2 0.78 2.66
-20 15 -2 2.1 1.41
5 -20 -5 4 3.39
-15 -5 5 3.23 3.1
-20 15 -5 1.79 1.5
-20 15 -5 0.54 2.88
5 -20 -8 5.25 4.12
-15 -5 8 -1.43 3.14
-20 15 -8 0.46 3.09
5 -20 -11 6.06 2.7
-15 -5 11 4.05 3.48
-20 15 -11 7.74 6.42
5 -20 -14 9.92 6.3
-15 -5 14 2.74 1.36
-20 15 -14 5.32 3.48
-14 -6 -14 5.82 2.9
-20 14 14 7.75 6
-6 20 -14 8.06 2.9
-14 -6 -11 -0.55 2.98
-20 14 11 1 1.5
-6 20 -11 4.38 2.12
-14 -6 -8 73.07 20.53
-20 14 8 73.7 18.27
-20 14 8 64.18 9.27
-6 20 -8 49.23 14.02
-14 -6 -5 38.55 12.86
-20 14 5 43.75 14.22
-20 14 5 38.43 9.02
-6 20 -5 25.91 12.67
6 -20 2 185.99 9.4
-14 -6 -2 197.13 22.48
-20 14 2 190.86 16.76
-20 14 2 173.07 19.89
6 -20 -1 7.65 2.96
-14 -6 1 4.14 4.51
-20 14 -1 2.76 2.3
-20 14 -1 2.82 2.89
6 -20 -4 48.67 12.61
-14 -6 4 46.74 7.18
-20 14 -4 57.87 13.67
-20 14 -4 47.58 12.63
6 -20 -7 5.24 2.93
-14 -6 7 2.16 4.34
-20 14 -7 1.44 1.69
-20 14 -7 7.85 5.05
6 -20 -10 24.5 7.25
-14 -6 10 17.09 6.27
-20 14 -10 15.52 4.65
6 -20 -13 1.34 4.74
-14 -6 13 2.25 2.1
-20 14 -13 11.21 11.4
-13 -7 -15 86.62 24.85
-20 13 15 119.11 13.49
-7 20 -15 98.17 14.2
-13 -7 -12 27.99 10.87
-20 13 12 41.02 8.95
-7 20 -12 22.26 5.2
-13 -7 -9 211.6 14.95
-20 13 9 194.48 19.98
-20 13 9 178.72 11.71
-7 20 -9 195.28 9.23
-13 -7 -6 80.56 11.15
-20 13 6 96.83 16.51
-20 13 6 83.38 8.91
-7 20 -6 114.01 20.44
7 -20 3 183.79 9.47
-13 -7 -3 212.59 11.21
-20 13 3 220.21 13.69
-20 13 3 168 14.61
7 -20 0 120.68 17.03
-13 -7 0 137.31 13.78
-20 13 0 99.81 12.85
-20 13 0 132.93 17.49
7 -20 -3 246.57 10.04
-13 -7 3 247.95 10.1
-20 13 -3 215.55 10.15
-20 13 -3 237.58 27.26
7 -20 -6 113.98 12.66
-13 -7 6 120.87 20.01
-20 13 -6 114.64 9.29
-20 13 -6 102.65 12.08
7 -20 -9 198.59 11.15
-13 -7 9 161.02 22.83
-20 13 -9 177.29 13.98
7 -20 -12 9.28 4.66
-13 -7 12 13.37 5.27
-20 13 -12 21.28 5.17
7 -20 -15 68.04 21.58
-13 -7 15 80.31 13.01
-20 13 -15 95.38 9.14
-12 -8 -16 23.1 8.94
-12 -8 -13 163.12 23.74
-20 12 13 244.4 18.02
-8 20 -13 163.08 13.61
-12 -8 -10 57.95 17.02
-20 12 10 62.48 18.61
-8 20 -10 71.12 11.57
-12 -8 -7 361.84 21.53
-20 12 7 390.21 14.42
-20 12 7 366.12 15.83
-8 20 -7 368.5 19.19
-12 -8 -4 82.87 8.69
-20 12 4 96.93 15.06
-20 12 4 86.67 8.35
-8 20 -4 67.89 8.07
8 -20 1 461.81 17.62
-12 -8 -1 450.64 15.73
-20 12 1 425.53 27.31
-20 12 1 500.42 14.79
8 -20 -2 241.09 25.09
-12 -8 2 230.63 11.22
-20 12 -2 212.72 11.89
-20 12 -2 232.46 23.12
8 -20 -5 524.96 20.99
-12 -8 5 489.68 29.41
-20 12 -5 524.16 14.28
-20 12 -5 493.37 15.53
8 -20 -8 70.64 17.18
-12 -8 8 75.73 16.91
-20 12 -8 87.97 11.3
-20 12 -8 78.52 7.22
8 -20 -11 177.99 24.73
-12 -8 11 162.86 24.44
-20 12 -11 184.28 13.21
8 -20 -14 48.74 18.22
-12 -8 14 72.86 7.9
-20 12 -14 77.51 12.74
-11 -9 -14 110.1 19.2
-20 11 14 103.84 16.69
-9 20 -14 109.5 17.05
-11 -9 -11 10.16 4.31
-20 11 11 4.76 3.91
-9 20 -11 0.93 2.52
-11 -9 -8 210.98 14.29
-20 11 8 219.69 14.28
-20 11 8 180.66 21.2
-9 20 -8 209.22 12.32
-11 -9 -5 47.99 10.64
-20 11 5 32.79 6.84
-20 11 5 39.5 10.38
-9 20 -5 39.8 8.67
9 -20 2 334.74 16.7
-11 -9 -2 322.02 27.11
-20 11 2 356.44 16.02
-20 11 2 358.49 16.63
9 -20 -1 2.31 1.93
-11 -9 1 3.81 5.8
-20 11 -1 3.81 2.88
-20 11 -1 17.54 8.04
9 -20 -4 557.11 18.68
-11 -9 4 514.28 14.76
-20 11 -4 543.06 18.85
-20 11 -4 518.4 15.43
9 -20 -7 6.62 4.11
-11 -9 7 7.72 3.13
-20 11 -7 9.15 2.67
-20 11 -7 11.28 4.62
9 -20 -10 81.12 9.85
-11 -9 10 59.73 13.05
-20 11 -10 86.45 15.4
9 -20 -13 1.83 2.04
-11 -9 13 -0.32 2.35
-20 11 -13 8.65 5.3
9 -20 -16 148.46 26.32
-20 11 -16 204.23 18.33
-10 -10 -15 8.11 4.18
-20 10 15 4.68 3.24
-10 20 -15 5.11 3.78
-10 -10 -12 51.48 8.88
-20 10 12 33.16 10.35
-10 20 -12 31.66 8.01
-10 -10 -9 76.8 19.78
-20 10 9 80.6 19.3
-10 20 -9 88.06 18.84
-10 -10 -6 36.39 11.73
-20 10 6 30.2 8.47
-20 10 6 31.54 6.82
-10 20 -6 31.46 14.35
10 -20 3 3.82 2.31
-10 -10 -3 3.38 3.31
-20 10 3 6.99 4.99
-20 10 3 5 2.41
-10 20 -3 3.87 2.39
10 -20 0 10.45 4.88
-10 -10 0 -0.33 3.85
-20 10 0 2.68 3.57
-20 10 0 3.53 5.53
10 -20 -3 30.16 12.77
-10 -10 3 29.64 3.9
-20 10 -3 20.09 8.32
-20 10 -3 27.3 7.99
10 -20 -6 11 3.4
-10 -10 6 9 2.86
-20 10 -6 6.71 3.78
-20 10 -6 9.82 5.14
10 -20 -9 4.08 4.03
-20 10 -9 5.33 1.76
-10 -10 9 3.14 3.98
-20 10 -9 1.85 3.61
10 -20 -12 4.12 2.98
-10 -10 12 0.2 2.5
-20 10 -12 6.38 3.86
10 -20 -15 29.38 16.26
-10 -10 15 26.84 9.93
-20 10 -15 43.49 12
-9 -11 -16 12.21 6.64
-20 9 16 6.19 4.71
-11 20 -16 14.72 5.84
-9 -11 -13 8.59 5.32
-20 9 13 14.26 8.62
-11 20 -13 14.45 4.15
-9 -11 -10 68.11 16.81
-20 9 10 67.36 20.32
-11 20 -10 69.38 11.95
-9 -11 -7 8.58 4.64
-20 9 7 2.75 5.57
-20 9 7 12.98 4.4
-11 20 -7 9.17 5.01
-9 -11 -4 117 14.43
-20 9 4 118.72 13.82
-20 9 4 146.83 7.88
-11 20 -4 139.15 23.07
-9 -11 -1 1.01 4.81
-20 9 1 6.78 4.45
-20 9 1 3.83 1.9
-11 20 -1 4.2 4.04
11 -20 -2 12.65 4.75
-9 -11 2 11.36 6.93
-20 9 -2 5.35 4.54
-20 9 -2 10.13 3.47
11 -20 -5 5.59 2.98
-9 -11 5 4.57 2.2
-20 9 -5 4.51 3.27
-20 9 -5 0.67 2.12
11 -20 -8 114.98 16.47
-9 -11 8 134.58 16.24
-20 9 -8 94.14 7.15
-20 9 -8 109.46 10.4
11 -20 -11 7.14 6.31
-20 9 -11 3.58 2.9
-9 -11 11 4.23 3.5
-20 9 -11 4.32 5.98
11 -20 -14 21.69 12.95
-9 -11 14 17.97 5.65
-20 9 -14 31.66 9.85
-8 -12 -14 87.23 18.09
-20 8 14 90.45 17.64
-12 20 -14 49.3 15.28
-8 -12 -11 53.34 21.56
-20 8 11 41.34 16.85
-12 20 -11 49.49 15.95
-8 -12 -8 12.82 5.46
-20 8 8 11.59 4.29
-12 20 -8 23.51 6.95
-8 -12 -5 114.51 13.94
-20 8 5 90.64 14.23
-20 8 5 101.82 7.3
-12 20 -5 111.48 14.62
-8 -12 -2 191.83 14.01
-20 8 2 155.17 17.08
-12 20 -2 167.06 8.86
-20 8 2 143.83 9.64
-12 20 -2 185.56 10.36
-8 -12 1 16.04 3.77
-20 8 -1 11.87 6.55
-12 20 1 15.27 6.36
-20 8 -1 18.2 5.27
-12 20 1 18.95 5.33
-8 -12 4 140.28 23.48
-20 8 -4 150.06 21.28
-20 8 -4 160.23 13.12
-8 -12 7 217.99 12.54
-20 8 -7 255.11 13.73
-20 8 -7 209.15 14.18
-20 8 -10 36.9 15.31
-8 -12 10 30.08 10.75
-20 8 -10 46.99 8.92
-8 -12 13 34.42 10.92
-12 20 13 43.65 12.96
-20 8 -13 52.17 12.61
-20 8 -16 2.3 1.86
-7 -13 -15 36.31 9.3
-20 7 15 31.55 13.25
-7 -13 -12 8.66 7.28
-20 7 12 5.75 5.04
-13 20 -12 2.39 4.03
-7 -13 -9 52.22 19.41
-20 7 9 40.49 10.81
-13 20 -9 43.29 11.4
-7 -13 -6 111.77 22.28
-20 7 6 108.3 17.39
-13 20 -6 101.53 14.16
-7 -13 -3 38.31 12.55
-20 7 3 43.52 12.5
-13 20 -3 40.5 6.57
-20 7 3 40.65 8.41
-13 20 -3 58.14 18.6
-7 -13 0 6.41 3.04
-20 7 0 2.76 2.17
-13 20 0 6.03 2.91
-20 7 0 2.49 1.85
-13 20 0 1.91 3.1
-7 -13 3 163.22 8.35
-20 7 -3 174.51 10.48
-13 20 3 182.03 10.16
-20 7 -3 170.79 11.63
-7 -13 6 88.57 8.94
-20 7 -6 56.16 19.58
-13 20 6 92.74 12.02
-20 7 -6 63.7 12.23
-7 -13 9 22.41 8.49
-20 7 -9 31.28 8.18
-13 20 9 26.26 5.26
-20 7 -9 30.46 7.39
-20 7 -12 17.02 10.97
-7 -13 12 24.79 10.64
-13 20 12 23.34 10.97
-20 7 -12 33.28 7.68
-13 20 15 5.63 3.53
-20 7 -15 7.01 3.96
-6 -14 -13 4.37 2.08
-20 6 13 9.72 4.89
-14 20 -13 8.5 3.52
-6 -14 -10 3.98 1.88
-20 6 10 4.39 2.74
-14 20 -10 7.3 4.41
-6 -14 -7 12.13 6.32
-20 6 7 6.08 5.1
-14 20 -7 19.31 9.71
-6 -14 -4 28.22 12.48
-20 6 4 28.93 11.69
-20 6 4 27.01 9.01
-14 20 -4 35.21 6.73
-6 -14 -1 47.81 8.6
-20 6 1 56.55 11.46
-14 20 -1 51.28 5.31
-20 6 1 60.46 5.18
-14 20 -1 50.79 9.71
-6 -14 2 28.91 6.79
-20 6 -2 21.31 7.49
-14 20 2 25.56 11.98
-20 6 -2 15.01 6.5
-14 20 2 31.51 5.32
-6 -14 5 73.92 6.45
-20 6 -5 68.86 11.82
-14 20 5 62.85 14.14
-20 6 -5 71.48 6.88
-6 -14 8 7.16 4.7
-20 6 -8 3.87 3.53
-14 20 8 6.26 2.94
-20 6 -8 6.04 5.06
-6 -14 11 19.62 7.86
-20 6 -11 25.51 6.55
-14 20 11 25.14 8.8
-20 6 -11 38.77 9.3
-14 20 14 1.57 4.18
-20 6 -14 4.02 5.19
-5 -15 -14 3.56 2.34
-20 5 14 2.14 2.72
-15 20 -14 5.17 4.32
-5 -15 -11 22.93 9.77
-20 5 11 28.38 8
-15 20 -11 15.96 6.83
-5 -15 -8 212.92 22.75
-20 5 8 209.7 22.38
-15 20 -8 206.27 29.13
-5 -15 -5 2.29 2.66
-20 5 5 8.04 4.21
-15 20 -5 9.75 4.91
-5 -15 -2 171.29 21.72
-20 5 2 169.54 25.47
-15 20 -2 194.28 9.37
-20 5 2 194.97 11.02
-15 20 -2 194.58 22.77
-5 -15 1 3.69 1.78
-20 5 -1 9.25 4.04
-15 20 1 6.68 3
-20 5 -1 1.33 1.4
-15 20 1 2.58 4.49
-5 -15 4 133.82 14.42
-20 5 -4 144.27 17.01
-15 20 4 153.9 9.48
-20 5 -4 176.61 14.51
-15 20 4 150.08 9.64
-5 -15 7 9.21 3.34
-20 5 -7 9.49 5.02
-15 20 7 7.13 3.05
-20 5 -7 9.38 5.45
-5 -15 10 73.82 9.35
-20 5 -10 61.91 15.83
-15 20 10 65.01 8.61
-20 5 -10 43.08 11.87
-20 5 -13 1.48 3.08
-15 20 13 4.92 5.51
-20 5 -13 2.7 4.31
-4 -16 -12 54.04 10.8
-20 4 12 55.63 15.2
-16 20 -12 50.72 11.81
-4 -16 -9 199.46 17.51
-20 4 9 211.9 10.23
-16 20 -9 209.65 14.97
-4 -16 -6 27.83 5.8
-20 4 6 32.83 7.99
-16 20 -6 27.42 8.85
-4 -16 -3 115.4 14.71
-20 4 3 130.92 13.74
-16 20 -3 134.31 10.07
-4 -16 0 28.49 6.71
-20 4 0 35.85 9.52
-16 20 0 36.33 5.79
-20 4 0 23.97 8.17
-16 20 0 23.29 10.62
-4 -16 3 380.73 11.35
-20 4 -3 308.13 18.75
-16 20 3 351.64 20.9
-20 4 -3 341.12 17.65
-16 20 3 315.83 27.55
-4 -16 6 33.88 12.16
-20 4 -6 51.54 11.32
-16 20 6 38.17 11.97
-20 4 -6 38.18 12
-16 20 6 40.14 10.72
-4 -16 9 153.16 11.04
-20 4 -9 133.79 26.02
-16 20 9 148.28 9.4
-20 4 -9 140.77 16.86
-20 4 -12 25.7 9.67
-16 20 12 36.27 9.03
-20 4 -12 39.09 10.42
-3 -17 -13 83.71 18.8
-20 3 13 71.41 19.7
-17 20 -13 71.43 20.74
-3 -17 -10 23.95 4.91
-20 3 10 17.28 8.19
-17 20 -10 17.93 5.91
-3 -17 -7 100.57 12.42
-20 3 7 96.66 24.92
-17 20 -7 81.85 19.59
-3 -17 -4 30.14 13.94
-20 3 4 23.79 6.91
-17 20 -4 26.62 11.53
-3 -17 -1 52.58 10.27
-20 3 1 55.11 11.63
-17 20 -1 34.57 10.91
-20 3 1 38.94 5.47
-17 20 -1 34.29 12.2
-3 -17 2 72.81 8.04
-20 3 -2 73.01 17.46
-17 20 2 93.89 10.93
-20 3 -2 70.76 6.69
-17 20 2 71.1 16.81
-3 -17 5 145.1 10.91
-20 3 -5 130.43 16.68
-17 20 5 125.56 7.86
-20 3 -5 109.06 10.41
-3 -17 8 30.93 8.52
-20 3 -8 39.88 12.17
-17 20 8 36.03 17.23
-20 3 -8 50.56 5.84
-17 20 8 49.99 6.21
-20 3 -11 81.09 9.67
-17 20 11 88.56 9.57
-20 3 -11 60.31 23.36
-2 -18 -11 6.88 4.07
-20 2 11 8.44 6.04
-18 20 -11 14.71 6.34
-2 -18 -8 14.82 3.29
-20 2 8 4.06 5.35
-18 20 -8 12.5 5.79
-2 -18 -5 14.8 6.79
-20 2 5 1.94 4.21
-18 20 -5 15.89 7.57
-2 -18 -2 43.24 13.58
-20 2 2 40.54 12.73
-18 20 -2 32.36 9.41
-18 20 -2 56.63 15.19
-2 -18 1 1.36 2.38
-20 2 -1 2.74 4.45
-18 20 1 3.16 2.26
-20 2 -1 3.07 2.8
-18 20 1 2.61 5.56
-2 -18 4 4.67 2.85
-20 2 -4 4.48 2.18
-18 20 4 4.54 3.79
-20 2 -4 3.81 3.56
-18 20 4 7.49 3.56
-2 -18 7 29.05 5.04
-20 2 -7 19.38 8.59
-18 20 7 27.49 14.29
-20 2 -7 32.55 10.03
-18 20 7 41.34 10.18
-20 2 -10 33.21 8.18
-18 20 10 28.47 13.23
-20 2 -10 20.75 10.43
-18 20 10 39.99 12.05
-20 2 -13 6.06 3.38
-18 20 13 12.76 5.61
-20 2 -13 4.08 3.36
-18 20 13 3.34 3.66
-1 -19 -12 11.5 6.89
-20 1 12 5.79 5.01
-19 20 -12 6.37 4.31
-1 -19 -9 40.42 7.64
-20 1 9 14.74 7.98
-19 20 -9 28.14 9.56
-1 -19 -6 7.23 2.9
-20 1 6 20.46 4.79
-19 20 -6 20.02 6.06
-1 -19 -3 74.71 17.16
-20 1 3 76.63 18.92
-19 20 -3 103.49 11.66
-1 -19 0 51.27 11.62
-20 1 0 42.45 12.09
-19 20 0 45.39 8.72
-20 1 0 38.79 5.08
-19 20 0 61.53 13.5
-1 -19 3 71.47 9.44
-20 1 -3 81.13 11.42
-19 20 3 77 13.51
-20 1 -3 76.88 8.8
-19 20 3 80.08 20.76
-20 1 -6 83.64 18.43
-19 20 6 72.23 9.43
-20 1 -6 87.02 9.09
-19 20 6 71.67 10.38
-20 1 -9 13.12 7.16
-19 20 9 21.26 5.95
-20 1 -9 22.07 8.7
-19 20 9 20.98 9.14
-20 1 -12 0.57 1.4
-19 20 12 6.9 2.86
-20 1 -12 5.78 4.01
-19 20 12 1.22 1.51
0 -20 -10 192.98 20.23
-20 0 10 187.09 16.7
-20 20 -10 178.21 20.78
0 -20 -7 0.26 3.33
-20 0 7 3.57 2.75
-20 20 -7 3.18 3.86
0 -20 -4 286.06 28.6
-20 0 4 280.99 12.02
-20 20 -4 255.15 19.91
0 -20 -1 12.19 3.66
-20 0 1 5.42 5.15
-20 20 -1 8.72 3.57
-20 20 -1 9.55 5.25
0 -20 2 169.11 12.41
-20 0 -2 194.71 10.27
-20 20 2 153.03 17.23
-20 0 -2 159.25 13.92
-20 20 2 148.79 11.62
-20 0 -5 3.91 3.24
-20 20 5 4.76 3.5
-20 0 -5 7.35 4.99
-20 20 5 4.71 5.13
-20 0 -8 288.22 29.91
-20 20 8 324.24 22.26
-20 0 -8 279.63 20.34
-20 20 8 275.04 27.07
-20 0 -11 0.09 2.68
-20 20 11 2.59 2.78
-20 0 -11 2.71 2.09
-20 20 11 1.52 2.42
-20 -1 -7 212.3 31.09
-21 20 7 278.17 16.97
-21 20 7 181.55 30.54
-1 21 -7 213.93 12.68
-20 -1 -4 28.53 9.9
-21 20 4 47.67 6.18
-21 20 4 29.46 9.41
1 -21 1 135.4 14.43
-20 -1 -1 105.43 13.48
-21 20 1 100.48 13.93
-21 20 1 123.41 17.61
1 -21 -2 111.37 22.26
-20 -1 2 99.9 23.49
-21 20 -2 97.06 14.09
1 -21 -5 246.32 27.33
-20 -1 5 196.4 20.45
-21 20 -5 185.83 27.1
1 -21 -8 16.7 6.73
-20 -1 8 24.03 8.46
-21 20 -8 18.03 9.05
-19 -2 -8 46.87 16.83
-21 19 8 92.72 16.65
-21 19 8 71.45 11.23
-2 21 -8 52.2 17.48
-19 -2 -5 2.17 3.19
-21 19 5 9.47 3.96
-21 19 5 7.27 2.21
2 -21 2 32.88 9.22
-19 -2 -2 7.63 5.54
-21 19 2 18.71 5.73
-21 19 2 27.36 7.84
2 -21 -1 6.06 4.02
-19 -2 1 9.61 4.64
-21 19 -1 -0.13 2.61
-21 19 -1 0.27 3.02
2 -21 -4 149.71 13.59
-19 -2 4 115.97 11.62
-21 19 -4 132.67 9.69
2 -21 -7 4.12 5.78
-19 -2 7 1.28 1.64
-21 19 -7 3.94 1.85
2 -21 -10 5.71 3.22
-19 -2 10 3.91 1.83
-21 19 -10 2.65 5.31
-18 -3 -9 -0.13 3.05
-21 18 9 4.59 2.62
-21 18 9 8.67 3.32
-3 21 -9 2.8 2.63
-18 -3 -6 5.29 4.37
-21 18 6 2.43 2.97
-21 18 6 0.39 2.43
-3 21 -6 4.18 2.15
3 -21 3 9.99 6.21
-18 -3 -3 13.18 6.49
-21 18 3 4.82 4.67
-21 18 3 7.02 3.69
3 -21 0 1.46 1.89
-18 -3 0 2.99 4.93
-21 18 0 2.66 3.3
-21 18 0 3.24 3.5
3 -21 -3 8.4 3.23
-18 -3 3 8.4 3.71
-21 18 -3 7.76 4.31
-21 18 -3 10.88 6.68
3 -21 -6 9.59 3.93
-18 -3 6 5.38 3.22
-21 18 -6 2.41 5.25
3 -21 -9 19.64 4.96
-18 -3 9 12.07 5.78
-21 18 -9 8.24 6.23
-17 -4 -10 74.46 21.99
-21 17 10 104.6 14.97
-21 17 10 85.34 9.73
-4 21 -10 65 15.39
-17 -4 -7 8.22 4.93
-21 17 7 1.01 2.65
-21 17 7 8.88 3.57
-4 21 -7 3.4 1.25
-17 -4 -4 57.27 21.62
-21 17 4 75.16 10.81
-21 17 4 58.74 14.95
4 -21 1 4.28 2.27
-17 -4 -1 3.51 1.5
-21 17 1 2.13 3.02
-21 17 1 6.52 4.85
4 -21 -2 28.4 5.76
-17 -4 2 36.34 10.65
-21 17 -2 24.1 8.97
-21 17 -2 20.08 6.65
4 -21 -5 8.42 2.48
-17 -4 5 8.87 8.32
-21 17 -5 3.6 4.89
4 -21 -8 93.07 19.1
-17 -4 8 65.09 22.95
-21 17 -8 61.85 14.9
4 -21 -11 3.31 3.87
-17 -4 11 5.8 2.35
-21 17 -11 10.28 4.33
-16 -5 -11 37.61 16.45
-21 16 11 33.41 12.41
-5 21 -11 32.61 11.08
-16 -5 -8 10.51 5.07
-21 16 8 6.47 4.71
-21 16 8 6.53 2.63
-5 21 -8 3.13 2.85
-16 -5 -5 42.94 13.96
-21 16 5 31.74 9.2
-21 16 5 33 11.26
-5 21 -5 21.45 8.97
5 -21 2 44.93 8.82
-16 -5 -2 42.28 8.97
-21 16 2 36.53 9.69
-21 16 2 34.61 12.42
5 -21 -1 73.78 15.03
-16 -5 1 39 16.05
-21 16 -1 30.23 12.87
-21 16 -1 46.23 15.82
5 -21 -4 39.26 10.27
-16 -5 4 36.6 12.69
-21 16 -4 32.52 7.5
-21 16 -4 38.52 8.22
5 -21 -7 79.14 8.15
-16 -5 7 66.73 16.24
-21 16 -7 79.17 22.95
5 -21 -10 7.66 2.1
-16 -5 10 10.42 5.28
-21 16 -10 9.53 6.63
5 -21 -13 44.76 12.55
-16 -5 13 33.92 13.41
-21 16 -13 43.68 11.52
-15 -6 -12 8.89 4.3
-21 15 12 13.71 6.16
-6 21 -12 8.7 4.18
-15 -6 -9 1.05 1.63
-21 15 9 6.45 4.81
-6 21 -9 0.44 2.33
-15 -6 -6 62.76 13.67
-21 15 6 51.69 8.14
-21 15 6 43.28 12.67
-6 21 -6 39.49 11.18
6 -21 3 2.14 1.94
-15 -6 -3 1.05 1.74
-21 15 3 2.03 2.63
-21 15 3 0.15 1.87
6 -21 0 37.93 12.82
-15 -6 0 44.35 13.9
-21 15 0 32.68 8.58
-21 15 0 34.84 10.31
6 -21 -3 13.79 7.45
-15 -6 3 9.4 7.66
-21 15 -3 6.74 3.27
-21 15 -3 8.33 3.66
6 -21 -6 25.55 7.25
-15 -6 6 30.86 8.69
-21 15 -6 25.4 7.24
6 -21 -9 6.06 3.64
-15 -6 9 5.4 3.2
-21 15 -9 18.75 8.42
6 -21 -12 31.64 10.72
-15 -6 12 34.05 9.95
-21 15 -12 35.4 13.24
-14 -7 -13 19.67 9.73
-21 14 13 25.05 8.35
-7 21 -13 28.24 10.45
-14 -7 -10 16.87 4.97
-21 14 10 8.68 6.44
-7 21 -10 8.56 4.68
-14 -7 -7 97.74 14.53
-21 14 7 82.47 24.92
-21 14 7 88.38 11.36
-7 21 -7 101.21 10.46
-14 -7 -4 1.66 3.49
-21 14 4 3.82 2.49
-21 14 4 0.9 2.7
-7 21 -4 4.8 2.4
7 -21 1 255.42 13.41
-14 -7 -1 275.59 15.06
-21 14 1 253.62 14.71
-21 14 1 247.8 21.95
7 -21 -2 5.75 4.73
-14 -7 2 5.63 2.59
-21 14 -2 9.6 4.44
7 -21 -5 86.07 8.29
-14 -7 5 76.94 8.93
-21 14 -5 65.13 17.42
-21 14 -5 95.71 17.13
7 -21 -8 2.02 5.25
-14 -7 8 19.53 6.46
-21 14 -8 4.93 2.19
7 -21 -11 36.65 13.98
-14 -7 11 36.03 13.15
-21 14 -11 46.31 12.89
7 -21 -14 6.18 3.31
-14 -7 14 7.36 4.75
-21 14 -14 10.32 3.92
-13 -8 -14 72.27 12.93
-21 13 14 70.89 23.2
-8 21 -14 68.88 15.49
-13 -8 -11 0.96 2.85
-21 13 11 -2.97 2.86
-8 21 -11 1.41 1.71
-13 -8 -8 292.54 20.14
-21 13 8 276.89 25.34
-21 13 8 281.12 19.66
-8 21 -8 288.04 20.29
-13 -8 -5 1.21 2.2
-21 13 5 5.26 2.54
-21 13 5 1.37 1.91
-8 21 -5 1.91 1.53
8 -21 2 353.56 18.71
-13 -8 -2 344.31 18.5
-21 13 2 334.34 20.38
-21 13 2 329.39 29.4
8 -21 -1 27.6 6.89
-13 -8 1 29.07 7.84
-21 13 -1 24.77 6.39
-21 13 -1 45.4 7.68
8 -21 -4 135.22 12.89
-13 -8 4 126.67 11.71
-21 13 -4 132.83 11.21
-21 13 -4 127.21 11.96
8 -21 -7 2.53 3.11
-13 -8 7 1.58 4.14
-21 13 -7 4.22 3.15
-21 13 -7 2.24 3.29
8 -21 -10 160.98 32.19
-13 -8 10 189 10.88
-21 13 -10 135.6 15.72
8 -21 -13 7.87 4.45
-13 -8 13 6.28 2.3
-21 13 -13 9.51 4.07
-12 -9 -12 11.93 4.39
-21 12 12 13.18 7.62
-9 21 -12 17.27 4.27
-12 -9 -9 98.28 18.41
-21 12 9 94.55 15.15
-9 21 -9 97.77 13.06
-12 -9 -6 68.78 23
-21 12 6 69.73 19.73
-21 12 6 52.21 10.61
-9 21 -6 46.84 15.63
-12 -9 -3 122.69 21.15
-21 12 3 165.81 10.86
-21 12 3 136.2 14.93
-9 21 -3 133.05 9.37
9 -21 0 10.36 5.91
-12 -9 0 10.48 4.29
-21 12 0 9.69 4.86
-21 12 0 24.65 6.71
9 -21 -3 221.86 14.37
-12 -9 3 223.07 22.34
-21 12 -3 206.19 13.41
-21 12 -3 192.74 17.06
9 -21 -6 71.5 18.41
-12 -9 6 54.95 16.95
-21 12 -6 59.53 16.11
-21 12 -6 69.09 15.97
9 -21 -9 84.7 13.12
-12 -9 9 87.33 12.54
-21 12 -9 70.72 9.29
9 -21 -12 5.23 3.59
-12 -9 12 3.52 3.7
-21 12 -12 4.47 3.36
-11 -10 -13 32.12 12.24
-21 11 13 26.62 10.23
-10 21 -13 24.75 8.09
-11 -10 -10 2.56 3.44
-21 11 10 0.8 3.57
-10 21 -10 2.38 1.54
-11 -10 -7 95.66 13.47
-21 11 7 90.82 15.57
-21 11 7 79.52 12.32
-10 21 -7 83.94 18.18
-11 -10 -4 3.72 3.5
-21 11 4 5.72 3.23
-21 11 4 2.29 2.37
-10 21 -4 2.02 2.82
10 -21 1 5.69 3.72
-11 -10 -1 3.04 3.99
-21 11 1 3.83 4.06
-21 11 1 4.18 2.72
10 -21 -2 1.36 1.94
-11 -10 2 5.79 4.3
-21 11 -2 9.31 3.52
-21 11 -2 2.9 2.76
10 -21 -5 116.99 22.14
-11 -10 5 137.73 11.06
-21 11 -5 109.76 16.86
-21 11 -5 171.39 14.65
10 -21 -8 5.92 3.48
-11 -10 8 6.26 2.58
-21 11 -8 3.95 3.17
-21 11 -8 8.33 4.98
10 -21 -11 42.58 14.44
-11 -10 11 44.31 11.22
-21 11 -11 34.24 7.02
10 -21 -14 9.18 5.41
-11 -10 14 13.25 4.5
-21 11 -14 10.04 6.09
-10 -11 -14 11.49 6.96
-21 10 14 15.46 8.13
-11 21 -14 13.98 6.84
-10 -11 -11 52.06 18.31
-21 10 11 67.15 23.31
-11 21 -11 79.51 11.66
-10 -11 -8 11.89 6.6
-21 10 8 11.99 7.5
-11 21 -8 9.48 3.16
-10 -11 -5 100.55 14.47
-21 10 5 96.4 20.23
-21 10 5 82.8 9.3
-11 21 -5 67.12 21.12
-10 -11 -2 3.85 2.88
-21 10 2 7.87 5.4
-11 21 -2 8.77 4.82
-21 10 2 9.01 6.37
-11 21 -2 6.33 3.86
11 -21 -1 21.22 5.09
-10 -11 1 28.12 9.06
-21 10 -1 25.21 6.49
-21 10 -1 24.95 4.45
11 -21 -4 6.8 3.74
-10 -11 4 3.66 2.24
-21 10 -4 3.07 1.66
-21 10 -4 2.9 1.51
11 -21 -7 101.7 7.81
-10 -11 7 98.13 15.36
-21 10 -7 81.51 18.69
-21 10 -7 107.37 11.28
11 -21 -10 1.56 4.21
-21 10 -10 2.85 3.4
-10 -11 10 1.45 2.58
-21 10 -10 8.2 3.09
11 -21 -13 22.86 7.67
-10 -11 13 24.58 7.12
-21 10 -13 26.7 6.86
-21 9 12 11.05 7.04
-12 21 -12 22.76 7.39
-9 -12 -9 120.84 17.99
-21 9 9 106.88 31.85
-12 21 -9 118.96 18.51
-9 -12 -6 37.22 13.53
-21 9 6 39.05 11.49
-12 21 -6 49.99 14.55
-9 -12 -3 376.71 13.89
-21 9 3 341.7 17.91
-21 9 3 353.65 14.23
-12 21 -3 399.03 13.11
-9 -12 0 4.81 5.33
-21 9 0 13.38 5.5
-12 21 0 17.63 4.52
-21 9 0 15.38 3.96
-9 -12 3 114.59 16.22
-21 9 -3 155.94 10.31
-21 9 -3 140.99 12.42
12 -21 -6 93.72 24.95
-9 -12 6 110.71 10.46
-21 9 -6 114.43 7.04
-21 9 -6 124.61 22.02
-9 -12 9 130.5 17.04
-21 9 -9 97.63 22.25
-21 9 -9 117.7 18.22
-9 -12 12 38.37 7.36
-21 9 -12 26.02 11.12
-8 -13 -13 23.86 7.58
-21 8 13 15.02 6.78
-13 21 -13 21.23 7.57
-8 -13 -10 322.24 17.45
-21 8 10 308 14.92
-13 21 -10 294.28 12.41
-8 -13 -7 23.72 9.01
-21 8 7 18.23 7.98
-13 21 -7 12.81 7.22
-8 -13 -4 261.87 23.42
-21 8 4 287.99 16.46
-21 8 4 266.49 14.73
-13 21 -4 298.61 15.03
-8 -13 -1 23.16 8.49
-21 8 1 37.29 11.73
-13 21 -1 22.03 6.18
-21 8 1 36.73 8.88
-13 21 -1 30.96 5.27
-8 -13 2 242.96 23.41
-21 8 -2 278.14 15.78
-13 21 2 262.18 13.04
-21 8 -2 270.38 15.06
-13 21 2 290.73 15.04
-8 -13 5 10.42 5.41
-21 8 -5 6.53 2.41
-13 21 5 2.65 1.04
-21 8 -5 6.05 2.45
-8 -13 8 363.34 21.72
-21 8 -8 305.69 24.68
-13 21 8 388.66 22.14
-21 8 -8 354.57 22.09
-21 8 -11 5.63 4.28
-8 -13 11 7.5 3.53
-13 21 11 4.51 3.08
-21 8 -11 5.26 4.59
-13 21 14 105.96 15.96
-21 8 -14 121.38 15.43
-7 -14 -14 1.29 4.52
-21 7 14 15.43 5.63
-14 21 -14 0.91 3.17
-7 -14 -11 50.8 16
-21 7 11 56.95 18.5
-14 21 -11 40.29 10.03
-7 -14 -8 15.18 6.83
-21 7 8 6.58 4.58
-14 21 -8 11.2 4.58
-7 -14 -5 132 16.3
-21 7 5 132.77 8.44
-14 21 -5 141.68 17.93
-7 -14 -2 25.43 6.26
-21 7 2 19.77 9.27
-14 21 -2 23.7 4.23
-21 7 2 16.92 4.32
-14 21 -2 17.12 8.67
-7 -14 1 149.4 14.1
-21 7 -1 132.55 18.79
-14 21 1 133.25 14.56
-21 7 -1 153.64 9.17
-14 21 1 147.57 12.55
-7 -14 4 15.36 5.17
-21 7 -4 2.4 2.45
-14 21 4 12.62 4.55
-21 7 -4 9.89 3.31
-7 -14 7 137.17 10.84
-21 7 -7 131.73 24.75
-14 21 7 124.05 23.34
-21 7 -7 129.29 10.89
-7 -14 10 1.17 2.04
-21 7 -10 4.56 2.15
-14 21 10 5.96 4.96
-21 7 -10 3.89 3.26
-14 21 13 50.53 19.82
-21 7 -13 60.9 17.18
-6 -15 -12 3.8 4.02
-21 6 12 7.78 4.2
-15 21 -12 3.77 3
-6 -15 -9 11.73 5.87
-21 6 9 1.69 2.77
-15 21 -9 3.4 2.57
-6 -15 -6 4.06 2.61
-21 6 6 6.43 4.37
-15 21 -6 19.93 5.86
-6 -15 -3 4.89 2.41
-21 6 3 9.66 4.44
-21 6 3 2.85 2.35
-15 21 -3 3.27 2.3
-6 -15 0 15.26 4.22
-21 6 0 9.22 4.2
-15 21 0 15.31 3.86
-21 6 0 10.14 2.89
-15 21 0 9.65 4.93
-6 -15 3 2.49 3.98
-21 6 -3 2.13 2.88
-15 21 3 1.31 1.88
-21 6 -3 6.68 3.13
-15 21 3 7.32 3.59
-6 -15 6 36.57 10.49
-21 6 -6 43.63 9.91
-15 21 6 29.34 10.77
-21 6 -6 36.02 8.97
-6 -15 9 3.67 3.03
-21 6 -9 2.5 1.95
-15 21 9 4.66 5.05
-21 6 -9 2.6 4.07
-21 6 -12 13.14 3.67
-15 21 12 3.65 3.64
-21 6 -12 11.02 4.43
-5 -16 -13 4.31 2.75
-21 5 13 4.59 3.8
-16 21 -13 3.37 3.15
-5 -16 -10 13.64 6.78
-21 5 10 22.72 10.4
-16 21 -10 17.43 8.4
-5 -16 -7 9.22 7.21
-21 5 7 30.47 13.94
-16 21 -7 23.12 7.15
-5 -16 -4 23.74 6.38
-21 5 4 34.44 9.9
-16 21 -4 45.36 14.17
-5 -16 -1 9.43 5.06
-21 5 1 5.48 6.8
-16 21 -1 2.78 2.46
-21 5 1 5.6 2.81
-16 21 -1 0.53 3.41
-5 -16 2 32.92 7.62
-21 5 -2 42.72 10.38
-16 21 2 37.92 11.44
-21 5 -2 46.22 7.01
-16 21 2 46.4 13.7
-5 -16 5 29.01 6.36
-21 5 -5 18.83 6.56
-16 21 5 14.95 8.03
-21 5 -5 16.71 5.42
-16 21 5 29.5 5.3
-5 -16 8 15.03 4.3
-21 5 -8 19.22 7.43
-16 21 8 13.09 6.15
-21 5 -8 11.76 5.23
-21 5 -11 1.66 2.97
-16 21 11 2.75 3.5
-21 5 -11 1.35 3
-4 -17 -11 18.19 5.23
-21 4 11 11.88 4.88
-17 21 -11 6.25 5.81
-4 -17 -8 70.19 21.1
-21 4 8 53.04 20.87
-17 21 -8 84.63 12.13
-4 -17 -5 20.14 7.3
-21 4 5 14.74 11.17
-17 21 -5 24.98 7.76
-4 -17 -2 11.59 5.77
-21 4 2 22.68 6.3
-17 21 -2 20.61 6.07
-4 -17 1 4.43 1.18
-21 4 -1 0.32 3.53
-17 21 1 3.74 2.57
-21 4 -1 2.81 1.99
-17 21 1 2.33 4.19
-4 -17 4 66.03 9.6
-21 4 -4 58.54 16.3
-17 21 4 65.06 8.52
-21 4 -4 64.41 15.14
-17 21 4 73.01 8.77
-4 -17 7 7.44 3.56
-21 4 -7 6.32 4.62
-17 21 7 5.7 5.11
-21 4 -7 0.26 2.06
-17 21 7 5.02 5.44
-17 21 10 7.33 4.19
-21 4 -10 4.87 4.59
-17 21 10 11.32 4.25
-3 -18 -9 5.59 5.17
-21 3 9 9.33 6.14
-18 21 -9 0.93 2.64
-3 -18 -6 11.17 3.76
-21 3 6 12.37 6.33
-18 21 -6 28.1 10.08
-3 -18 -3 6.73 3.68
-21 3 3 0.07 3.02
-18 21 -3 4.15 2.54
-3 -18 0 4.15 2.91
-21 3 0 6.07 5.65
-18 21 0 1.02 1.74
-21 3 0 -0.46 1.54
-18 21 0 4.45 5.64
-3 -18 3 17.38 6.52
-21 3 -3 21.38 7.7
-18 21 3 14.25 5.12
-21 3 -3 11.47 4.82
-18 21 3 16.89 7.03
-3 -18 6 3.78 2.05
-21 3 -6 3.98 3.88
-18 21 6 3 2.52
-21 3 -6 1.09 2.93
-18 21 6 8.34 4.29
-21 3 -9 2.9 2.54
-18 21 9 -0.1 2.24
-21 3 -9 0.82 2.69
-18 21 9 -0.68 3.08
-2 -19 -10 27.51 15.79
-21 2 10 20.1 11.66
-19 21 -10 36.29 10.52
-2 -19 -7 5.93 3.16
-21 2 7 2.09 4.12
-19 21 -7 3.54 3.27
-2 -19 -4 29.19 9.56
-21 2 4 23.81 6.04
-19 21 -4 19.46 5.03
-2 -19 -1 3.89 1.55
-21 2 1 3.63 2.11
-19 21 -1 2.08 3.84
-2 -19 2 54.41 17.43
-21 2 -2 52.66 17.67
-19 21 2 47.98 16.06
-21 2 -2 62.28 7.82
-19 21 2 46.96 14.67
-2 -19 5 0.44 1.75
-21 2 -5 2.04 4.97
-19 21 5 6.09 3.91
-21 2 -5 2.17 3.34
-19 21 5 5.78 2.87
-21 2 -8 40.41 12.24
-19 21 8 53.54 7.22
-21 2 -8 37.06 13.44
-19 21 8 39.53 17.95
-1 -20 -8 30.26 8.56
-21 1 8 23.6 7.01
-20 21 -8 14.56 7.37
-1 -20 -5 124.15 24.96
-21 1 5 103.91 13.61
-20 21 -5 89.63 11.25
-1 -20 -2 71.84 12.68
-21 1 2 69.26 22.66
-20 21 -2 56.25 16.08
-1 -20 1 141.19 16.9
-21 1 -1 151.51 13.64
-20 21 1 109.93 26.15
-20 21 1 139.19 19
-1 -20 4 21.58 7.7
-21 1 -4 48.15 12.34
-20 21 4 19.26 6.71
-21 1 -4 15.88 9.13
-20 21 4 39.75 11.82
-21 1 -7 159.44 20.23
-20 21 7 172.97 23.64
-21 1 -7 157.21 15.51
-20 21 7 179.97 19.13
0 -21 -6 60.01 13.16
-21 0 6 53.7 19.71
-21 21 -6 50.94 13.92
0 -21 -3 198 22.02
-21 0 3 206.27 19.02
-21 21 -3 173.98 15.28
0 -21 0 75.4 16.53
-21 0 0 55.23 16.96
-21 21 0 39.36 12.09
0 -21 3 85.83 17.62
-21 0 -3 83.39 23.04
-21 21 3 117.34 9.18
-21 21 3 99.18 11.33
-21 0 -6 65.02 17.15
-21 21 6 81.49 13.74
-21 0 -6 47.37 15.66
-21 21 6 71.27 10.11
-21 -1 -5 4.29 2.66
-22 21 5 3.84 4.75
-22 21 5 -1 2.29
-21 -1 -2 100.18 23.54
-22 21 2 103.2 16.01
-22 21 2 108.15 24.85
1 -22 -1 18.55 4.83
-22 21 -1 10.72 6
1 -22 -4 90.92 18.71
-21 -1 4 82.9 20.47
-22 21 -4 82.89 10.51
-20 -2 -6 26.74 11.56
-22 20 6 28.29 10.42
-22 20 6 50.04 6.42
-2 22 -6 12.62 9.94
-20 -2 -3 21.59 11.07
-22 20 3 15.39 5.44
-22 20 3 20.52 10.12
2 -22 0 14.48 4.15
-20 -2 0 19.17 4.36
-22 20 0 14.09 6.76
-22 20 0 22.49 5.85
2 -22 -3 89.95 18.04
-20 -2 3 84.48 23.35
-22 20 -3 60.44 20.29
2 -22 -6 48.02 12.85
-20 -2 6 21.76 7.32
-22 20 -6 38.86 10.68
-19 -3 -7 54.49 18.35
-22 19 7 36.28 15.49
-22 19 7 54.37 6.18
-3 22 -7 44.06 16.13
-19 -3 -4 1.58 4
-22 19 4 3.13 3.25
-22 19 4 6.44 3.6
3 -22 1 3.53 2.69
-19 -3 -1 3.91 2.34
-22 19 1 3.08 1.19
-22 19 1 5.69 2.51
3 -22 -2 32.89 7.54
-22 19 -2 20.36 6.81
3 -22 -5 16.35 3.21
-19 -3 5 16.79 5.58
-22 19 -5 20.94 5.02
3 -22 -8 53.31 9.87
-19 -3 8 39.94 12.83
-22 19 -8 35.39 8.95
-18 -4 -8 3.93 3.62
-22 18 8 5.84 3.14
-22 18 8 -0.19 1.21
-4 22 -8 3.85 1.36
-18 -4 -5 86.92 28.24
-22 18 5 99.88 14.6
-22 18 5 99.11 11.52
-4 22 -5 131.4 11.32
4 -22 2 26.92 7.54
-18 -4 -2 14.54 7.04
-22 18 2 23.93 7.43
-22 18 2 23.72 5.01
4 -22 -1 70.09 13.9
-18 -4 1 58.25 18.98
-22 18 -1 57.81 10.86
-22 18 -1 48.36 17.32
4 -22 -4 43.71 9.43
-18 -4 4 34.21 14.05
-22 18 -4 39.29 12.66
4 -22 -7 80.07 18.49
-18 -4 7 77.46 12.7
-22 18 -7 77.26 8.51
4 -22 -10 17.4 7.61
-18 -4 10 15.32 8.17
-22 18 -10 19.05 7.06
-17 -5 -9 65.45 17.62
-22 17 9 67.7 20.41
-22 17 9 54.42 15.09
-5 22 -9 44.94 14.47
-17 -5 -6 30.4 8
-22 17 6 32.17 11.82
-22 17 6 24.55 9.21
-5 22 -6 17.29 8.62
-17 -5 -3 197.83 39.73
-22 17 3 212.85 8.96
-22 17 3 205.36 16.4
5 -22 0 46.53 12.26
-17 -5 0 42.26 7.92
-22 17 0 29.91 11.53
-22 17 0 38.57 11.91
5 -22 -3 145.62 14.71
-17 -5 3 178.94 11.77
-22 17 -3 129.57 11.56
-22 17 -3 144.08 15.27
5 -22 -6 98.53 9.48
-17 -5 6 72.88 20.85
-22 17 -6 75.13 14.66
5 -22 -9 119.32 17.03
-17 -5 9 78.7 22.02
-22 17 -9 107.62 16.6
-16 -6 -10 97.55 24.81
-22 16 10 108.64 13.37
-6 22 -10 84.17 11.77
-16 -6 -7 3.67 3.81
-22 16 7 9.85 4.9
-6 22 -7 5.51 3.61
-16 -6 -4 128.56 16.74
-22 16 4 138.83 12.61
-22 16 4 136 11.42
-6 22 -4 129.91 7.01
6 -22 1 2.72 2.83
-16 -6 -1 9.26 5.27
-22 16 1 3.99 3.35
-22 16 1 1.29 1.64
6 -22 -2 102.9 14.96
-16 -6 2 110.29 12.67
-22 16 -2 89.56 20.25
-22 16 -2 90.48 23.29
6 -22 -5 0.97 2.56
-16 -6 5 3.78 2.87
-22 16 -5 4.15 4.73
6 -22 -8 208 28.89
-16 -6 8 228.54 19.31
-22 16 -8 218.62 19.26
6 -22 -11 3 3.15
-16 -6 11 5.67 3.34
-22 16 -11 6.99 5.8
-15 -7 -11 6.65 3.71
-22 15 11 7.47 4.92
-7 22 -11 7.82 5.45
-15 -7 -8 1.06 1.44
-22 15 8 3.25 1.85
-22 15 8 2.77 2.45
-7 22 -8 5.58 2.46
-15 -7 -5 32.92 10.61
-22 15 5 32.03 11.39
-22 15 5 29.9 9.57
-7 22 -5 24.13 9.58
-15 -7 -2 7.8 2.97
-22 15 2 1.8 1.81
-22 15 2 4.4 2.97
7 -22 -1 63.15 6.29
-15 -7 1 76.21 18.98
-22 15 -1 56.74 14.81
-22 15 -1 65.02 16.97
7 -22 -4 20.87 10.76
-15 -7 4 12.67 6.47
-22 15 -4 10.36 4.92
-22 15 -4 21.7 6.18
7 -22 -7 22.28 6.88
-15 -7 7 14.4 6
7 -22 -10 2.25 1.6
-15 -7 10 8.73 4.56
-22 15 -10 10.22 4.66
-14 -8 -12 7.46 6.4
-22 14 12 1.99 5.17
-8 22 -12 6.68 3.68
-22 14 9 10.48 4.35
-8 22 -9 10.43 6.67
-14 -8 -6 5.83 5.06
-22 14 6 4.83 5.33
-22 14 6 5.24 3.68
-8 22 -6 6.45 3.13
-14 -8 -3 12.26 5.04
-22 14 3 10.12 5.76
-22 14 3 4.92 5.84
-8 22 -3 6.95 4.07
8 -22 0 5.49 2.72
-14 -8 0 5.87 5.4
-22 14 0 10.96 5.61
-22 14 0 7.04 3.05
8 -22 -3 21.09 5.96
-14 -8 3 19.88 4.71
-22 14 -3 14.93 4.87
-22 14 -3 24.25 6.88
8 -22 -6 20.72 7.88
-14 -8 6 7.8 4.04
-22 14 -6 15 4.97
-22 14 -6 19.31 7.47
8 -22 -9 49.88 18.46
-14 -8 9 31.52 16.26
-22 14 -9 53.91 14.1
8 -22 -12 2.56 4.45
-14 -8 12 6.54 3.29
-22 14 -12 2.38 2.07
-13 -9 -10 26.43 9.51
-22 13 10 21.45 7.54
-9 22 -10 18.31 5.42
-13 -9 -7 19.02 8
-22 13 7 25.06 5.61
-22 13 7 12.53 3.91
-9 22 -7 16.4 5.58
-13 -9 -4 36.72 11.27
-22 13 4 31.3 9.84
-22 13 4 49.71 9.14
-9 22 -4 33.48 11.39
-13 -9 -1 2.51 5.58
-22 13 1 6.42 3.44
-22 13 1 4.22 3.33
9 -22 -2 65.11 9.77
-13 -9 2 66.32 15.11
-22 13 -2 81.25 5.6
-22 13 -2 69.21 6.06
9 -22 -5 13.14 4.08
-22 13 -5 21.86 4.91
-22 13 -5 14.12 8.5
9 -22 -8 65.01 19.16
-13 -9 8 85.96 9.73
-22 13 -8 59.24 18.13
9 -22 -11 2.71 2.95
-13 -9 11 4.76 3.08
-22 13 -11 1.91 3.09
-12 -10 -11 4.33 2.8
-22 12 11 3.86 3.59
-10 22 -11 3.52 2.23
-12 -10 -8 32.56 9.55
-22 12 8 19.16 7.78
-10 22 -8 19.2 7.69
-12 -10 -5 6.36 2.72
-22 12 5 -1.28 3.18
-22 12 5 8.18 2.54
-10 22 -5 4.43 3.35
-12 -10 -2 1.31 4.3
-22 12 2 0.72 1.6
-22 12 2 3.37 3.26
-10 22 -2 5.83 3.56
10 -22 -1 3.28 2.24
-12 -10 1 0.15 3.71
-22 12 -1 2.06 1.35
-22 12 -1 5.24 2.59
10 -22 -4 23.89 7.64
-12 -10 4 25.4 8.57
-22 12 -4 24.88 6.9
-22 12 -4 28.72 6.16
10 -22 -7 4.42 3.59
-12 -10 7 -0.4 2.31
-22 12 -7 6.7 2.41
-22 12 -7 0.91 2.63
10 -22 -10 2.7 6.82
-12 -10 10 2.26 2.63
-22 12 -10 5.79 2.25
10 -22 -13 6.9 3.49
-12 -10 13 3.53 2.99
-22 12 -13 7.28 3.32
-11 -11 -12 -0.69 3.13
-22 11 12 3.42 3.11
-11 22 -12 3.89 2.78
-11 -11 -9 5.22 3.05
-22 11 9 5.4 3.33
-11 22 -9 5.32 3.37
-11 -11 -6 23.42 8.69
-22 11 6 43.74 9.39
-11 22 -6 26.43 9.68
-11 -11 -3 13.17 7.36
-22 11 3 6.5 3.01
-22 11 3 12.93 4.83
-11 22 -3 10.51 4.34
11 -22 0 3.09 2.87
-11 -11 0 7.01 2.81
-22 11 0 2.55 1.46
-22 11 0 12.45 3.82
11 -22 -3 8.5 1.87
-11 -11 3 5.5 6.29
-22 11 -3 3.99 4.73
-22 11 -3 14.78 3.65
11 -22 -6 16.63 6.38
-11 -11 6 4.9 5.7
-22 11 -6 5.98 4.12
-22 11 -6 27.9 4.7
11 -22 -9 40.95 11.47
-11 -11 9 45.21 6.47
-22 11 -9 25.63 12.05
11 -22 -12 11.59 4.75
-11 -11 12 10.17 4.04
-22 11 -12 13.83 5.23
-10 -12 -13 4.16 3.52
-22 10 13 1.56 2.29
-12 22 -13 -1.15 2.39
-10 -12 -10 42.13 17.6
-22 10 10 46.83 14.56
-12 22 -10 52.01 11.76
-10 -12 -7 6.22 3.61
-22 10 7 6.74 4.33
-12 22 -7 0.01 2.76
-10 -12 -4 224.31 38.1
-22 10 4 202.79 22.71
-22 10 4 193.5 19.36
-12 22 -4 192.09 22.63
-10 -12 -1 2.93 2.46
-22 10 1 5.96 3.07
-12 22 -1 -0.1 1.41
-22 10 1 -0.72 1.84
-12 22 -1 1.36 2.48
-10 -12 2 162.73 10.08
-22 10 -2 140.03 16.55
-22 10 -2 167.11 17.27
12 -22 -5 5.29 3.58
-10 -12 5 19.67 8.24
-22 10 -5 12.07 6.29
-22 10 -5 9.66 5.18
12 -22 -8 201.15 18.59
-10 -12 8 264.57 13.62
-22 10 -8 192.76 14.87
-22 10 -8 214.16 18.94
-10 -12 11 4.35 2.1
-22 10 -11 4.38 4.25
-9 -13 -11 89.21 28.23
-22 9 11 100.32 14.08
-13 22 -11 69.94 21.46
-9 -13 -8 93.47 14.09
-22 9 8 71.26 18.4
-13 22 -8 74.81 12.17
-9 -13 -5 228.21 25.91
-22 9 5 309.35 21.66
-13 22 -5 283.32 17.93
-9 -13 -2 101.04 13.13
-22 9 2 103.98 6.8
-22 9 2 77.9 15.65
-13 22 -2 81.75 23.73
-9 -13 1 138.09 11.21
-22 9 -1 184.05 9.38
-13 22 1 199.04 18.04
-22 9 -1 180.2 18.11
-13 22 1 157.86 13.55
-9 -13 4 53.54 5.8
-22 9 -4 52.34 11.63
-13 22 4 51.44 13.5
-22 9 -4 58.92 12.39
-9 -13 7 377.16 10.86
-22 9 -7 327.04 10.71
-13 22 7 331.89 23.71
-22 9 -7 335.51 33.53
-9 -13 10 105.49 18.88
-22 9 -10 59.66 17.34
-13 22 10 71.8 12.05
-22 9 -10 70.74 24.28
-22 9 -13 175.82 25.79
-8 -14 -12 2.26 3.32
-22 8 12 3.21 4.54
-14 22 -12 -0.25 3.38
-8 -14 -9 328.38 15.52
-14 22 -9 320.96 14.12
-8 -14 -6 135.96 31.86
-22 8 6 163.45 18.15
-14 22 -6 151.55 9.4
-8 -14 -3 185.07 13.47
-22 8 3 142.46 17.85
-22 8 3 152.37 9.75
-14 22 -3 147.01 16.18
-8 -14 0 40.96 16.05
-22 8 0 37.69 11.63
-14 22 0 37.26 8.14
-22 8 0 31.3 6.56
-14 22 0 38.39 5.12
-8 -14 3 116.69 13.53
-22 8 -3 150.34 11.43
-14 22 3 134.6 10.16
-22 8 -3 104.43 8.43
-14 22 3 104.06 27.69
-8 -14 6 67.76 13
-22 8 -6 46.05 12.26
-14 22 6 28.03 18.46
-22 8 -6 42.76 14.66
-8 -14 9 233.62 18.81
-22 8 -9 215.73 21.31
-14 22 9 220.73 16.18
-22 8 -9 223.81 22.62
-14 22 12 42.52 19.72
-22 8 -12 52.9 18.43
-7 -15 -10 57.36 18.68
-22 7 10 72.64 10.23
-15 22 -10 54.24 16.79
-7 -15 -7 3.19 4.24
-22 7 7 7.09 4.26
-15 22 -7 9.98 3.91
-7 -15 -4 19.39 8.55
-22 7 4 24.82 4.79
-15 22 -4 29.18 12.25
-7 -15 -1 30.07 7.55
-22 7 1 33.73 9.6
-22 7 1 23.3 10.37
-15 22 -1 29.68 11.17
-7 -15 2 127.44 17.31
-22 7 -2 113.66 19.22
-15 22 2 134.24 9.32
-22 7 -2 104.86 9.87
-15 22 2 130.64 21.92
-7 -15 5 4.22 3.06
-22 7 -5 0.36 3.73
-15 22 5 3.62 1.54
-22 7 -5 4.31 1.3
-15 22 5 3.25 5.14
-7 -15 8 93.6 13.97
-22 7 -8 81.65 18.15
-15 22 8 100.58 14.95
-22 7 -8 103.28 12.4
-22 7 -11 7.15 6.82
-22 7 -11 2.3 4.49
-6 -16 -11 7.87 4.79
-22 6 11 10.31 6.69
-16 22 -11 7.78 6.88
-6 -16 -8 11.1 5.45
-22 6 8 3.19 1.76
-16 22 -8 0.2 2.15
-6 -16 -5 1.78 2.96
-22 6 5 5.39 3.55
-16 22 -5 7.25 5.18
-6 -16 -2 0.62 3.4
-22 6 2 13.6 6.08
-16 22 -2 14.7 8.71
-6 -16 1 1.46 2.45
-16 22 1 2.42 1.78
-22 6 -1 5.47 3.29
-16 22 1 6.26 4.13
-6 -16 4 1.99 3.64
-22 6 -4 -0.56 2.74
-16 22 4 2.8 3.62
-22 6 -4 0.19 2.8
-16 22 4 5.83 5.83
-6 -16 7 3.4 3.24
-22 6 -7 9.44 4.58
-16 22 7 8.3 4.52
-22 6 -7 4.7 2.32
-16 22 7 6.93 3.36
-22 6 -10 6.99 4.24
-16 22 10 2.92 2.72
-22 6 -10 4.55 5.01
-5 -17 -9 46.1 13.62
-22 5 9 46.18 12.62
-17 22 -9 51.39 12.51
-5 -17 -6 20.92 13.74
-22 5 6 22.54 11.18
-17 22 -6 43.67 10.38
-5 -17 -3 13.77 8.55
-22 5 3 0.33 2.72
-17 22 -3 1.88 2.99
-5 -17 0 25.9 9.07
-22 5 0 31.63 9.04
-17 22 0 24.65 9.98
-22 5 0 38.05 5.49
-17 22 0 34.02 14.56
-5 -17 3 18.22 7.13
-22 5 -3 26.12 7.74
-17 22 3 14.78 3.59
-22 5 -3 14.33 5.86
-17 22 3 18.41 7.14
-5 -17 6 28.58 11.05
-22 5 -6 37.83 6.25
-17 22 6 30.71 9.86
-22 5 -6 29.73 7.81
-17 22 6 31.99 13.54
-22 5 -9 4.46 2.69
-17 22 9 1.6 1.79
-22 5 -9 -0.81 2.44
-17 22 9 5.03 7.77
-4 -18 -10 35.08 10.17
-22 4 10 20.88 10.98
-18 22 -10 31.02 9.76
-4 -18 -7 3.25 3.56
-22 4 7 1.19 2.88
-18 22 -7 2.96 2
-4 -18 -4 36.59 10.96
-22 4 4 28.41 11.21
-18 22 -4 34.36 9.54
-4 -18 -1 79.53 8.44
-22 4 1 61.87 15.94
-18 22 -1 60.29 17.77
-4 -18 2 22.23 10.16
-22 4 -2 16.5 8.31
-18 22 2 18.47 6.02
-22 4 -2 20.5 5
-18 22 2 23.5 9.25
-4 -18 5 29.07 7.76
-22 4 -5 22.01 8.33
-18 22 5 24.33 8.25
-22 4 -5 26.21 11.25
-18 22 5 25.38 12.42
-22 4 -8 5.02 2.7
-18 22 8 4.22 3.38
-22 4 -8 2.16 1.95
-18 22 8 4.03 6.92
-3 -19 -8 21.47 7.63
-22 3 8 13.36 6.41
-19 22 -8 10.75 8.41
-3 -19 -5 6.14 5.1
-22 3 5 10.76 4.64
-19 22 -5 5.69 2.87
-3 -19 -2 21.07 6.76
-22 3 2 24.49 9.08
-19 22 -2 26.27 5.67
-3 -19 1 2.17 3.25
-22 3 -1 5.51 6.22
-19 22 1 2.66 1.29
-19 22 1 3.08 4.98
-3 -19 4 5.51 3.69
-22 3 -4 5.8 2.88
-19 22 4 1.33 3.05
-22 3 -4 4.93 3.41
-19 22 4 5.34 4.95
-22 3 -7 3.92 2.33
-19 22 7 7.19 2.75
-22 3 -7 -0.38 2.47
-19 22 7 0.76 2.91
-2 -20 -6 5.7 5.33
-22 2 6 20.32 12.9
-20 22 -6 18.25 4.94
-2 -20 -3 41.15 6.58
-22 2 3 36.22 8.76
-20 22 -3 26.27 10.19
-2 -20 0 6.97 6.25
-22 2 0 6.14 3.85
-20 22 0 1.06 2.76
-2 -20 3 82.16 11.22
-22 2 -3 71.35 18.63
-20 22 3 88.72 10.53
-22 2 -3 75.37 10.69
-20 22 3 89.36 10.75
-22 2 -6 13.59 8.31
-20 22 6 20.93 7.3
-22 2 -6 20.56 5.45
-20 22 6 21.76 8.87
-1 -21 -4 169.51 19.02
-22 1 4 182.68 14.83
-1 -21 -1 12.98 7.24
-22 1 1 3.25 3.1
-21 22 -1 8.79 5.84
-1 -21 2 123.32 16.28
-22 1 -2 126.44 17.98
-21 22 2 130.15 11.26
-21 22 2 105.5 30.92
-22 1 -5 9.27 4.87
-21 22 5 0.48 3.65
-22 1 -5 3.87 3.6
-21 22 5 9.99 5.09
0 -22 -2 32 8.63
-22 0 2 27.02 9.57
-22 22 -2 37.03 10.02
0 -22 1 92.97 11.27
-22 0 -1 94.08 19.33
-22 22 1 114.45 12.9
-23 21 1 7.34 3.86
-20 -3 -5 4.48 5.58
-23 20 5 3.35 2.79
-23 20 5 1.73 4.34
-3 23 -5 2.15 2.48
-20 -3 -2 6.48 4.31
-23 20 2 7.75 4.4
-23 20 2 8.57 5.3
3 -23 -1 4.08 2.75
-20 -3 1 6.76 5.24
-23 20 -1 0.99 2.7
3 -23 -4 6.64 4.26
-20 -3 4 4.92 4.84
-23 20 -4 3.96 3.29
-19 -4 -6 32.29 11
-23 19 6 32.66 7.39
-23 19 6 31.6 10.58
-4 23 -6 26.32 12.57
-19 -4 -3 69.53 23.11
-23 19 3 63.66 19.01
-23 19 3 69.77 8.33
4 -23 0 10.33 4.62
-19 -4 0 5.88 9.59
-23 19 0 5 4.2
-23 19 0 5.64 6.04
4 -23 -3 68.66 16.4
-19 -4 3 80.82 9.45
-23 19 -3 86.01 8
4 -23 -6 1.15 3.55
-23 19 -6 4.26 4.74
-18 -5 -7 10.94 4.08
-23 18 7 1.25 2.39
-23 18 7 4.07 2.09
-5 23 -7 3.87 3.45
-18 -5 -4 228.41 44.18
-23 18 4 260.77 27.99
-23 18 4 242.67 28.67
-18 -5 -1 7.72 4.49
-23 18 1 2.18 3.5
-23 18 1 7.06 5.72
5 -23 -2 296.61 18.34
-18 -5 2 308.51 19.64
-23 18 -2 263.78 23.14
5 -23 -5 9.42 4.15
-18 -5 5 9.6 5.22
-23 18 -5 8.72 5.88
5 -23 -8 85.61 20.66
-18 -5 8 139.26 23.36
-23 18 -8 120.73 25.65
-17 -6 -8 41.73 12.5
-23 17 8 52.83 14.42
-23 17 8 39.2 15.83
-6 23 -8 44.79 14.72
-17 -6 -5 246.55 16.34
-23 17 5 229.17 13.84
-23 17 5 243.54 28.91
-6 23 -5 235.11 14.57
-17 -6 -2 46.51 18.82
-23 17 2 59.69 16.65
-23 17 2 55.78 19.36
6 -23 -1 111.2 16.94
-17 -6 1 137.01 26.04
-23 17 -1 99.9 12.47
-23 17 -1 120.7 17.77
6 -23 -4 14.44 6.1
-17 -6 4 28.13 6.57
-23 17 -4 17.39 7.6
6 -23 -7 253.04 17
-17 -6 7 214.28 23.37
-23 17 -7 204.28 27.84
-16 -7 -9 55.24 18.52
-23 16 9 55.52 15.47
-7 23 -9 74.49 11.13
-16 -7 -6 17.38 7.56
-23 16 6 15.46 7.23
-23 16 6 19.78 6.12
-7 23 -6 5.94 5.56
-16 -7 -3 128.24 22.55
-23 16 3 135.99 12.12
-23 16 3 145.09 20.91
7 -23 0 13.1 7.53
-16 -7 0 26.76 9.55
-23 16 0 27.19 5.74
-23 16 0 20.85 7.56
7 -23 -3 5.22 2.81
-16 -7 3 10.97 7.39
-23 16 -3 15.58 3.2
-23 16 -3 10.58 6
7 -23 -6 8.85 4.88
-16 -7 6 12.99 5.09
-23 16 -6 4.63 4.9
7 -23 -9 84.98 10.46
-16 -7 9 109.77 16.79
-23 16 -9 86.54 23.86
-15 -8 -10 1.83 3.2
-23 15 10 4.97 4.52
-8 23 -10 2.67 3.12
-15 -8 -7 6.92 4.4
-23 15 7 2.48 1.35
-23 15 7 3.12 2.87
-8 23 -7 3.11 2.57
-15 -8 -4 11.64 5.68
-23 15 4 5.87 3.01
-23 15 4 4.66 3.21
-8 23 -4 3.52 2.85
-15 -8 -1 16.38 5.68
-23 15 1 18.96 4.89
8 -23 -2 7.24 2.95
-15 -8 2 7.96 5.6
-23 15 -2 5.24 3.85
-23 15 -2 2.98 2.95
8 -23 -5 0.2 2.8
-15 -8 5 4.3 2.9
-23 15 -5 1.48 1.99
8 -23 -8 14.14 5.99
-15 -8 8 12.22 6.9
-23 15 -8 22.69 10.87
-14 -9 -8 9.82 5.11
-23 14 8 8.85 7.52
-9 23 -8 8.35 3.98
-14 -9 -5 20.88 5.92
-23 14 5 9.56 2.86
-23 14 5 10.75 4.57
-9 23 -5 11.22 5.03
-14 -9 -2 1.87 2.63
-23 14 2 3.37 4.68
-23 14 2 1.82 2.23
-9 23 -2 2.49 3.14
9 -23 -1 24.89 10.8
-14 -9 1 18.77 5.84
-23 14 -1 18.08 5.1
-23 14 -1 22.77 6.34
9 -23 -4 4.16 3.08
-14 -9 4 2.06 2.41
-23 14 -4 1.49 2.63
-23 14 -4 9.33 5.47
-14 -9 7 13.39 8.54
-23 14 -7 28.14 5
9 -23 -10 4.3 2.7
-14 -9 10 4.56 1.81
-23 14 -10 16.92 6.28
-13 -10 -9 14.84 7.93
-23 13 9 24.19 10.16
-10 23 -9 12.36 5.35
-13 -10 -6 38.45 12.23
-23 13 6 37.51 14.17
-10 23 -6 27.6 10.67
-13 -10 -3 6.43 5.13
-23 13 3 7.45 5.42
-10 23 -3 6.15 4.54
-13 -10 0 47.2 14.86
-23 13 0 52.87 9.5
-23 13 0 44.68 11.45
10 -23 -3 14.46 4.49
-13 -10 3 10.05 7.36
-23 13 -3 8.8 4.18
-23 13 -3 22.57 6.64
10 -23 -6 24.19 8.67
-13 -10 6 19.35 11
-23 13 -6 28.29 9.7
-23 13 -6 24.75 9.79
10 -23 -9 10.82 6.59
-13 -10 9 10.71 5.94
-23 13 -9 18.24 5.21
-12 -11 -10 1.25 1.78
-23 12 10 13.11 7.59
-11 23 -10 5.61 4.43
-12 -11 -7 4.99 5.06
-23 12 7 3.33 3.6
-11 23 -7 3.22 2.86
-12 -11 -4 3.42 3.02
-23 12 4 3.67 3.01
-11 23 -4 5.8 3
-12 -11 -1 30.48 8.44
-23 12 1 30.65 8.81
-23 12 1 30.88 11.99
-11 23 -1 21.06 8.96
11 -23 -2 3.32 1.48
-12 -11 2 17.68 5.41
-23 12 -2 3.75 3.09
-23 12 -2 12.56 4.9
11 -23 -5 28.87 16.26
-12 -11 5 54.45 14.67
-23 12 -5 35.93 11.96
-23 12 -5 50.37 12.39
11 -23 -8 3.78 2.72
-12 -11 8 5.55 5.03
-23 12 -8 4.66 3.5
11 -23 -11 5.31 4.66
-12 -11 11 8.96 6.39
-23 12 -11 6.57 5.01
-11 -12 -11 4.16 3.46
-23 11 11 3.58 3.45
-12 23 -11 3.95 3.86
-11 -12 -8 24.03 9.1
-23 11 8 25.57 8.82
-12 23 -8 21.47 9.86
-11 -12 -5 14.72 8.41
-23 11 5 16.24 7.59
-12 23 -5 10.6 6.86
-11 -12 -2 31.69 8.7
-23 11 2 47.96 9.95
-23 11 2 40.17 7.18
-12 23 -2 37.29 10.08
-11 -12 1 21.35 5.92
-23 11 -1 10.3 6.37
-12 23 1 6.55 6.4
12 -23 -4 30.18 11.34
-11 -12 4 50.4 17.56
-23 11 -4 32.58 10.91
-23 11 -4 44.47 10.35
12 -23 -7 13.64 8.16
-11 -12 7 14.5 5.37
-23 11 -7 19.12 4.47
-23 11 -7 26.46 8.17
12 -23 -10 37.03 17.91
-11 -12 10 55.14 16.89
-23 11 -10 58.27 14.56
-10 -13 -9 25.36 11.38
-23 10 9 32.85 14.52
-13 23 -9 28.69 10.59
-10 -13 -6 42.56 9.78
-23 10 6 45.12 17.68
-13 23 -6 47.23 18.41
-10 -13 -3 102.15 16.39
-23 10 3 96.55 20.05
-23 10 3 86.01 13.93
-13 23 -3 73.58 19
-10 -13 0 1.48 3.54
-23 10 0 18.23 5.58
-13 23 0 4.56 3.52
-23 10 0 20.94 4.48
-13 23 0 24.06 8.49
-10 -13 3 149.83 12.24
-23 10 -3 135.53 23.4
-13 23 3 124.26 13.82
-23 10 -3 129.37 16.28
-10 -13 6 93.29 11.64
-23 10 -6 90.32 22.32
-13 23 6 100.15 15.46
-23 10 -6 78.47 20.99
-10 -13 9 234.69 14.06
-13 23 9 233.98 14.62
-23 10 -9 174.02 20.53
-9 -14 -10 65.72 20.56
-23 9 10 56.28 20.25
-14 23 -10 86.41 10.29
-9 -14 -7 4.55 3.38
-23 9 7 -0.57 3.03
-14 23 -7 3.68 3.29
-9 -14 -4 278.39 12.94
-23 9 4 217.52 11.09
-14 23 -4 217.65 18.73
-9 -14 -1 3.4 2.93
-23 9 1 6.68 4.72
-23 9 1 0.02 1.82
-14 23 -1 2.57 3.4
-9 -14 2 135.71 16.81
-23 9 -2 120.89 16.85
-14 23 2 154.91 9.02
-23 9 -2 140.87 14.28
-14 23 2 174.3 9.85
-9 -14 5 2.49 2.31
-23 9 -5 1.79 3.01
-14 23 5 5.31 3.67
-23 9 -5 7.58 2.89
-9 -14 8 243.93 27.21
-23 9 -8 273.06 21.5
-14 23 8 264.72 17.06
-23 9 -8 270.46 24.19
-8 -15 -8 26.73 8.42
-23 8 8 21.63 7.72
-15 23 -8 27.71 9.95
-8 -15 -5 65.18 22.71
-23 8 5 60.31 18.73
-15 23 -5 71.09 7.9
-8 -15 -2 38.05 12.85
-23 8 2 49 15.13
-15 23 -2 53.75 14.31
-8 -15 1 27.86 11.44
-23 8 -1 42.87 14.42
-15 23 1 39.38 10.89
-23 8 -1 31.9 12.57
-15 23 1 44.48 10.69
-8 -15 4 33.72 11.07
-23 8 -4 37.47 7.63
-15 23 4 32.49 12.65
-23 8 -4 35.35 7.95
-15 23 4 37.73 17.34
-8 -15 7 90.18 16.84
-23 8 -7 60.06 17.03
-15 23 7 76.52 14.6
-23 8 -7 94.47 13.14
-8 -15 10 7.03 3.02
-23 8 -10 6.69 2.82
-15 23 10 4.4 5.3
-23 8 -10 5.96 3.31
-23 7 9 29.33 9.73
-16 23 -9 20.51 7.46
-7 -16 -6 2.83 3.4
-23 7 6 1.82 2.07
-16 23 -6 1.76 3.07
-7 -16 -3 18.13 7.16
-23 7 3 6.84 4.41
-16 23 -3 26.56 6.06
-7 -16 0 12.31 5.9
-23 7 0 17.06 7.1
-23 7 0 13.43 5.57
-16 23 0 3.34 3.11
-7 -16 3 50.59 14.84
-23 7 -3 36.14 9
-16 23 3 28.4 12.2
-23 7 -3 27.97 9.56
-16 23 3 36.73 15.01
-7 -16 6 0.72 1.61
-23 7 -6 3.37 3.14
-16 23 6 2.44 2.85
-23 7 -6 1.82 2.27
-16 23 6 5.26 1.97
-7 -16 9 6.18 3.52
-23 7 -9 8.81 7
-16 23 9 4.72 5.19
-23 7 -9 10.36 5.95
-6 -17 -7 76.6 23.82
-23 6 7 73.09 27.63
-17 23 -7 70.38 23.61
-6 -17 -4 13.64 5.27
-23 6 4 7.85 5.09
-17 23 -4 7.14 3.97
-6 -17 -1 62.49 18.99
-23 6 1 55.51 20.92
-17 23 -1 95.27 11.56
-6 -17 2 14.47 5.62
-23 6 -2 21.13 8.82
-17 23 2 12.47 7.98
-23 6 -2 11.75 3.95
-17 23 2 20.07 9.6
-6 -17 5 23.76 10.97
-23 6 -5 27.71 6.99
-17 23 5 33.31 11.47
-23 6 -5 34.41 10.76
-17 23 5 27.94 9.4
-6 -17 8 15.39 4.89
-23 6 -8 17.76 6.52
-17 23 8 15.35 6.12
-23 6 -8 22.88 8.44
-17 23 8 20.09 9.06
-5 -18 -8 1.52 3.79
-23 5 8 7 8.62
-18 23 -8 7.56 4.32
-5 -18 -5 108.99 16.09
-23 5 5 138.2 18.61
-18 23 -5 139.6 14.16
-5 -18 -2 33.1 13.18
-23 5 2 15.11 7.99
-18 23 -2 29.45 7.59
-5 -18 1 239.56 16.48
-23 5 -1 206.51 15.86
-18 23 1 199.42 16.89
-5 -18 4 9.33 4.16
-18 23 4 14.88 6.33
-18 23 4 16.99 10.51
-23 5 -7 69.41 20.89
-18 23 7 48.55 21.22
-23 5 -7 51.27 19.55
-18 23 7 61.55 23.76
-4 -19 -6 94.65 24.64
-23 4 6 105.17 21.98
-19 23 -6 105.04 19.82
-4 -19 -3 6.19 4.61
-23 4 3 10.33 5.51
-19 23 -3 5.03 3.54
-4 -19 0 139.02 16.81
-23 4 0 119.43 17.69
-19 23 0 154.45 16.83
-4 -19 3 1.24 1.86
-23 4 -3 3.51 4.91
-19 23 3 0.84 2.51
-23 4 -3 2.01 2.24
-19 23 3 6.9 3.8
-23 4 -6 61.04 14.46
-19 23 6 76.72 14.31
-23 4 -6 49.03 15.21
-19 23 6 55.37 13.26
-3 -20 -4 1.75 2.56
-23 3 4 23.34 15.25
-20 23 -4 2.61 3.41
-3 -20 -1 31.86 12.98
-23 3 1 42.35 11.44
-20 23 -1 51.51 6.87
-3 -20 2 3.49 2.48
-23 3 -2 3.9 4.68
-20 23 2 2.15 5.51
-23 3 -5 7 4.43
-20 23 5 5.27 3.01
-23 3 -5 6.06 3.59
-20 23 5 10.28 3.7
-2 -21 1 -0.72 2.01
-21 23 1 1.54 2.75
-19 -5 -2 18.37 6.62
-24 19 2 23.45 7.3
-24 19 2 29.56 11.25
5 -24 -1 45.66 17.21
-19 -5 1 57.14 17.72
-24 19 -1 69.41 15.67
-18 -6 -3 76.91 23.52
-24 18 3 103.1 17.6
-24 18 3 108.82 21.56
-18 -6 0 4.9 4.53
-24 18 0 1.42 2.04
-24 18 0 5.52 3.78
6 -24 -3 150.42 17.83
-18 -6 3 132.09 34.53
-24 18 -3 137.39 15.74
-17 -7 -4 198.45 22.63
-24 17 4 211.58 17.91
-24 17 4 171.88 21.71
-7 24 -4 200.88 15.65
-17 -7 -1 7.32 3.33
-24 17 1 3.36 3.06
-24 17 1 1.68 2.84
7 -24 -2 47.43 13
-17 -7 2 57.38 21.79
-24 17 -2 46.92 9.74
-24 17 -2 72.22 13.48
7 -24 -5 2.36 3.94
-17 -7 5 4.63 5.96
-24 17 -5 6.04 4.15
-16 -8 -5 5.24 5.88
-24 16 5 2.06 2.05
-24 16 5 4.64 2.41
-8 24 -5 1.32 2.29
-16 -8 -2 49.43 13.48
-24 16 2 61.48 9.16
-24 16 2 60.8 16.44
8 -24 -1 2.77 2.97
-16 -8 1 2.79 2.74
-24 16 -1 6.24 4.09
-24 16 -1 7.04 3.21
8 -24 -4 13.26 5.82
-16 -8 4 7.78 5.3
-24 16 -4 9.1 6.01
8 -24 -7 16.62 6.7
-16 -8 7 22.5 9.63
-24 16 -7 16.54 12.34
-15 -9 -6 21.16 10.54
-24 15 6 35.7 15.78
-9 24 -6 26.1 9.17
-15 -9 -3 0.76 2.17
-24 15 3 7.03 4
-24 15 3 2.25 2.89
-9 24 -3 4.98 2.89
-15 -9 0 26.51 10.1
-24 15 0 33.8 12.08
-24 15 0 35.21 15.36
9 -24 -3 1.62 2.02
-15 -9 3 6.2 7.27
-24 15 -3 3.53 3.16
-24 15 -3 3.1 3.45
9 -24 -6 27.62 12.37
-15 -9 6 37.32 12.37
-24 15 -6 24.76 7.3
-14 -10 -7 180.3 18.85
-24 14 7 107.34 17.47
-10 24 -7 79.95 17.59
-14 -10 -4 34.51 11.5
-24 14 4 23.47 9.87
-24 14 4 43.51 9.41
-10 24 -4 33.37 10.18
-14 -10 -1 119.62 22.42
-24 14 1 117.35 19
-24 14 1 124.29 14.7
-10 24 -1 130.3 12.84
10 -24 -2 22.41 8.2
-14 -10 2 30.14 10.84
-24 14 -2 17.2 13.54
-24 14 -2 22.4 8.27
10 -24 -5 27.64 12.87
-14 -10 5 19.63 13.06
-24 14 -5 22.7 7.76
-24 14 -5 34.81 12.38
10 -24 -8 18.6 12.87
-14 -10 8 22.01 4.73
-24 14 -8 26.39 8.7
-13 -11 -8 1.74 4.53
-24 13 8 5.31 3.01
-11 24 -8 3.45 3.07
-13 -11 -5 96.94 25.06
-24 13 5 104.21 17.86
-11 24 -5 89.03 10.06
-13 -11 -2 19.09 10.52
-24 13 2 25.09 8.21
-24 13 2 18.83 9.85
-11 24 -2 21.11 6.24
-13 -11 1 133.72 15.7
-24 13 -1 112.23 16.66
-24 13 -1 95.35 24.97
11 -24 -4 37.9 9.05
-13 -11 4 49.1 14.72
-24 13 -4 51.52 15.28
-24 13 -4 61.68 13.27
11 -24 -7 59.84 8.47
-13 -11 7 52.32 9.89
-24 13 -7 45.63 19.17
-12 -12 -6 67.56 17.35
-24 12 6 62.92 16.67
-12 24 -6 52.19 19.33
-12 -12 -3 21.1 8.49
-24 12 3 32.77 9.15
-24 12 3 40.27 10.92
-12 24 -3 46.08 15.84
-12 -12 0 24.25 11.69
-24 12 0 25.29 7.84
-24 12 0 26.48 7.71
-12 24 0 15.18 8.62
12 -24 -3 13.85 4.05
-12 -12 3 6.78 3.82
-24 12 -3 20.65 4.31
-24 12 -3 8.53 4.14
12 -24 -6 32.65 15.03
-12 -12 6 39.19 13.62
-24 12 -6 21 7.11
-24 12 -6 34.15 8.28
-11 -13 -7 7.96 6.23
-24 11 7 3.6 4.94
-13 24 -7 4.74 2.78
-11 -13 -4 18.81 6.24
-24 11 4 10.97 6.34
-13 24 -4 29.01 8.72
-11 -13 -1 13.08 4.85
-24 11 1 15.71 5.36
-24 11 1 12.55 5.06
-13 24 -1 10.6 4.71
-11 -13 2 15.25 6.14
-24 11 -2 18.22 4.36
-13 24 2 13.31 5.25
-13 24 2 13.25 8.78
-11 -13 5 5.29 3.43
-24 11 -5 2.22 2.09
-24 11 -5 3.54 3.29
-11 -13 8 13.44 9.8
-13 24 8 23.21 6.31
-24 11 -8 11.96 6.56
-10 -14 -8 2.41 3.1
-24 10 8 6.66 5.26
-14 24 -8 0.17 2.68
-10 -14 -5 131.62 28.49
-24 10 5 126.94 17.83
-14 24 -5 98.92 14.69
-10 -14 -2 4.45 2.74
-24 10 2 5.4 5.09
-24 10 2 8.27 3.4
-14 24 -2 1.39 3.15
-10 -14 1 32.72 12.86
-24 10 -1 26.94 17.35
-24 10 -1 32.3 8.45
-14 24 1 29.29 11.28
-10 -14 4 5.37 3.35
-24 10 -4 5.05 3.99
-14 24 4 3.74 3.04
-24 10 -4 2.42 1.33
-10 -14 7 28.81 14.28
-24 10 -7 25.44 8.44
-14 24 7 28.97 13.49
-24 10 -7 22.43 11.57
-9 -15 -6 15.21 8.12
-24 9 6 9.29 5.13
-15 24 -6 23.91 8.68
-9 -15 -3 44.34 13.36
-24 9 3 39.29 9.18
-15 24 -3 52.33 12.77
-9 -15 0 32.87 9.94
-24 9 0 7.44 4.29
-24 9 0 14.98 5.08
-15 24 0 19.65 6.98
-9 -15 3 12.86 2.72
-24 9 -3 12.39 4.44
-15 24 3 7.33 3.38
-24 9 -3 11.58 6.65
-15 24 3 15.51 5.12
-9 -15 6 21.81 9.09
-24 9 -6 29.24 7.13
-15 24 6 17.46 8.09
-24 9 -6 22.27 8.88
-8 -16 -7 3.72 2.8
-24 8 7 1.67 3.78
-16 24 -7 -0.13 3.01
-8 -16 -4 6.3 5.54
-24 8 4 0.78 3.44
-16 24 -4 0.81 3.25
-8 -16 -1 4.26 3.03
-24 8 1 4.16 2.27
-16 24 -1 0.09 4.64
-24 8 -2 -0.04 2.51
-16 24 2 2.75 2.29
-24 8 -2 2.89 2.43
-16 24 2 3.04 2.61
-24 8 -5 5.54 3.65
-16 24 5 12.54 6.6
-24 8 -5 11.46 4.51
-16 24 5 10.75 6.61
-7 -17 -5 32.77 10.62
-24 7 5 36.43 15.98
-17 24 -5 41.63 13.32
-7 -17 -2 22.43 9.38
-24 7 2 18.27 10.71
-17 24 -2 21.81 12.69
-7 -17 1 80.31 8.72
-24 7 -1 58.84 19.35
-24 7 -1 53.76 15.08
-17 24 1 53.98 18.56
-7 -17 4 22.07 5.97
-24 7 -4 24.81 7.15
-17 24 4 13.37 5.46
-24 7 -4 20.36 9.89
-17 24 4 28.05 5.51
-6 -18 -3 11.79 7.02
-24 6 3 6.2 3.61
-18 24 -3 7.7 4.58
-6 -18 0 340.74 25.14
-24 6 0 252 20.31
-18 24 0 265.22 34.7
-6 -18 3 3.17 2.58
-24 6 -3 7.33 2.56
-18 24 3 0.04 2.37
-24 6 -3 2.58 1.79
-18 24 3 4.43 3.92
-5 -19 -1 127.15 13.66
-24 5 1 142.5 13.33
-19 24 -1 143.7 16.53
-5 -19 2 47.1 17.54
-24 5 -2 58.93 20.37
-19 24 2 62.3 22.76
-16 -9 -1 29.7 8.25
-25 16 1 23.26 9.14
-25 16 1 24.82 10.78
-16 -9 2 13.27 4.83
-25 16 -2 15.83 3.83
-15 -10 -2 68.05 19.01
-25 15 2 94.6 13.09
-25 15 2 78.22 9.88
-10 25 -2 79.77 10.68
-15 -10 1 87.63 27.08
-25 15 -1 133.56 11.71
-25 15 -1 98.95 15.64
10 -25 -4 2.87 3.24
-15 -10 4 4.05 3.29
-25 15 -4 1.88 3.04
-14 -11 -3 2.81 1.53
-25 14 3 1.32 1.64
-25 14 3 1.45 1.89
-11 25 -3 2.5 3.1
-14 -11 0 296.23 22.71
-25 14 0 332.65 24.61
-25 14 0 281.51 23.34
-11 25 0 336.31 25.05
11 -25 -3 1.67 2.32
-14 -11 3 6.93 4.49
-25 14 -3 3 2.5
-25 14 -3 2.36 2.42
-13 -12 -4 2.29 4.07
-25 13 4 5.06 4.62
-12 25 -4 7.89 4.85
-13 -12 -1 59.36 12.55
-25 13 1 50.18 7.21
-25 13 1 51.9 14.28
-12 25 -1 57.98 19.92
-13 -12 2 33.81 5.62
-25 13 -2 31.89 9.92
-25 13 -2 33.07 8.22
12 -25 -5 113.08 17.06
-13 -12 5 106.65 12.23
-25 13 -5 84.2 14.69
-25 13 -5 83.79 15.24
-12 -13 -5 51.45 16.28
-25 12 5 61.73 14.19
-13 25 -5 32.13 13.68
-12 -13 -2 15.48 8.2
-25 12 2 14.3 7.37
-25 12 2 18 5.13
-13 25 -2 16.87 8.33
-12 -13 1 13.94 5.1
-25 12 -1 4.03 4.41
-25 12 -1 11.05 3.74
-13 25 1 9.51 6.5
-12 -13 4 1.72 2.33
-25 12 -4 0.8 3.32
-13 25 4 1.71 2.54
-25 12 -4 2.56 5.35
-11 -14 -3 5.03 2.72
-25 11 3 4.94 2.9
-14 25 -3 4.04 2.77
-11 -14 0 12.39 5.96
-25 11 0 3.77 3.59
-25 11 0 3.49 2.37
-14 25 0 22.54 5.2
-11 -14 3 12.59 8.01
-25 11 -3 7.55 4.84
-14 25 3 15.98 8.06
-14 25 3 30.64 9.41
-10 -15 -4 5.67 5.63
-25 10 4 7.93 3.92
-15 25 -4 13.16 6.39
-10 -15 -1 18.35 9.58
-25 10 1 19.53 9.17
-15 25 -1 17.3 7.76
-10 -15 2 0.81 3.38
-25 10 -2 2.27 2.35
-25 10 -2 0.68 1.04
-15 25 2 1.1 4.38
-9 -16 -2 39.5 14.52
-25 9 2 28.47 10.74
-16 25 -2 36.9 11.93
-9 -16 1 3.47 2.44
-25 9 -1 1.01 3.31
-25 9 -1 1.22 1.61
-16 25 1 7.13 5.68
