#------------------------------------------------------------------------------
#$Date: 2017-03-04 04:12:25 +0200 (Sat, 04 Mar 2017) $
#$Revision: 192985 $
#$URL: file:///home/coder/svn-repositories/cod/cif/4/34/54/4345462.cif $
#------------------------------------------------------------------------------
#
# This file is available in the Crystallography Open Database (COD),
# http://www.crystallography.net/
#
# All data on this site have been placed in the public domain by the
# contributors.
#
data_4345462
loop_
_publ_author_name
'Cheng, Qing'
'Han, Xiao'
'Tong, Yue'
'Huang, Chao'
'Ding, Jie'
'Hou, Hongwei'
_publ_section_title
;
 Two 3D Cd(II) Metal-Organic Frameworks Linked by Benzothiadiazole
 Dicarboxylates: Fantastic S@Cd6 Cage, Benzothiadiazole Antidimmer, and
 Dual Emission.
;
_journal_issue                   3
_journal_name_full               'Inorganic chemistry'
_journal_page_first              1696
_journal_page_last               1705
_journal_paper_doi               10.1021/acs.inorgchem.6b02863
_journal_volume                  56
_journal_year                    2017
_chemical_formula_moiety
'0.33(C144 H36 Cd18 N36 O72 S21), 6(H2 O), 3(O)'
_chemical_formula_sum            'C48 H30 Cd6 N12 O33 S7'
_chemical_formula_weight         2201.66
_space_group_crystal_system      trigonal
_space_group_IT_number           148
_space_group_name_Hall           '-R 3'
_space_group_name_H-M_alt        'R -3'
_symmetry_space_group_name_Hall  '-R 3'
_symmetry_space_group_name_H-M   'R -3 :H'
_atom_sites_solution_hydrogens   mixed
_audit_creation_date             2016-11-21
_audit_creation_method
;
Olex2 1.2
(compiled 2016.11.07 svn.r3352 for OlexSys, GUI svn.r5261)
;
_cell_angle_alpha                90
_cell_angle_beta                 90
_cell_angle_gamma                120
_cell_formula_units_Z            3
_cell_length_a                   19.676(3)
_cell_length_b                   19.676(3)
_cell_length_c                   19.300(4)
_cell_measurement_reflns_used    7437
_cell_measurement_temperature    293.1500
_cell_measurement_theta_max      27.9003
_cell_measurement_theta_min      2.0700
_cell_volume                     6470.9(19)
_computing_cell_refinement       'CrystalClear (Rigaku/MSC Inc., 2006)'
_computing_data_collection       'CrystalClear (Rigaku/MSC Inc., 2006)'
_computing_data_reduction        'CrystalClear (Rigaku/MSC Inc., 2006)'
_computing_molecular_graphics    'Olex2 (Dolomanov et al., 2009)'
_computing_publication_material  'Olex2 (Dolomanov et al., 2009)'
_computing_structure_refinement  'ShelXL (Sheldrick, 2015)'
_computing_structure_solution
;
????
;
_diffrn_ambient_temperature      293.1500
_diffrn_detector_area_resol_mean 28.5714
_diffrn_measured_fraction_theta_full 0.992
_diffrn_measured_fraction_theta_max 0.988
_diffrn_measurement_details
;
scan:
    Number of images: 360
               Slice: -110.0000 - 70.0000
         Image width: 0.5000
            Exp time: 20.0000
       Rotation axis: Omega
               Omega: 0.0000
                 Chi: 45.0000
                 Phi: 0.0000
                 XTD: 45.2389
              2theta: -19.9659
scan:
    Number of images: 47
               Slice: -110.0000 - -86.5000
         Image width: 0.5000
            Exp time: 20.0000
       Rotation axis: Omega
               Omega: 0.0000
                 Chi: 45.0000
                 Phi: 90.0000
                 XTD: 45.2389
              2theta: -19.9659
;
_diffrn_measurement_device
;
Saturn724 (4x4 bin mode)
;
_diffrn_measurement_device_details
;
AFC10: Fixed Chi 2 circle
;
_diffrn_measurement_device_type  'Bruker P4'
_diffrn_measurement_method       dtprofit.ref
_diffrn_orient_matrix_type       d*Trek
_diffrn_orient_matrix_UB_11      -0.0387
_diffrn_orient_matrix_UB_12      0.0426
_diffrn_orient_matrix_UB_13      -0.0114
_diffrn_orient_matrix_UB_21      -0.0026
_diffrn_orient_matrix_UB_22      0.0473
_diffrn_orient_matrix_UB_23      0.0347
_diffrn_orient_matrix_UB_31      0.0350
_diffrn_orient_matrix_UB_32      0.0238
_diffrn_orient_matrix_UB_33      -0.0298
_diffrn_radiation_detector       CCD
_diffrn_radiation_monochromator  'Graphite Monochromator'
_diffrn_radiation_type           MoK\a
_diffrn_radiation_wavelength     0.71073
_diffrn_reflns_av_R_equivalents  0.0313
_diffrn_reflns_av_unetI/netI     0.0330
_diffrn_reflns_Laue_measured_fraction_full 0.992
_diffrn_reflns_Laue_measured_fraction_max 0.988
_diffrn_reflns_limit_h_max       22
_diffrn_reflns_limit_h_min       -25
_diffrn_reflns_limit_k_max       23
_diffrn_reflns_limit_k_min       -25
_diffrn_reflns_limit_l_max       17
_diffrn_reflns_limit_l_min       -25
_diffrn_reflns_number            10024
_diffrn_reflns_point_group_measured_fraction_full 0.992
_diffrn_reflns_point_group_measured_fraction_max 0.988
_diffrn_reflns_theta_full        25.242
_diffrn_reflns_theta_max         27.901
_diffrn_reflns_theta_min         2.426
_diffrn_source                   'Sealed Tube'
_diffrn_source_current           40.0000
_diffrn_source_power             2.0000
_diffrn_source_voltage           50.0000
_exptl_absorpt_coefficient_mu    1.701
_exptl_absorpt_correction_T_max  1.0000
_exptl_absorpt_correction_T_min  0.8463
_exptl_absorpt_correction_type   multi-scan
_exptl_crystal_colour            Colorless
_exptl_crystal_density_diffrn    1.695
_exptl_crystal_description       Prism
_exptl_crystal_F_000             3198
_exptl_crystal_size_max          0.2
_exptl_crystal_size_mid          0.2
_exptl_crystal_size_min          0.2
_refine_diff_density_max         1.472
_refine_diff_density_min         -0.758
_refine_diff_density_rms         0.110
_refine_ls_extinction_method     none
_refine_ls_goodness_of_fit_ref   1.080
_refine_ls_hydrogen_treatment    constr
_refine_ls_matrix_type           full
_refine_ls_number_parameters     165
_refine_ls_number_reflns         3401
_refine_ls_number_restraints     0
_refine_ls_restrained_S_all      1.080
_refine_ls_R_factor_all          0.0416
_refine_ls_R_factor_gt           0.0366
_refine_ls_shift/su_max          0.001
_refine_ls_shift/su_mean         0.000
_refine_ls_structure_factor_coef Fsqd
_refine_ls_weighting_details
'w=1/[\s^2^(Fo^2^)+(0.0463P)^2^+17.5335P] where P=(Fo^2^+2Fc^2^)/3'
_refine_ls_weighting_scheme      calc
_refine_ls_wR_factor_gt          0.0906
_refine_ls_wR_factor_ref         0.0943
_reflns_Friedel_coverage         0.000
_reflns_number_gt                3021
_reflns_number_total             3401
_reflns_threshold_expression     'I > 2\s(I)'
_iucr_refine_instructions_details
;

    a_sq.res created by SHELXL-2014/7

TITL a in R-3
CELL 0.71073 19.676 19.676 19.2997 90 90 120
ZERR 3 0.0028 0.0028 0.0039 0 0 0
LATT 3
SYMM -Y,+X-Y,+Z
SYMM +Y-X,-X,+Z
SFAC C H N O S Cd
UNIT 144 90 36 99 21 18
 
L.S. 20 0 20
PLAN  10
TEMP 20
HTAB O5 O2
BOND $H
CONF
HTAB
ABIN
fmap 2
acta
MORE -1
OMIT -1 1 1
OMIT 1 1 3
REM <olex2.extras>
REM <HklSrc "%.\\a_sq.hkl">
REM </olex2.extras>
 
WGHT    0.046300   17.533501
FVAR       0.10335
CD1   6    0.110082    0.127012    0.586471    11.00000    0.02389    0.02677 =
         0.02736    0.00206    0.00006    0.01395
N1    3    0.202808    0.174579    0.676786    11.00000    0.04307    0.03194 =
         0.03922   -0.00409   -0.01438    0.02138
N2    3    0.311650    0.266147    0.752472    11.00000    0.04731    0.03208 =
         0.05026   -0.00840   -0.01447    0.02019
O1    4    0.100109    0.014301    0.635997    11.00000    0.02778    0.02812 =
         0.03645   -0.00060   -0.00976    0.01087
O2    4    0.139611   -0.069185    0.659977    11.00000    0.04642    0.02805 =
         0.07207   -0.01071   -0.02443    0.01514
O3    4    0.400295    0.260778    0.880804    11.00000    0.03674    0.03963 =
         0.04272   -0.01328   -0.00809    0.02225
O4    4    0.478747    0.227204    0.828705    11.00000    0.02309    0.03468 =
         0.03472   -0.00452   -0.00404    0.01177
S1    5    0.247431    0.265535    0.700888    11.00000    0.07023    0.03524 =
         0.06424   -0.01180   -0.03195    0.03199
S2    5    0.000000    0.000000    0.500000    10.16667    0.01877    0.01877 =
         0.02338    0.00000    0.00000    0.00938
C1    1    0.148218   -0.002630    0.664805    11.00000    0.02722    0.02980 =
         0.03136    0.00026   -0.00514    0.00930
C2    1    0.215983    0.058889    0.706179    11.00000    0.02840    0.03014 =
         0.03120   -0.00218   -0.00646    0.01608
C3    1    0.260149    0.036522    0.744543    11.00000    0.03561    0.02793 =
         0.05517   -0.00799   -0.01655    0.01682
AFIX  43
H3    2    0.247244   -0.015845    0.743554    11.00000   -1.20000
AFIX   0
C4    1    0.324831    0.089983    0.785765    11.00000    0.03415    0.03627 =
         0.05010   -0.00475   -0.01623    0.01986
AFIX  43
H4    2    0.353862    0.072052    0.809658    11.00000   -1.20000
AFIX   0
C5    1    0.345206    0.166914    0.791024    11.00000    0.02632    0.03035 =
         0.03134   -0.00808   -0.00750    0.01543
C6    1    0.300253    0.192651    0.753475    11.00000    0.02670    0.02598 =
         0.03368   -0.00302   -0.00334    0.01285
C7    1    0.236608    0.139015    0.710279    11.00000    0.02232    0.02701 =
         0.02885   -0.00079   -0.00177    0.01116
C8    1    0.412272    0.222523    0.836191    11.00000    0.02515    0.02236 =
         0.03392   -0.00309   -0.00364    0.00964
 
O5    4    0.241848   -0.138761    0.647674    11.00000    0.25260    0.28481 =
         0.31226   -0.09822   -0.11779    0.19720
AFIX   3
H5A   2    0.211588   -0.119761    0.651594    11.00000   -1.20000
H5B   2    0.276768   -0.126611    0.678654    11.00000   -1.20000
AFIX   0
 
O6    4    0.240002    0.209899    0.917289    10.50000    0.07060    0.23823 =
         0.13759   -0.08165    0.00327    0.05110
HKLF 4
 
REM  a in R-3
REM R1 =  0.0366 for    3021 Fo > 4sig(Fo)  and  0.0416 for all    3401 data
REM    165 parameters refined using      0 restraints
 
END  
     
WGHT      0.0453     14.5262 

REM Instructions for potential hydrogen bonds
HTAB O5 O2
EQIV $1 x-y+1/3, x-1/3, -z+5/3
HTAB O5 O6_$1

REM Highest difference peak  1.472,  deepest hole -0.758,  1-sigma level  0.110
Q1    1   0.4130  0.2986  0.7460  11.00000  0.05    1.47
Q2    1   0.3018  0.1709  0.9188  11.00000  0.05    0.62
Q3    1   0.2406  0.1478  0.7585  11.00000  0.05    0.55
Q4    1   0.0000  0.0000  0.7588  10.33333  0.05    0.52
Q5    1   0.1863  0.1765  0.8950  11.00000  0.05    0.52
Q6    1   0.3178  0.0642  0.7470  11.00000  0.05    0.52
Q7    1   0.2449  0.2567  0.8964  11.00000  0.05    0.48
Q8    1   0.2435  0.2148  0.9567  11.00000  0.05    0.46
Q9    1   0.1883  0.2187  0.9044  11.00000  0.05    0.46
Q10   1   0.2334  0.1583  0.8927  11.00000  0.05    0.46

  REM The information below was added by Olex2.
  REM
  REM R1 = 0.0366 for 3021 Fo > 4sig(Fo) and 0.0416 for all 10034 data
  REM n/a parameters refined using n/a restraints
  REM Highest difference peak 1.47, deepest hole -0.76
  REM Mean Shift 0, Max Shift -0.001.
  
  REM +++ Tabular Listing of Refinement Information +++
  REM R1_all = 0.0416
  REM R1_gt = 0.0366
  REM wR_ref = 0.0943
  REM GOOF = 1.080
  REM Shift_max = -0.001
  REM Shift_mean = 0
  REM Reflections_all = 10034
  REM Reflections_gt = 3021
  REM Parameters = n/a
  REM Hole = -0.76
  REM Peak = 1.47
  REM Flack = n/a
  
  
;
_cod_data_source_file            ic6b02863_si_002.cif
_cod_data_source_block           a_sq
_cod_depositor_comments
;
The following automatic conversions were performed:

'_exptl_absorpt_correction_type' value 'Multi-scan' changed to
'multi-scan' according to
/home/data/users/saulius/crontab/automatic-downloads/current/ACS/lib/dictionaries/cif_core.dic
dictionary named 'cif_core.dic' version 2.4.2 from 2011-04-26.

Automatic conversion script
Id: cif_fix_values 4973 2017-02-22 13:04:09Z antanas 
;
_cod_original_cell_volume        6471(2)
_cod_database_code               4345462
_shelx_space_group_comment
;
The symmetry employed for this shelxl refinement is uniquely defined
by the following loop, which should always be used as a source of
symmetry information in preference to the above space-group names.
They are only intended as comments.
;
_diffrn_number_total             3403
_olex2_refinement_description
;
1. Fixed Uiso
 At 1.2 times of:
  All C(H) groups, All O(H,H) groups
2. Others
 Fixed Sof: O6(0.5)
3.a Riding coordinates:
 O5(H5a,H5b)
3.b Aromatic/amide H refined with riding coordinates:
 C3(H3), C4(H4)
;
_shelx_fab_checksum              30781
_shelx_fab_file
;
    0    0    3   -171.40      0.00
    0    0    6     29.88      0.00
    0    0    9    -10.54      0.00
    0    0   12      9.21      0.00
    0    0   15     -3.43      0.00
    0    0   18     -2.58      0.00
    0    1   17      2.64      0.00
    0    1   14     -3.37      0.00
    0    1   11      6.29      0.00
    0    1    8     -7.75      0.00
    0    1    5      8.09      0.00
    0    1    2    -49.84      0.00
   -1    1    4    -75.12      0.00
   -1    1    7     11.18      0.00
   -1    1   10     -2.41      0.00
   -1    1   13      2.26      0.00
   -1    1   16      0.54      0.00
   -1    1   19     -7.43      0.00
    1    1   18     -0.57      0.00
    1    1   15     -4.43      0.00
    1    1   12      6.05      0.00
    1    1    9    -10.50      0.00
    1    1    6     24.14      0.00
   -1    2    3    -73.90      0.00
   -1    2    6     25.50      0.00
   -1    2    9     -4.60      0.00
   -1    2   12      2.48      0.00
   -1    2   15     -5.35      0.00
   -1    2   18      2.74      0.00
    0    2   19     -2.90      0.00
    0    2   16     -2.97      0.00
    0    2   13      0.83      0.00
    0    2   10      1.67      0.00
    0    2    7      0.25      0.00
    0    2    4     15.07      0.00
    0    2    1    -39.16      0.00
   -2    2    2     33.13      0.00
   -2    2    5      9.09      0.00
   -2    2    8     -4.56      0.00
   -2    2   11     -0.09      0.00
   -2    2   14     -3.63      0.00
   -2    2   17      4.67      0.00
   -3    2   19     -2.53      0.00
   -3    2   16     -0.69      0.00
   -3    2   13      2.49      0.00
   -3    2   10     -2.70      0.00
   -3    2    7     -8.09      0.00
   -3    2    4     40.06      0.00
   -3    2    1     26.76      0.00
   -1    3    2    -94.26      0.00
   -1    3    5     36.05      0.00
   -1    3    8     -1.82      0.00
   -1    3   11      0.43      0.00
   -1    3   14     -2.70      0.00
   -1    3   17      1.50      0.00
   -1    3   20     -3.88      0.00
    1    2   17     -0.69      0.00
    1    2   14     -0.90      0.00
    1    2   11      5.68      0.00
    1    2    8    -19.80      0.00
    1    2    5     63.70      0.00
    1    2    2    -62.81      0.00
   -2    3    1     23.15      0.00
   -2    3    4    -15.05      0.00
   -2    3    7      8.59      0.00
   -2    3   10     -2.68      0.00
   -2    3   13     -0.92      0.00
   -2    3   16     -2.25      0.00
   -2    3   19      1.52      0.00
   -2    3   25     -0.33      0.00
    0    3   24     -1.49      0.00
    0    3   18      0.19      0.00
    0    3   15     -3.25      0.00
    0    3   12      1.09      0.00
    0    3    9     -1.49      0.00
    0    3    6     21.10      0.00
    0    3    3    -35.67      0.00
    0    3    0    -13.98      0.00
   -3    3    3     26.60      0.00
   -3    3    6      1.39      0.00
   -3    3    9     -1.67      0.00
   -3    3   12     -0.80      0.00
   -3    3   15     -4.80      0.00
   -3    3   18      5.62      0.00
   -3    3   24      0.65      0.00
   -4    3   23      1.00      0.00
   -4    3   20     -6.53      0.00
   -4    3   17      2.88      0.00
   -4    3   14      2.64      0.00
   -4    3   11     -2.82      0.00
   -4    3    8     -9.05      0.00
   -4    3    5     32.34      0.00
   -4    3    2     -4.21      0.00
   -1    4    1    -27.94      0.00
   -1    4    4     -2.74      0.00
   -1    4    7      0.84      0.00
   -1    4   10      0.67      0.00
   -1    4   13      0.43      0.00
   -1    4   16     -0.97      0.00
   -1    4   19     -0.34      0.00
   -1    4   22     -4.28      0.00
   -1    4   25     -0.34      0.00
    2    2   24     -3.31      0.00
    2    2   18      0.64      0.00
    2    2   15      1.25      0.00
    2    2   12      1.15      0.00
    2    2    9     -6.08      0.00
    2    2    6     19.89      0.00
    2    2    3    -11.54      0.00
   -2    4    0     30.97      0.00
   -2    4    3    -59.16      0.00
   -2    4    6     17.97      0.00
   -2    4    9     -1.31      0.00
   -2    4   12     -0.54      0.00
   -2    4   15     -2.18      0.00
   -2    4   18      3.46      0.00
   -2    4   21     -6.57      0.00
   -2    4   24     -1.02      0.00
    1    3   25     -0.31      0.00
    1    3   19      1.21      0.00
    1    3   16     -0.73      0.00
    1    3   13     -1.13      0.00
    1    3   10      8.32      0.00
    1    3    7    -18.41      0.00
    1    3    4     32.58      0.00
    1    3    1    -22.92      0.00
   -3    4    2      3.91      0.00
   -3    4    5     -3.60      0.00
   -3    4    8      2.63      0.00
   -3    4   11     -4.01      0.00
   -3    4   14      0.25      0.00
   -3    4   17      0.56      0.00
   -3    4   20     -3.64      0.00
   -3    4   23     -2.72      0.00
    0    4   23     -3.47      0.00
    0    4   20      0.67      0.00
    0    4   17      0.28      0.00
    0    4   14     -1.30      0.00
    0    4   11      1.84      0.00
    0    4    8     -7.06      0.00
    0    4    5      7.63      0.00
    0    4    2     -6.25      0.00
   -4    4    1     -7.77      0.00
   -4    4    4     19.59      0.00
   -4    4    7     -9.38      0.00
   -4    4   10     -1.53      0.00
   -4    4   13      5.13      0.00
   -4    4   16     -6.40      0.00
   -4    4   19     -0.07      0.00
   -4    4   22     -3.07      0.00
   -4    4   25      1.18      0.00
   -5    4   24      1.67      0.00
   -5    4   21     -3.81      0.00
   -5    4   18      2.19      0.00
   -5    4   15     -3.20      0.00
   -5    4   12      1.06      0.00
   -5    4    9     -0.97      0.00
   -5    4    6      6.45      0.00
   -5    4    3    -12.20      0.00
   -1    5    0     -3.66      0.00
   -1    5    3     15.22      0.00
   -1    5    6    -10.79      0.00
   -1    5    9      3.62      0.00
   -1    5   12     -2.07      0.00
   -1    5   15     -0.42      0.00
   -1    5   18      0.99      0.00
   -1    5   21     -0.61      0.00
   -1    5   24     -0.86      0.00
   -5    3   22      1.04      0.00
   -5    3   19     -3.42      0.00
   -5    3   16      1.61      0.00
   -5    3   13      2.54      0.00
   -5    3   10      0.29      0.00
   -5    3    7     -1.26      0.00
   -5    3    4      4.63      0.00
   -5    3    1     -3.21      0.00
   -2    5    2    -10.02      0.00
   -2    5    5      3.01      0.00
   -2    5    8      0.22      0.00
   -2    5   11     -4.29      0.00
   -2    5   14      3.93      0.00
   -2    5   17      1.59      0.00
   -2    5   20     -3.70      0.00
   -2    5   23     -1.81      0.00
    2    3   23     -3.05      0.00
    2    3   20     -1.51      0.00
    2    3   17      1.91      0.00
    2    3   14      1.98      0.00
    2    3   11      2.32      0.00
    2    3    8     -7.68      0.00
    2    3    5     15.08      0.00
    2    3    2    -22.70      0.00
   -3    5    1     40.47      0.00
   -3    5    4    -28.97      0.00
   -3    5    7      6.64      0.00
   -3    5   10     -6.83      0.00
   -3    5   13      6.67      0.00
   -3    5   16     -3.65      0.00
   -3    5   19     -0.57      0.00
   -3    5   22     -3.99      0.00
    1    4   24      0.37      0.00
    1    4   18      1.60      0.00
    1    4   15     -0.03      0.00
    1    4   12     -4.20      0.00
    1    4    9     11.78      0.00
    1    4    6    -29.42      0.00
    1    4    3     30.41      0.00
   -4    5    0     12.28      0.00
   -4    5    3     -4.34      0.00
   -4    5    6     -7.67      0.00
   -4    5    9      0.44      0.00
   -4    5   12      3.90      0.00
   -4    5   15     -6.43      0.00
   -4    5   18      1.08      0.00
   -4    5   21     -4.29      0.00
   -4    5   24      2.51      0.00
    0    5   22     -0.21      0.00
    0    5   19      0.64      0.00
    0    5   16     -1.17      0.00
    0    5   13     -2.58      0.00
    0    5   10      9.38      0.00
    0    5    7    -26.74      0.00
    0    5    4     27.81      0.00
    0    5    1     12.02      0.00
   -5    5    2    -17.10      0.00
   -5    5    5      9.75      0.00
   -5    5    8     -4.75      0.00
   -5    5   11     -0.42      0.00
   -5    5   14      0.79      0.00
   -5    5   17     -1.88      0.00
   -5    5   20     -3.96      0.00
   -5    5   23      2.47      0.00
   -6    5   22      1.12      0.00
   -6    5   19      0.05      0.00
   -6    5   16     -2.57      0.00
   -6    5   13      1.80      0.00
   -6    5   10     -2.83      0.00
   -6    5    7      1.21      0.00
   -6    5    4     -0.09      0.00
   -6    5    1     -9.83      0.00
   -1    6    2      3.52      0.00
   -1    6    5     15.28      0.00
   -1    6    8     -7.87      0.00
   -1    6   11     -0.37      0.00
   -1    6   14      1.47      0.00
   -1    6   17      0.83      0.00
   -1    6   20     -1.52      0.00
   -1    6   23      1.38      0.00
   -6    4   23      2.14      0.00
   -6    4   20     -1.35      0.00
   -6    4   17      2.04      0.00
   -6    4   14     -0.66      0.00
   -6    4   11     -1.92      0.00
   -6    4    8      5.21      0.00
   -6    4    5     -0.78      0.00
   -6    4    2    -23.42      0.00
   -2    6    1      4.83      0.00
   -2    6    4     22.38      0.00
   -2    6    7    -11.07      0.00
   -2    6   10      0.10      0.00
   -2    6   13      5.31      0.00
   -2    6   16     -0.99      0.00
   -2    6   19     -2.49      0.00
   -2    6   22      1.13      0.00
    3    3   24     -2.06      0.00
    3    3   21      3.33      0.00
    3    3   18     -0.95      0.00
    3    3   15      0.66      0.00
    3    3   12     -1.12      0.00
    3    3    9      8.95      0.00
    3    3    6     -8.00      0.00
    3    3    3    -11.11      0.00
   -3    6    0     16.76      0.00
   -3    6    3     -0.03      0.00
   -3    6    6     -1.67      0.00
   -3    6    9     -0.24      0.00
   -3    6   12      2.90      0.00
   -3    6   15     -2.14      0.00
   -3    6   18      1.60      0.00
   -3    6   21     -2.21      0.00
   -3    6   24      2.79      0.00
    2    4   22      1.69      0.00
    2    4   19     -2.84      0.00
    2    4   16      0.77      0.00
    2    4   13     -0.26      0.00
    2    4   10     11.49      0.00
    2    4    7    -25.68      0.00
    2    4    4     31.22      0.00
    2    4    1    -12.42      0.00
   -4    6    2     23.60      0.00
   -4    6    5    -17.58      0.00
   -4    6    8      9.18      0.00
   -4    6   11     -5.17      0.00
   -4    6   14      1.01      0.00
   -4    6   17      0.36      0.00
   -4    6   20     -4.03      0.00
   -4    6   23      3.47      0.00
    1    5   23      4.94      0.00
    1    5   20     -3.69      0.00
    1    5   17      0.10      0.00
    1    5   14      2.10      0.00
    1    5   11     -1.75      0.00
    1    5    8     -3.91      0.00
    1    5    5      3.29      0.00
    1    5    2     12.36      0.00
   -5    6    1      9.77      0.00
   -5    6    4     -4.99      0.00
   -5    6    7      0.99      0.00
   -5    6   10     -4.38      0.00
   -5    6   13      5.29      0.00
   -5    6   16     -4.36      0.00
   -5    6   19     -2.62      0.00
   -5    6   22      1.64      0.00
    0    6   24      2.88      0.00
    0    6   21     -1.36      0.00
    0    6   18      1.52      0.00
    0    6   15     -0.45      0.00
    0    6   12     -5.02      0.00
    0    6    9      6.57      0.00
    0    6    6     -5.05      0.00
    0    6    3      2.94      0.00
    0    6    0     11.14      0.00
   -6    6    3     -9.64      0.00
   -6    6    6      9.04      0.00
   -6    6    9     -6.56      0.00
   -6    6   12      3.02      0.00
   -6    6   15     -2.02      0.00
   -6    6   18      1.12      0.00
   -6    6   21     -1.89      0.00
   -6    6   24      2.51      0.00
   -7    6   23      0.81      0.00
   -7    6   20     -1.92      0.00
   -7    6   17      1.62      0.00
   -7    6   14      0.78      0.00
   -7    6   11     -2.32      0.00
   -7    6    8     -0.41      0.00
   -7    6    5      6.67      0.00
   -7    6    2     -1.41      0.00
   -1    7    1     -4.57      0.00
   -1    7    4     -1.53      0.00
   -1    7    7      1.79      0.00
   -1    7   10     -0.32      0.00
   -1    7   13      0.98      0.00
   -1    7   16     -0.60      0.00
   -1    7   19      1.01      0.00
   -1    7   22      0.38      0.00
   -7    5   24     -0.71      0.00
   -7    5   21      1.26      0.00
   -7    5   18      1.89      0.00
   -7    5   15     -1.74      0.00
   -7    5   12     -1.40      0.00
   -7    5    9      3.56      0.00
   -7    5    6     -4.73      0.00
   -7    5    3     -5.01      0.00
   -2    7    0      1.93      0.00
   -2    7    3      1.35      0.00
   -2    7    6      3.88      0.00
   -2    7    9     -2.03      0.00
   -2    7   12      3.74      0.00
   -2    7   15     -0.82      0.00
   -2    7   18      1.22      0.00
   -2    7   21     -1.07      0.00
   -2    7   24      2.54      0.00
   -7    4   22      4.38      0.00
   -7    4   19      0.03      0.00
   -7    4   16     -0.38      0.00
   -7    4   13     -0.22      0.00
   -7    4   10      3.79      0.00
   -7    4    7     -4.10      0.00
   -7    4    4      0.50      0.00
   -7    4    1     -9.37      0.00
   -3    7    2      2.65      0.00
   -3    7    5     11.98      0.00
   -3    7    8     -4.84      0.00
   -3    7   11      1.55      0.00
   -3    7   14      2.12      0.00
   -3    7   17      2.09      0.00
   -3    7   20     -4.38      0.00
   -3    7   23      4.29      0.00
    3    4   23      1.22      0.00
    3    4   20      0.83      0.00
    3    4   17     -0.36      0.00
    3    4   14      2.29      0.00
    3    4   11     -1.18      0.00
    3    4    8      0.86      0.00
    3    4    5     10.37      0.00
    3    4    2    -16.77      0.00
   -4    7    1     15.40      0.00
   -4    7    4     -4.57      0.00
   -4    7    7      3.85      0.00
   -4    7   10     -3.37      0.00
   -4    7   13      3.98      0.00
   -4    7   16     -1.69      0.00
   -4    7   19     -2.91      0.00
   -4    7   22      5.44      0.00
    2    5   24      3.75      0.00
    2    5   21     -0.17      0.00
    2    5   18     -2.17      0.00
    2    5   15      2.20      0.00
    2    5   12     -4.70      0.00
    2    5    9     10.61      0.00
    2    5    6    -10.57      0.00
    2    5    3     21.81      0.00
   -5    7    0     -6.94      0.00
   -5    7    3      0.79      0.00
   -5    7    6     -4.49      0.00
   -5    7    9      4.44      0.00
   -5    7   12      0.51      0.00
   -5    7   15     -3.06      0.00
   -5    7   18      0.08      0.00
   -5    7   21      1.35      0.00
   -5    7   24      3.75      0.00
    1    6   22      3.39      0.00
    1    6   19     -1.55      0.00
    1    6   16     -2.38      0.00
    1    6   13      1.78      0.00
    1    6   10     -0.38      0.00
    1    6    7      1.89      0.00
    1    6    4      4.06      0.00
    1    6    1     -0.91      0.00
   -6    7    2     -1.01      0.00
   -6    7    5      0.83      0.00
   -6    7    8      1.83      0.00
   -6    7   11     -1.22      0.00
   -6    7   14      1.31      0.00
   -6    7   17      1.14      0.00
   -6    7   20     -2.70      0.00
   -6    7   23      2.65      0.00
    0    7   23      2.16      0.00
    0    7   20      1.39      0.00
    0    7   17     -0.88      0.00
    0    7   14      1.83      0.00
    0    7   11     -7.96      0.00
    0    7    8     13.40      0.00
    0    7    5     -5.30      0.00
    0    7    2    -20.23      0.00
   -7    7    1     13.65      0.00
   -7    7    4     -1.15      0.00
   -7    7    7      6.58      0.00
   -7    7   10     -5.22      0.00
   -7    7   13      3.25      0.00
   -7    7   16     -0.16      0.00
   -7    7   19     -0.25      0.00
   -7    7   22     -0.22      0.00
   -8    7   21     -1.63      0.00
   -8    7   18      1.55      0.00
   -8    7   15     -0.94      0.00
   -8    7   12      0.07      0.00
   -8    7    9     -0.90      0.00
   -8    7    6      7.15      0.00
   -8    7    3     -0.33      0.00
   -1    8    0      8.95      0.00
   -1    8    3    -21.52      0.00
   -1    8    6     -1.48      0.00
   -1    8    9      6.09      0.00
   -1    8   12     -2.93      0.00
   -1    8   15      0.74      0.00
   -1    8   18      0.01      0.00
   -1    8   21      2.52      0.00
   -8    6   22     -0.33      0.00
   -8    6   19     -1.83      0.00
   -8    6   16     -0.10      0.00
   -8    6   13      1.21      0.00
   -8    6   10     -0.50      0.00
   -8    6    7     -1.03      0.00
   -8    6    4      3.71      0.00
   -8    6    1      7.50      0.00
   -2    8    2    -10.70      0.00
   -2    8    5     -2.37      0.00
   -2    8    8      2.32      0.00
   -2    8   11      0.22      0.00
   -2    8   14      0.39      0.00
   -2    8   17      0.82      0.00
   -2    8   20      0.86      0.00
   -2    8   23      1.86      0.00
   -8    5   23     -0.60      0.00
   -8    5   20     -0.11      0.00
   -8    5   17     -0.04      0.00
   -8    5   14      1.66      0.00
   -8    5   11     -1.73      0.00
   -8    5    8      2.88      0.00
   -8    5    5     -5.52      0.00
   -8    5    2     -1.91      0.00
   -3    8    1      7.22      0.00
   -3    8    4     -0.79      0.00
   -3    8    7     -1.63      0.00
   -3    8   10     -0.93      0.00
   -3    8   13      3.06      0.00
   -3    8   16      0.66      0.00
   -3    8   19     -0.35      0.00
   -3    8   22      1.83      0.00
    4    4   24     -2.63      0.00
    4    4   21      1.60      0.00
    4    4   18      1.44      0.00
    4    4   15      0.73      0.00
    4    4   12     -2.35      0.00
    4    4    9      4.94      0.00
    4    4    6     -4.26      0.00
    4    4    3      0.14      0.00
   -4    8    0      4.72      0.00
   -4    8    3     -8.57      0.00
   -4    8    6      6.42      0.00
   -4    8    9     -4.73      0.00
   -4    8   12      2.35      0.00
   -4    8   15      0.18      0.00
   -4    8   18      1.84      0.00
   -4    8   21      0.62      0.00
   -4    8   24      0.71      0.00
    3    5   22     -1.02      0.00
    3    5   19      1.14      0.00
    3    5   16     -0.41      0.00
    3    5   13      1.72      0.00
    3    5   10     -1.68      0.00
    3    5    7      0.34      0.00
    3    5    4     18.44      0.00
    3    5    1    -14.11      0.00
   -5    8    2     -5.26      0.00
   -5    8    5     -1.34      0.00
   -5    8    8      3.55      0.00
   -5    8   11     -2.39      0.00
   -5    8   14      1.92      0.00
   -5    8   17     -0.01      0.00
   -5    8   20     -2.39      0.00
   -5    8   23      6.45      0.00
    2    6   23      1.90      0.00
    2    6   20      0.64      0.00
    2    6   17     -3.79      0.00
    2    6   14      5.34      0.00
    2    6   11    -10.30      0.00
    2    6    8     16.25      0.00
    2    6    5     -4.68      0.00
    2    6    2      5.65      0.00
   -6    8    1     -8.51      0.00
   -6    8    4     -3.32      0.00
   -6    8    7     -1.13      0.00
   -6    8   10      1.97      0.00
   -6    8   13      2.34      0.00
   -6    8   16     -2.18      0.00
   -6    8   19     -2.92      0.00
   -6    8   22      6.66      0.00
    1    7   21      3.07      0.00
    1    7   18     -1.81      0.00
    1    7   15     -1.75      0.00
    1    7   12     -2.22      0.00
    1    7    9     10.17      0.00
    1    7    6     -5.21      0.00
    1    7    3     -8.48      0.00
   -7    8    0      7.29      0.00
   -7    8    3     -5.69      0.00
   -7    8    6      0.03      0.00
   -7    8    9      0.29      0.00
   -7    8   12      2.14      0.00
   -7    8   15     -2.74      0.00
   -7    8   18      1.91      0.00
   -7    8   21      3.31      0.00
    0    8   22      0.67      0.00
    0    8   19      2.14      0.00
    0    8   16     -1.36      0.00
    0    8   13      2.03      0.00
    0    8   10     -2.82      0.00
    0    8    7      4.93      0.00
    0    8    4    -11.60      0.00
    0    8    1     -5.35      0.00
   -8    8    2      3.71      0.00
   -8    8    5      1.02      0.00
   -8    8    8      3.35      0.00
   -8    8   11     -2.38      0.00
   -8    8   14     -1.17      0.00
   -8    8   17      2.68      0.00
   -8    8   20      1.94      0.00
   -8    8   23     -4.36      0.00
   -9    8   22     -5.30      0.00
   -9    8   19     -0.44      0.00
   -9    8   16      2.23      0.00
   -9    8   13     -0.87      0.00
   -9    8   10     -2.93      0.00
   -9    8    7      6.07      0.00
   -9    8    4      2.51      0.00
   -9    8    1     -0.63      0.00
   -1    9    2     -9.16      0.00
   -1    9    5     -3.73      0.00
   -1    9    8      4.80      0.00
   -1    9   11     -4.32      0.00
   -1    9   14      0.62      0.00
   -1    9   17      0.57      0.00
   -1    9   20      3.75      0.00
   -1    9   23     -0.40      0.00
   -9    7   23     -3.88      0.00
   -9    7   20     -2.67      0.00
   -9    7   17      2.63      0.00
   -9    7   14     -0.82      0.00
   -9    7   11     -1.94      0.00
   -9    7    8      5.18      0.00
   -9    7    5      4.89      0.00
   -9    7    2     -5.24      0.00
   -2    9    1      5.90      0.00
   -2    9    4     -9.94      0.00
   -2    9    7      0.54      0.00
   -2    9   10      0.15      0.00
   -2    9   13     -1.23      0.00
   -2    9   16      2.20      0.00
   -2    9   19      0.10      0.00
   -2    9   22      2.28      0.00
   -9    6   21     -0.32      0.00
   -9    6   18     -1.58      0.00
   -9    6   15     -0.16      0.00
   -9    6   12      0.23      0.00
   -9    6    9      4.45      0.00
   -9    6    6     -6.74      0.00
   -9    6    3     -1.68      0.00
   -3    9    0     18.21      0.00
   -3    9    3     -9.63      0.00
   -3    9    6     -2.91      0.00
   -3    9    9     -1.03      0.00
   -3    9   12      1.35      0.00
   -3    9   15      0.90      0.00
   -3    9   18      0.11      0.00
   -3    9   21      1.40      0.00
   -9    5   22     -0.97      0.00
   -9    5   19      0.54      0.00
   -9    5   16     -2.65      0.00
   -9    5   13      3.38      0.00
   -9    5   10     -1.32      0.00
   -9    5    7     -1.80      0.00
   -9    5    4     -3.75      0.00
   -9    5    1      7.78      0.00
   -4    9    2     -3.92      0.00
   -4    9    5      3.21      0.00
   -4    9    8     -5.52      0.00
   -4    9   11      0.37      0.00
   -4    9   14      1.07      0.00
   -4    9   17      1.28      0.00
   -4    9   20      0.27      0.00
   -4    9   23      0.44      0.00
    4    5   23     -3.93      0.00
    4    5   20      0.61      0.00
    4    5   17     -0.24      0.00
    4    5   14      3.88      0.00
    4    5   11     -8.03      0.00
    4    5    8      8.38      0.00
    4    5    5     -2.87      0.00
    4    5    2     -1.08      0.00
   -5    9    1     -4.00      0.00
   -5    9    4     -2.30      0.00
   -5    9    7      2.19      0.00
   -5    9   10     -3.74      0.00
   -5    9   13      0.30      0.00
   -5    9   16     -0.77      0.00
   -5    9   19      1.24      0.00
   -5    9   22      4.23      0.00
    3    6   21     -2.18      0.00
    3    6   18      0.24      0.00
    3    6   15      1.88      0.00
    3    6   12     -4.50      0.00
    3    6    9      8.54      0.00
    3    6    6     -9.08      0.00
    3    6    3     15.21      0.00
   -6    9    0    -11.10      0.00
   -6    9    3     -7.90      0.00
   -6    9    6     -0.73      0.00
   -6    9    9      2.14      0.00
   -6    9   12     -2.66      0.00
   -6    9   15     -0.18      0.00
   -6    9   18      0.26      0.00
   -6    9   21      3.29      0.00
    2    7   22     -1.32      0.00
    2    7   19      2.17      0.00
    2    7   16     -4.93      0.00
    2    7   13      6.42      0.00
    2    7   10     -4.22      0.00
    2    7    7      4.15      0.00
    2    7    4     -3.21      0.00
    2    7    1      7.23      0.00
   -7    9    2     -8.88      0.00
   -7    9    5     -2.44      0.00
   -7    9    8     -1.75      0.00
   -7    9   11     -0.09      0.00
   -7    9   14      0.03      0.00
   -7    9   17      1.78      0.00
   -7    9   20     -0.92      0.00
   -7    9   23      2.25      0.00
    1    8   23     -3.65      0.00
    1    8   20      5.86      0.00
    1    8   17     -3.40      0.00
    1    8   14      1.10      0.00
    1    8   11     -2.46      0.00
    1    8    8      7.43      0.00
    1    8    5     -9.99      0.00
    1    8    2     -0.11      0.00
   -8    9    1      6.52      0.00
   -8    9    4     -2.47      0.00
   -8    9    7     -4.04      0.00
   -8    9   10     -1.81      0.00
   -8    9   13      1.30      0.00
   -8    9   16     -0.28      0.00
   -8    9   19     -0.49      0.00
   -8    9   22      2.90      0.00
    0    9   21      2.95      0.00
    0    9   18     -0.12      0.00
    0    9   15     -1.43      0.00
    0    9   12      2.00      0.00
    0    9    9     -0.15      0.00
    0    9    6     -4.28      0.00
    0    9    3      0.13      0.00
    0    9    0     -0.33      0.00
   -9    9    3      1.95      0.00
   -9    9    6     -3.37      0.00
   -9    9    9     -0.48      0.00
   -9    9   12     -0.23      0.00
   -9    9   15     -1.30      0.00
   -9    9   18     -1.42      0.00
   -9    9   21      4.01      0.00
  -10    9   23     -4.93      0.00
  -10    9   20      2.81      0.00
  -10    9   17      0.30      0.00
  -10    9   14     -1.31      0.00
  -10    9   11     -3.50      0.00
  -10    9    8      6.11      0.00
  -10    9    5     -0.92      0.00
  -10    9    2     -6.28      0.00
   -1   10    1     -3.79      0.00
   -1   10    4      6.22      0.00
   -1   10    7     -0.25      0.00
   -1   10   10     -3.49      0.00
   -1   10   13      1.40      0.00
   -1   10   16      0.69      0.00
   -1   10   19      0.91      0.00
   -1   10   22     -1.65      0.00
  -10    8   21     -1.98      0.00
  -10    8   18     -0.50      0.00
  -10    8   15      1.03      0.00
  -10    8   12     -1.72      0.00
  -10    8    9      5.13      0.00
  -10    8    6      0.63      0.00
  -10    8    3     -5.13      0.00
   -2   10    0      2.45      0.00
   -2   10    3     -2.98      0.00
   -2   10    6      0.33      0.00
   -2   10    9      1.70      0.00
   -2   10   12     -2.88      0.00
   -2   10   15      1.40      0.00
   -2   10   18     -0.07      0.00
   -2   10   21      1.50      0.00
  -10    7   22     -2.19      0.00
  -10    7   19     -3.50      0.00
  -10    7   16      2.40      0.00
  -10    7   13      0.61      0.00
  -10    7   10      0.88      0.00
  -10    7    7     -1.28      0.00
  -10    7    4      2.53      0.00
  -10    7    1      1.85      0.00
   -3   10    2     -0.29      0.00
   -3   10    5     -1.16      0.00
   -3   10    8      0.10      0.00
   -3   10   11     -0.56      0.00
   -3   10   14     -0.22      0.00
   -3   10   17      1.22      0.00
   -3   10   20     -0.25      0.00
   -3   10   23      1.07      0.00
  -10    6   23     -2.14      0.00
  -10    6   20      0.28      0.00
  -10    6   17     -2.74      0.00
  -10    6   14      2.85      0.00
  -10    6   11     -3.51      0.00
  -10    6    8      4.81      0.00
  -10    6    5     -6.68      0.00
  -10    6    2     -1.56      0.00
   -4   10    1      8.92      0.00
   -4   10    4      1.14      0.00
   -4   10    7     -3.86      0.00
   -4   10   10     -1.73      0.00
   -4   10   13      1.45      0.00
   -4   10   16      0.20      0.00
   -4   10   19      0.14      0.00
   -4   10   22     -0.59      0.00
    5    5   21     -0.33      0.00
    5    5   18      0.43      0.00
    5    5   15     -1.08      0.00
    5    5   12     -3.24      0.00
    5    5    9      5.61      0.00
    5    5    6     -7.99      0.00
    5    5    3     -2.23      0.00
   -5   10    0      2.04      0.00
   -5   10    3     -0.60      0.00
   -5   10    6      4.44      0.00
   -5   10    9     -5.74      0.00
   -5   10   12      0.39      0.00
   -5   10   15     -1.57      0.00
   -5   10   18      2.91      0.00
   -5   10   21     -0.25      0.00
    4    6   22     -4.23      0.00
    4    6   19      1.74      0.00
    4    6   16     -1.41      0.00
    4    6   13      1.84      0.00
    4    6   10     -3.24      0.00
    4    6    7     -0.05      0.00
    4    6    4      1.86      0.00
    4    6    1     -5.53      0.00
   -6   10    2     -5.86      0.00
   -6   10    5      4.68      0.00
   -6   10    8     -0.15      0.00
   -6   10   11     -2.03      0.00
   -6   10   14     -2.83      0.00
   -6   10   17      1.11      0.00
   -6   10   20      1.00      0.00
   -6   10   23      2.75      0.00
    3    7   23     -3.77      0.00
    3    7   20      2.16      0.00
    3    7   17     -2.94      0.00
    3    7   14      5.34      0.00
    3    7   11     -6.02      0.00
    3    7    8      8.69      0.00
    3    7    5    -12.07      0.00
    3    7    2     11.65      0.00
   -7   10    1     -7.05      0.00
   -7   10    4      0.06      0.00
   -7   10    7     -3.59      0.00
   -7   10   10      2.10      0.00
   -7   10   13     -5.13      0.00
   -7   10   16      2.55      0.00
   -7   10   19     -1.43      0.00
   -7   10   22      3.81      0.00
    2    8   21      3.17      0.00
    2    8   18     -1.17      0.00
    2    8   15     -2.40      0.00
    2    8   12      6.00      0.00
    2    8    9      0.72      0.00
    2    8    6     -8.86      0.00
    2    8    3      6.01      0.00
   -8   10    0      8.69      0.00
   -8   10    3     -2.49      0.00
   -8   10    6     -6.71      0.00
   -8   10    9     -0.29      0.00
   -8   10   12     -3.05      0.00
   -8   10   15      1.18      0.00
   -8   10   18      0.45      0.00
   -8   10   21      1.83      0.00
    1    9   22     -0.98      0.00
    1    9   19      2.90      0.00
    1    9   16     -3.16      0.00
    1    9   13      4.76      0.00
    1    9   10     -2.20      0.00
    1    9    7     -2.09      0.00
    1    9    4      2.88      0.00
    1    9    1      3.02      0.00
   -9   10    2      4.16      0.00
   -9   10    5     -4.43      0.00
   -9   10    8     -2.46      0.00
   -9   10   11     -2.99      0.00
   -9   10   14      0.58      0.00
   -9   10   17     -0.71      0.00
   -9   10   20      0.85      0.00
   -9   10   23      2.14      0.00
    0   10   20      2.06      0.00
    0   10   17     -1.14      0.00
    0   10   14      0.82      0.00
    0   10   11     -0.35      0.00
    0   10    8     -0.56      0.00
    0   10    5      2.33      0.00
    0   10    2      0.75      0.00
  -10   10    1     -2.09      0.00
  -10   10    4      1.90      0.00
  -10   10    7     -1.42      0.00
  -10   10   10     -3.69      0.00
  -10   10   13      0.57      0.00
  -10   10   16     -0.78      0.00
  -10   10   19     -2.69      0.00
  -11   10   21      4.71      0.00
  -11   10   18     -3.95      0.00
  -11   10   15     -0.54      0.00
  -11   10   12     -1.44      0.00
  -11   10    9      4.38      0.00
  -11   10    6     -3.05      0.00
  -11   10    3     -4.40      0.00
   -1   11    0      0.35      0.00
   -1   11    3      3.14      0.00
   -1   11    6     -1.20      0.00
   -1   11    9      1.44      0.00
   -1   11   12     -0.78      0.00
   -1   11   15      1.41      0.00
   -1   11   18     -2.14      0.00
   -1   11   21     -0.79      0.00
  -11    9   22     -3.05      0.00
  -11    9   19     -0.76      0.00
  -11    9   16      2.43      0.00
  -11    9   13     -0.71      0.00
  -11    9   10      1.65      0.00
  -11    9    7     -0.92      0.00
  -11    9    4     -1.64      0.00
  -11    9    1     -0.93      0.00
   -2   11    2     -4.44      0.00
   -2   11    5      5.11      0.00
   -2   11    8      3.28      0.00
   -2   11   11     -4.55      0.00
   -2   11   14      1.34      0.00
   -2   11   17      0.76      0.00
   -2   11   20      0.67      0.00
  -11    8   20     -0.55      0.00
  -11    8   17      1.33      0.00
  -11    8   14      1.92      0.00
  -11    8   11     -0.77      0.00
  -11    8    8      1.23      0.00
  -11    8    5      0.90      0.00
  -11    8    2     -3.61      0.00
   -3   11    1     -0.99      0.00
   -3   11    4      3.12      0.00
   -3   11    7      1.80      0.00
   -3   11   10     -0.33      0.00
   -3   11   13     -0.84      0.00
   -3   11   16      1.58      0.00
   -3   11   19      0.40      0.00
   -3   11   22     -3.22      0.00
  -11    7   21      1.15      0.00
  -11    7   18     -3.99      0.00
  -11    7   15      4.19      0.00
  -11    7   12     -1.28      0.00
  -11    7    9      1.97      0.00
  -11    7    6     -5.36      0.00
  -11    7    3      2.23      0.00
   -4   11    0      1.56      0.00
   -4   11    3      1.82      0.00
   -4   11    6      0.25      0.00
   -4   11    9     -0.65      0.00
   -4   11   12      1.48      0.00
   -4   11   15     -0.37      0.00
   -4   11   18      1.80      0.00
   -4   11   21     -5.21      0.00
  -11    6   22     -0.76      0.00
  -11    6   19      0.38      0.00
  -11    6   16     -1.92      0.00
  -11    6   13      0.51      0.00
  -11    6   10     -2.49      0.00
  -11    6    7      0.47      0.00
  -11    6    4     -0.71      0.00
  -11    6    1     -5.70      0.00
   -5   11    2      3.76      0.00
   -5   11    5      6.70      0.00
   -5   11    8     -4.34      0.00
   -5   11   11      0.46      0.00
   -5   11   14      0.13      0.00
   -5   11   17      1.96      0.00
   -5   11   20     -4.00      0.00
   -5   11   23      1.48      0.00
    5    6   23     -3.28      0.00
    5    6   20      2.15      0.00
    5    6   17     -1.00      0.00
    5    6   14      0.28      0.00
    5    6   11     -6.69      0.00
    5    6    8      7.75      0.00
    5    6    5     -5.43      0.00
    5    6    2     -6.72      0.00
   -6   11    1     -1.72      0.00
   -6   11    4      7.33      0.00
   -6   11    7      1.09      0.00
   -6   11   10     -1.56      0.00
   -6   11   13     -1.63      0.00
   -6   11   16     -0.56      0.00
   -6   11   19      1.30      0.00
   -6   11   22      0.32      0.00
    4    7   21      2.22      0.00
    4    7   18     -1.07      0.00
    4    7   15      1.30      0.00
    4    7   12     -1.35      0.00
    4    7    9      3.27      0.00
    4    7    6     -8.09      0.00
    4    7    3      5.49      0.00
   -7   11    0     -5.85      0.00
   -7   11    3      1.64      0.00
   -7   11    6      0.56      0.00
   -7   11    9      2.10      0.00
   -7   11   12     -2.65      0.00
   -7   11   15     -0.94      0.00
   -7   11   18      0.55      0.00
   -7   11   21      0.91      0.00
    3    8   22      1.07      0.00
    3    8   19      0.10      0.00
    3    8   16     -0.92      0.00
    3    8   13      7.21      0.00
    3    8   10     -5.13      0.00
    3    8    7      1.20      0.00
    3    8    4     -0.67      0.00
    3    8    1      6.00      0.00
   -8   11    2     -1.12      0.00
   -8   11    5     -1.34      0.00
   -8   11    8     -1.06      0.00
   -8   11   11      0.87      0.00
   -8   11   14     -3.32      0.00
   -8   11   17      2.64      0.00
   -8   11   20     -1.39      0.00
    2    9   20      2.96      0.00
    2    9   17     -0.85      0.00
    2    9   14      1.42      0.00
    2    9   11      1.07      0.00
    2    9    8      2.40      0.00
    2    9    5     -2.05      0.00
    2    9    2      2.99      0.00
   -9   11    1      7.01      0.00
   -9   11    4     -0.88      0.00
   -9   11    7     -4.72      0.00
   -9   11   10      0.90      0.00
   -9   11   13     -3.27      0.00
   -9   11   16      0.91      0.00
   -9   11   19     -0.25      0.00
    1   10   21      0.42      0.00
    1   10   18      1.01      0.00
    1   10   15     -1.97      0.00
    1   10   12      2.62      0.00
    1   10    9      1.85      0.00
    1   10    6     -1.44      0.00
    1   10    3      2.63      0.00
  -10   11    0      2.23      0.00
  -10   11    3      2.28      0.00
  -10   11    6     -3.66      0.00
  -10   11    9      0.43      0.00
  -10   11   12     -2.72      0.00
  -10   11   15     -0.66      0.00
  -10   11   18     -1.17      0.00
  -10   11   21      2.26      0.00
    0   11   22     -1.66      0.00
    0   11   19     -1.05      0.00
    0   11   16     -1.02      0.00
    0   11   13      1.34      0.00
    0   11   10      2.85      0.00
    0   11    7     -2.68      0.00
    0   11    4      2.75      0.00
    0   11    1      0.70      0.00
  -11   11    2     -5.01      0.00
  -11   11    5      1.97      0.00
  -11   11    8      4.04      0.00
  -11   11   11     -4.37      0.00
  -11   11   14     -1.00      0.00
  -11   11   17     -0.61      0.00
  -11   11   20     -0.62      0.00
  -12   11   19     -6.37      0.00
  -12   11   16      2.21      0.00
  -12   11   13     -1.02      0.00
  -12   11   10      0.90      0.00
  -12   11    7     -0.55      0.00
  -12   11    4      0.76      0.00
  -12   11    1      0.17      0.00
   -1   12    2     -0.04      0.00
   -1   12    5     -2.67      0.00
   -1   12    8      0.65      0.00
   -1   12   11      0.89      0.00
   -1   12   14      0.16      0.00
   -1   12   17      1.61      0.00
   -1   12   20     -4.85      0.00
  -12   10   20      0.60      0.00
  -12   10   17      0.88      0.00
  -12   10   14     -1.38      0.00
  -12   10   11      0.91      0.00
  -12   10    8      0.86      0.00
  -12   10    5     -1.05      0.00
  -12   10    2     -2.25      0.00
   -2   12    1     -0.14      0.00
   -2   12    4      1.85      0.00
   -2   12    7      0.40      0.00
   -2   12   10     -0.20      0.00
   -2   12   13     -1.66      0.00
   -2   12   16      4.91      0.00
   -2   12   19     -5.22      0.00
   -2   12   22     -0.20      0.00
  -12    9   21     -0.60      0.00
  -12    9   18     -0.54      0.00
  -12    9   15      2.35      0.00
  -12    9   12      0.84      0.00
  -12    9    9      0.24      0.00
  -12    9    6     -3.68      0.00
  -12    9    3     -0.87      0.00
   -3   12    0      2.82      0.00
   -3   12    3     -1.47      0.00
   -3   12    6      1.68      0.00
   -3   12    9      3.01      0.00
   -3   12   12     -3.54      0.00
   -3   12   15      3.14      0.00
   -3   12   18     -1.33      0.00
   -3   12   21     -0.87      0.00
  -12    8   22     -1.31      0.00
  -12    8   19     -0.98      0.00
  -12    8   16      2.94      0.00
  -12    8   13      2.17      0.00
  -12    8   10     -2.04      0.00
  -12    8    7     -4.14      0.00
  -12    8    4      4.97      0.00
  -12    8    1     -0.26      0.00
   -4   12    2     -1.94      0.00
   -4   12    5      2.12      0.00
   -4   12    8      1.02      0.00
   -4   12   11      1.18      0.00
   -4   12   14      0.19      0.00
   -4   12   17      1.25      0.00
   -4   12   20     -1.32      0.00
  -12    7   20      2.61      0.00
  -12    7   17     -3.66      0.00
  -12    7   14      3.73      0.00
  -12    7   11     -3.16      0.00
  -12    7    8      2.55      0.00
  -12    7    5     -1.53      0.00
  -12    7    2     -1.39      0.00
   -5   12    1      1.06      0.00
   -5   12    4      3.56      0.00
   -5   12    7     -2.49      0.00
   -5   12   10      2.40      0.00
   -5   12   13      1.52      0.00
   -5   12   16      0.14      0.00
   -5   12   19      0.51      0.00
   -5   12   22     -3.89      0.00
    6    6   21      2.35      0.00
    6    6   18     -1.83      0.00
    6    6   15     -0.04      0.00
    6    6   12     -2.51      0.00
    6    6    9      3.29      0.00
    6    6    6     -2.53      0.00
    6    6    3      0.37      0.00
   -6   12    0     -4.96      0.00
   -6   12    3      4.12      0.00
   -6   12    6      2.21      0.00
   -6   12    9      0.80      0.00
   -6   12   12     -0.90      0.00
   -6   12   15      0.56      0.00
   -6   12   18      3.19      0.00
   -6   12   21     -5.10      0.00
    5    7   22      2.07      0.00
    5    7   19     -1.34      0.00
    5    7   16      1.03      0.00
    5    7   13      0.61      0.00
    5    7   10     -4.65      0.00
    5    7    7      3.00      0.00
    5    7    4      2.85      0.00
    5    7    1     -7.94      0.00
   -7   12    2      0.17      0.00
   -7   12    5      3.55      0.00
   -7   12    8      2.87      0.00
   -7   12   11     -1.40      0.00
   -7   12   14      0.01      0.00
   -7   12   17      1.03      0.00
   -7   12   20     -0.90      0.00
    4    8   20      1.15      0.00
    4    8   17      0.89      0.00
    4    8   14      3.75      0.00
    4    8   11     -5.32      0.00
    4    8    8      5.50      0.00
    4    8    5     -2.16      0.00
    4    8    2      1.53      0.00
   -8   12    1     -2.62      0.00
   -8   12    4      2.34      0.00
   -8   12    7     -0.50      0.00
   -8   12   10      1.27      0.00
   -8   12   13     -0.09      0.00
   -8   12   16      1.09      0.00
   -8   12   19     -0.59      0.00
    3    9   21      2.05      0.00
    3    9   18      0.27      0.00
    3    9   15      1.54      0.00
    3    9   12      2.55      0.00
    3    9    9      0.29      0.00
    3    9    6      1.56      0.00
    3    9    3      0.37      0.00
   -9   12    0      2.43      0.00
   -9   12    3      0.56      0.00
   -9   12    6     -2.22      0.00
   -9   12    9      0.75      0.00
   -9   12   12      1.54      0.00
   -9   12   15     -1.39      0.00
   -9   12   18      2.04      0.00
   -9   12   21     -0.45      0.00
    2   10   22      0.56      0.00
    2   10   19      1.74      0.00
    2   10   16     -0.16      0.00
    2   10   13      1.06      0.00
    2   10   10      1.97      0.00
    2   10    7      3.25      0.00
    2   10    4      0.77      0.00
    2   10    1     -2.20      0.00
  -10   12    2      2.67      0.00
  -10   12    5     -0.10      0.00
  -10   12    8      0.56      0.00
  -10   12   11      0.43      0.00
  -10   12   14     -2.38      0.00
  -10   12   17      0.75      0.00
  -10   12   20      0.49      0.00
    1   11   20     -1.32      0.00
    1   11   17      1.03      0.00
    1   11   14     -0.47      0.00
    1   11   11      2.72      0.00
    1   11    8      1.53      0.00
    1   11    5      0.42      0.00
    1   11    2     -2.86      0.00
  -11   12    1     -0.68      0.00
  -11   12    4      3.64      0.00
  -11   12    7      1.12      0.00
  -11   12   10     -1.43      0.00
  -11   12   13     -2.20      0.00
  -11   12   16     -0.39      0.00
  -11   12   19      0.01      0.00
    0   12   21     -4.66      0.00
    0   12   18      2.10      0.00
    0   12   15     -1.84      0.00
    0   12   12      2.73      0.00
    0   12    9      1.35      0.00
    0   12    6     -3.44      0.00
    0   12    3     -0.55      0.00
    0   12    0      2.50      0.00
  -12   12    3     -2.83      0.00
  -12   12    6      0.84      0.00
  -12   12    9      2.80      0.00
  -12   12   12     -1.45      0.00
  -12   12   15     -1.01      0.00
  -12   12   18     -1.57      0.00
  -12   12   21      0.30      0.00
  -13   12   20     -6.55      0.00
  -13   12   17      3.08      0.00
  -13   12   14     -2.22      0.00
  -13   12   11      1.85      0.00
  -13   12    8      1.45      0.00
  -13   12    5      0.96      0.00
  -13   12    2     -1.80      0.00
   -1   13    1      1.09      0.00
   -1   13    4     -0.92      0.00
   -1   13    7     -1.30      0.00
   -1   13   10     -0.55      0.00
   -1   13   13      0.38      0.00
   -1   13   16      1.27      0.00
   -1   13   19     -1.23      0.00
  -13   11   21      1.16      0.00
  -13   11   18     -2.82      0.00
  -13   11   15      0.14      0.00
  -13   11   12      2.00      0.00
  -13   11    9      0.66      0.00
  -13   11    6     -2.07      0.00
  -13   11    3     -0.39      0.00
   -2   13    0      3.33      0.00
   -2   13    3     -0.23      0.00
   -2   13    6     -3.41      0.00
   -2   13    9      0.82      0.00
   -2   13   12     -2.16      0.00
   -2   13   15      2.91      0.00
   -2   13   18     -0.38      0.00
   -2   13   21     -2.18      0.00
  -13   10   19     -0.82      0.00
  -13   10   16      2.25      0.00
  -13   10   13      0.05      0.00
  -13   10   10     -1.62      0.00
  -13   10    7     -3.08      0.00
  -13   10    4      2.17      0.00
  -13   10    1      2.71      0.00
   -3   13    2     -0.34      0.00
   -3   13    5     -1.78      0.00
   -3   13    8      1.48      0.00
   -3   13   11     -2.13      0.00
   -3   13   14      0.06      0.00
   -3   13   17      4.59      0.00
   -3   13   20     -5.87      0.00
  -13    9   20      0.65      0.00
  -13    9   17      0.42      0.00
  -13    9   14      1.88      0.00
  -13    9   11     -3.08      0.00
  -13    9    8     -0.77      0.00
  -13    9    5      1.50      0.00
  -13    9    2     -0.88      0.00
   -4   13    1      3.03      0.00
   -4   13    4     -1.35      0.00
   -4   13    7     -0.98      0.00
   -4   13   10      3.51      0.00
   -4   13   13     -1.61      0.00
   -4   13   16      3.46      0.00
   -4   13   19     -4.70      0.00
  -13    8   21      0.14      0.00
  -13    8   18     -1.82      0.00
  -13    8   15      2.89      0.00
  -13    8   12     -0.36      0.00
  -13    8    9      1.64      0.00
  -13    8    6     -4.45      0.00
  -13    8    3      2.61      0.00
   -5   13    0      4.04      0.00
   -5   13    3     -2.11      0.00
   -5   13    6     -2.39      0.00
   -5   13    9      4.57      0.00
   -5   13   12      1.45      0.00
   -5   13   15     -0.85      0.00
   -5   13   18     -1.06      0.00
   -5   13   21      2.27      0.00
  -13    7   19      0.55      0.00
  -13    7   16     -2.06      0.00
  -13    7   13      1.47      0.00
  -13    7   10      1.44      0.00
  -13    7    7     -0.17      0.00
  -13    7    4      1.47      0.00
  -13    7    1     -0.18      0.00
   -6   13    2      0.56      0.00
   -6   13    5     -0.57      0.00
   -6   13    8      1.75      0.00
   -6   13   11      0.55      0.00
   -6   13   14      0.25      0.00
   -6   13   17      0.62      0.00
   -6   13   20      2.78      0.00
    6    7   20     -0.78      0.00
    6    7   17     -1.25      0.00
    6    7   14      1.27      0.00
    6    7   11     -2.73      0.00
    6    7    8      5.06      0.00
    6    7    5      0.31      0.00
    6    7    2     -0.13      0.00
   -7   13    1     -1.61      0.00
   -7   13    4     -0.22      0.00
   -7   13    7      2.16      0.00
   -7   13   10      0.31      0.00
   -7   13   13     -1.07      0.00
   -7   13   16      1.87      0.00
   -7   13   19      4.96      0.00
    5    8   21      1.81      0.00
    5    8   18     -1.54      0.00
    5    8   15      2.66      0.00
    5    8   12     -1.92      0.00
    5    8    9      0.30      0.00
    5    8    6      1.40      0.00
    5    8    3      4.03      0.00
   -8   13    0     -4.15      0.00
   -8   13    3     -0.79      0.00
   -8   13    6      0.17      0.00
   -8   13    9      1.39      0.00
   -8   13   12      0.50      0.00
   -8   13   15      2.44      0.00
   -8   13   18      2.85      0.00
   -8   13   21     -3.51      0.00
    4    9   19      0.08      0.00
    4    9   16      2.77      0.00
    4    9   13      0.44      0.00
    4    9   10     -2.47      0.00
    4    9    7      4.79      0.00
    4    9    4      0.62      0.00
    4    9    1     -1.71      0.00
   -9   13    2     -2.09      0.00
   -9   13    5      1.80      0.00
   -9   13    8     -0.40      0.00
   -9   13   11      1.39      0.00
   -9   13   14      2.16      0.00
   -9   13   17      2.50      0.00
   -9   13   20     -2.50      0.00
    3   10   20      1.71      0.00
    3   10   17     -0.01      0.00
    3   10   14     -0.06      0.00
    3   10   11      2.57      0.00
    3   10    8      2.39      0.00
    3   10    5      1.48      0.00
    3   10    2     -4.24      0.00
  -10   13    1     -0.27      0.00
  -10   13    4      2.83      0.00
  -10   13    7      0.19      0.00
  -10   13   10     -1.24      0.00
  -10   13   13      2.85      0.00
  -10   13   16     -0.53      0.00
  -10   13   19      1.65      0.00
    2   11   21      0.39      0.00
    2   11   18      0.11      0.00
    2   11   15      0.15      0.00
    2   11   12      2.59      0.00
    2   11    9     -0.14      0.00
    2   11    6      2.99      0.00
    2   11    3     -2.74      0.00
  -11   13    0     -2.57      0.00
  -11   13    3      2.50      0.00
  -11   13    6      1.19      0.00
  -11   13    9     -1.24      0.00
  -11   13   12      0.66      0.00
  -11   13   15     -0.84      0.00
  -11   13   18      2.43      0.00
  -11   13   21      0.63      0.00
    1   12   19     -1.88      0.00
    1   12   16      1.20      0.00
    1   12   13      2.65      0.00
    1   12   10     -2.35      0.00
    1   12    7      0.97      0.00
    1   12    4      0.24      0.00
    1   12    1     -1.76      0.00
  -12   13    2     -1.43      0.00
  -12   13    5      2.16      0.00
  -12   13    8      1.31      0.00
  -12   13   11     -1.03      0.00
  -12   13   14     -1.84      0.00
  -12   13   17      1.22      0.00
  -12   13   20     -0.36      0.00
    0   13   20     -5.91      0.00
    0   13   17      5.08      0.00
    0   13   14     -1.76      0.00
    0   13   11     -1.45      0.00
    0   13    8      0.41      0.00
    0   13    5     -0.12      0.00
    0   13    2     -1.10      0.00
  -13   13    1      2.78      0.00
  -13   13    4     -1.52      0.00
  -13   13    7     -0.09      0.00
  -13   13   10      0.94      0.00
  -13   13   13     -0.54      0.00
  -13   13   16      1.54      0.00
  -13   13   19     -5.08      0.00
  -14   13   18     -2.06      0.00
  -14   13   15      1.00      0.00
  -14   13   12      1.72      0.00
  -14   13    9      1.94      0.00
  -14   13    6     -0.76      0.00
  -14   13    3     -2.92      0.00
   -1   14    0      2.67      0.00
   -1   14    3     -0.54      0.00
   -1   14    6      2.33      0.00
   -1   14    9     -1.05      0.00
   -1   14   12     -0.95      0.00
   -1   14   15     -1.96      0.00
   -1   14   18      2.92      0.00
  -14   12   19     -5.37      0.00
  -14   12   16      3.84      0.00
  -14   12   13     -0.50      0.00
  -14   12   10      0.83      0.00
  -14   12    7     -1.13      0.00
  -14   12    4      1.61      0.00
  -14   12    1      1.42      0.00
   -2   14    2     -1.97      0.00
   -2   14    5     -0.35      0.00
   -2   14    8      0.38      0.00
   -2   14   11     -3.07      0.00
   -2   14   14      1.36      0.00
   -2   14   17      0.57      0.00
   -2   14   20      1.33      0.00
  -14   11   20      1.03      0.00
  -14   11   17      0.30      0.00
  -14   11   14     -1.47      0.00
  -14   11   11     -0.82      0.00
  -14   11    8     -0.33      0.00
  -14   11    5      2.26      0.00
  -14   11    2     -0.47      0.00
   -3   14    1      1.28      0.00
   -3   14    4     -1.59      0.00
   -3   14    7     -1.43      0.00
   -3   14   10     -0.99      0.00
   -3   14   13     -0.91      0.00
   -3   14   16      2.59      0.00
   -3   14   19     -1.92      0.00
  -14   10   21      1.89      0.00
  -14   10   18     -1.46      0.00
  -14   10   15      1.57      0.00
  -14   10   12     -3.25      0.00
  -14   10    9      0.03      0.00
  -14   10    6     -0.48      0.00
  -14   10    3     -0.53      0.00
   -4   14    0      4.48      0.00
   -4   14    3     -1.51      0.00
   -4   14    6     -2.77      0.00
   -4   14    9      2.71      0.00
   -4   14   12     -1.12      0.00
   -4   14   15     -0.81      0.00
   -4   14   18      0.28      0.00
  -14    9   19     -0.01      0.00
  -14    9   16      1.69      0.00
  -14    9   13     -0.96      0.00
  -14    9   10     -1.26      0.00
  -14    9    7     -1.55      0.00
  -14    9    4      2.38      0.00
  -14    9    1      1.92      0.00
   -5   14    2     -0.47      0.00
   -5   14    5     -1.42      0.00
   -5   14    8      2.06      0.00
   -5   14   11      2.03      0.00
   -5   14   14     -3.11      0.00
   -5   14   17      1.66      0.00
   -5   14   20     -1.60      0.00
  -14    8   20     -0.92      0.00
  -14    8   17     -0.34      0.00
  -14    8   14      0.64      0.00
  -14    8   11      1.95      0.00
  -14    8    8      1.96      0.00
  -14    8    5     -1.84      0.00
  -14    8    2      1.25      0.00
   -6   14    1      3.12      0.00
   -6   14    4     -2.11      0.00
   -6   14    7     -0.51      0.00
   -6   14   10      2.34      0.00
   -6   14   13      0.55      0.00
   -6   14   16     -0.97      0.00
   -6   14   19      0.57      0.00
    7    7   21     -4.42      0.00
    7    7   18      1.16      0.00
    7    7   15     -0.86      0.00
    7    7   12      1.28      0.00
    7    7    9      4.36      0.00
    7    7    6     -0.91      0.00
    7    7    3      1.78      0.00
   -7   14    0      1.58      0.00
   -7   14    3     -1.50      0.00
   -7   14    6     -1.39      0.00
   -7   14    9      1.67      0.00
   -7   14   12      0.13      0.00
   -7   14   15     -0.02      0.00
   -7   14   18      1.91      0.00
   -7   14   21      2.77      0.00
    6    8   19     -1.28      0.00
    6    8   16     -0.44      0.00
    6    8   13      0.09      0.00
    6    8   10     -1.17      0.00
    6    8    7      4.42      0.00
    6    8    4      1.18      0.00
    6    8    1      0.87      0.00
   -8   14    2     -0.76      0.00
   -8   14    5     -3.49      0.00
   -8   14    8      1.22      0.00
   -8   14   11      1.69      0.00
   -8   14   14     -0.77      0.00
   -8   14   17      2.30      0.00
   -8   14   20      2.98      0.00
    5    9   20      1.41      0.00
    5    9   17     -0.99      0.00
    5    9   14     -1.13      0.00
    5    9   11     -1.00      0.00
    5    9    8      2.96      0.00
    5    9    5     -0.95      0.00
    5    9    2      1.92      0.00
   -9   14    1     -0.97      0.00
   -9   14    4     -1.37      0.00
   -9   14    7     -1.04      0.00
   -9   14   10      0.97      0.00
   -9   14   13      1.36      0.00
   -9   14   16      2.72      0.00
   -9   14   19      2.34      0.00
    4   10   21      1.27      0.00
    4   10   18     -1.89      0.00
    4   10   15      0.16      0.00
    4   10   12      1.43      0.00
    4   10    9     -0.82      0.00
    4   10    6      0.86      0.00
    4   10    3     -1.14      0.00
  -10   14    0     -1.33      0.00
  -10   14    3     -0.94      0.00
  -10   14    6      2.57      0.00
  -10   14    9     -2.09      0.00
  -10   14   12      2.44      0.00
  -10   14   15      1.67      0.00
  -10   14   18      4.40      0.00
  -10   14   21     -1.65      0.00
    3   11   19     -0.93      0.00
    3   11   16     -0.19      0.00
    3   11   13      1.05      0.00
    3   11   10     -0.85      0.00
    3   11    7      2.00      0.00
    3   11    4     -1.11      0.00
    3   11    1     -4.27      0.00
  -11   14    2     -0.56      0.00
  -11   14    5      4.78      0.00
  -11   14    8     -1.03      0.00
  -11   14   11     -2.11      0.00
  -11   14   14      3.80      0.00
  -11   14   17      1.84      0.00
  -11   14   20     -0.35      0.00
    2   12   20     -2.41      0.00
    2   12   17      1.66      0.00
    2   12   14      0.61      0.00
    2   12   11     -2.03      0.00
    2   12    8      0.26      0.00
    2   12    5      0.98      0.00
    2   12    2     -2.79      0.00
  -12   14    1      0.15      0.00
  -12   14    4      2.20      0.00
  -12   14    7      0.05      0.00
  -12   14   10     -4.01      0.00
  -12   14   13      1.47      0.00
  -12   14   16      1.12      0.00
  -12   14   19      0.89      0.00
    1   13   18      2.54      0.00
    1   13   15     -2.45      0.00
    1   13   12      0.98      0.00
    1   13    9     -3.01      0.00
    1   13    6      1.33      0.00
    1   13    3      0.17      0.00
  -13   14    0      3.82      0.00
  -13   14    3     -3.05      0.00
  -13   14    6     -1.09      0.00
  -13   14    9     -1.22      0.00
  -13   14   12      1.22      0.00
  -13   14   15     -0.55      0.00
  -13   14   18     -0.96      0.00
    0   14   19     -2.19      0.00
    0   14   16     -0.54      0.00
    0   14   13     -0.14      0.00
    0   14   10     -3.62      0.00
    0   14    7      2.34      0.00
    0   14    4      1.94      0.00
    0   14    1      1.96      0.00
  -14   14    2     -1.37      0.00
  -14   14    5     -1.27      0.00
  -14   14    8      1.10      0.00
  -14   14   11      0.12      0.00
  -14   14   14      0.84      0.00
  -14   14   17     -0.86      0.00
  -15   14   19     -2.04      0.00
  -15   14   16     -0.17      0.00
  -15   14   13      3.19      0.00
  -15   14   10     -1.63      0.00
  -15   14    7      0.35      0.00
  -15   14    4      0.14      0.00
  -15   14    1      0.35      0.00
   -1   15    2      0.20      0.00
   -1   15    5      3.11      0.00
   -1   15    8      1.41      0.00
   -1   15   11     -1.01      0.00
   -1   15   14     -1.11      0.00
   -1   15   17     -1.87      0.00
  -15   13   17      0.22      0.00
  -15   13   14      0.88      0.00
  -15   13   11     -0.52      0.00
  -15   13    8      1.19      0.00
  -15   13    5      2.13      0.00
  -15   13    2     -1.79      0.00
   -2   15    1     -1.32      0.00
   -2   15    4     -1.17      0.00
   -2   15    7      4.48      0.00
   -2   15   10     -1.64      0.00
   -2   15   13      0.19      0.00
   -2   15   16     -2.47      0.00
   -2   15   19      4.65      0.00
  -15   12   18     -3.37      0.00
  -15   12   15      2.35      0.00
  -15   12   12     -1.90      0.00
  -15   12    9      0.82      0.00
  -15   12    6      0.77      0.00
  -15   12    3     -0.25      0.00
   -3   15    0      0.92      0.00
   -3   15    3     -5.88      0.00
   -3   15    6      2.87      0.00
   -3   15    9      0.21      0.00
   -3   15   12     -2.77      0.00
   -3   15   15      1.45      0.00
   -3   15   18     -0.03      0.00
  -15   11   19     -0.18      0.00
  -15   11   16      2.64      0.00
  -15   11   13     -5.06      0.00
  -15   11   10      0.16      0.00
  -15   11    7     -0.14      0.00
  -15   11    4      1.78      0.00
  -15   11    1      1.03      0.00
   -4   15    2     -4.29      0.00
   -4   15    5      1.42      0.00
   -4   15    8     -0.09      0.00
   -4   15   11     -2.17      0.00
   -4   15   14     -0.24      0.00
   -4   15   17     -0.27      0.00
   -4   15   20     -1.41      0.00
  -15   10   20      2.45      0.00
  -15   10   17      1.17      0.00
  -15   10   14     -2.98      0.00
  -15   10   11     -1.62      0.00
  -15   10    8      0.91      0.00
  -15   10    5      1.52      0.00
  -15   10    2     -1.32      0.00
   -5   15    1     -0.68      0.00
   -5   15    4      2.51      0.00
   -5   15    7     -1.50      0.00
   -5   15   10      0.03      0.00
   -5   15   13      0.42      0.00
   -5   15   16     -2.21      0.00
   -5   15   19     -1.52      0.00
  -15    9   18      2.25      0.00
  -15    9   15     -0.65      0.00
  -15    9   12      2.26      0.00
  -15    9    9     -0.81      0.00
  -15    9    6     -1.58      0.00
  -15    9    3      1.57      0.00
   -6   15    0      0.86      0.00
   -6   15    3      0.29      0.00
   -6   15    6     -0.38      0.00
   -6   15    9      1.09      0.00
   -6   15   12      2.73      0.00
   -6   15   15     -4.53      0.00
   -6   15   18      0.93      0.00
  -15    8   19      1.18      0.00
  -15    8   16      0.22      0.00
  -15    8   13      1.95      0.00
  -15    8   10      1.44      0.00
  -15    8    7      0.28      0.00
  -15    8    4      1.31      0.00
  -15    8    1     -0.51      0.00
   -7   15    2      1.79      0.00
   -7   15    5     -1.34      0.00
   -7   15    8      0.34      0.00
   -7   15   11      1.40      0.00
   -7   15   14     -0.90      0.00
   -7   15   17      0.10      0.00
   -7   15   20      1.47      0.00
    7    8   20     -4.85      0.00
    7    8   17      1.17      0.00
    7    8   14      0.22      0.00
    7    8   11     -0.40      0.00
    7    8    8      4.68      0.00
    7    8    5     -0.30      0.00
    7    8    2      0.47      0.00
   -8   15    1      2.82      0.00
   -8   15    4     -3.91      0.00
   -8   15    7     -1.32      0.00
   -8   15   10      2.35      0.00
   -8   15   13     -0.46      0.00
   -8   15   16      0.34      0.00
   -8   15   19      0.88      0.00
    6    9   18     -0.75      0.00
    6    9   15     -1.98      0.00
    6    9   12     -0.06      0.00
    6    9    9      0.06      0.00
    6    9    6      1.21      0.00
    6    9    3     -0.03      0.00
   -9   15    0      3.96      0.00
   -9   15    3     -2.92      0.00
   -9   15    6     -3.66      0.00
   -9   15    9      1.68      0.00
   -9   15   12      2.52      0.00
   -9   15   15     -0.80      0.00
   -9   15   18      1.15      0.00
    5   10   19      0.63      0.00
    5   10   16     -1.56      0.00
    5   10   13     -1.87      0.00
    5   10   10     -1.97      0.00
    5   10    7      1.76      0.00
    5   10    4     -3.01      0.00
    5   10    1      2.35      0.00
  -10   15    2     -1.52      0.00
  -10   15    5      1.51      0.00
  -10   15    8     -1.06      0.00
  -10   15   11      1.30      0.00
  -10   15   14      0.54      0.00
  -10   15   17      2.82      0.00
  -10   15   20      0.53      0.00
    4   11   20      0.36      0.00
    4   11   17     -1.26      0.00
    4   11   14     -2.18      0.00
    4   11   11     -0.67      0.00
    4   11    8      1.04      0.00
    4   11    5     -3.31      0.00
    4   11    2     -1.14      0.00
  -11   15    1     -0.25      0.00
  -11   15    4      2.96      0.00
  -11   15    7      1.05      0.00
  -11   15   10     -4.22      0.00
  -11   15   13      4.70      0.00
  -11   15   16      0.41      0.00
  -11   15   19      2.86      0.00
    3   12   18      2.10      0.00
    3   12   15     -3.64      0.00
    3   12   12      0.27      0.00
    3   12    9     -0.19      0.00
    3   12    6     -1.21      0.00
    3   12    3     -0.93      0.00
  -12   15    0      0.23      0.00
  -12   15    3     -1.13      0.00
  -12   15    6      2.85      0.00
  -12   15    9     -5.07      0.00
  -12   15   12      2.25      0.00
  -12   15   15      2.52      0.00
  -12   15   18      2.05      0.00
    2   13   19      1.75      0.00
    2   13   16     -3.48      0.00
    2   13   13      2.29      0.00
    2   13   10     -3.58      0.00
    2   13    7      0.04      0.00
    2   13    4      0.19      0.00
    2   13    1      2.75      0.00
  -13   15    2     -2.66      0.00
  -13   15    5      0.45      0.00
  -13   15    8     -1.93      0.00
  -13   15   11     -0.23      0.00
  -13   15   14     -0.23      0.00
  -13   15   17      0.70      0.00
    1   14   17     -1.67      0.00
    1   14   14     -0.71      0.00
    1   14   11     -2.14      0.00
    1   14    8     -0.47      0.00
    1   14    5      1.67      0.00
    1   14    2      1.73      0.00
  -14   15    1      2.01      0.00
  -14   15    4     -1.69      0.00
  -14   15    7     -0.36      0.00
  -14   15   10     -3.29      0.00
  -14   15   13      1.49      0.00
  -14   15   16     -1.57      0.00
  -14   15   19      0.15      0.00
    0   15   18     -5.22      0.00
    0   15   15     -0.63      0.00
    0   15   12      0.11      0.00
    0   15    9     -1.78      0.00
    0   15    6      2.88      0.00
    0   15    3      1.50      0.00
    0   15    0      2.12      0.00
  -15   15    3     -0.61      0.00
  -15   15    6     -0.22      0.00
  -15   15    9     -2.36      0.00
  -15   15   12      2.73      0.00
  -15   15   15     -0.16      0.00
  -15   15   18     -0.96      0.00
  -16   15   17     -1.66      0.00
  -16   15   14      1.12      0.00
  -16   15   11      1.17      0.00
  -16   15    8      0.37      0.00
  -16   15    5     -0.82      0.00
  -16   15    2      1.57      0.00
   -1   16    1      1.07      0.00
   -1   16    4      0.32      0.00
   -1   16    7      2.10      0.00
   -1   16   10      0.28      0.00
   -1   16   13     -0.01      0.00
   -1   16   16     -2.71      0.00
  -16   14   18     -1.98      0.00
  -16   14   15     -0.34      0.00
  -16   14   12      2.99      0.00
  -16   14    9     -1.00      0.00
  -16   14    6     -1.19      0.00
  -16   14    3      1.45      0.00
   -2   16    0     -0.75      0.00
   -2   16    3     -1.94      0.00
   -2   16    6      4.87      0.00
   -2   16    9      0.68      0.00
   -2   16   12      0.68      0.00
   -2   16   15     -1.90      0.00
   -2   16   18      2.54      0.00
  -16   13   19     -2.76      0.00
  -16   13   16      1.62      0.00
  -16   13   13     -0.16      0.00
  -16   13   10     -2.17      0.00
  -16   13    7     -0.71      0.00
  -16   13    4      3.72      0.00
  -16   13    1     -1.09      0.00
   -3   16    2     -6.24      0.00
   -3   16    5      2.38      0.00
   -3   16    8      2.81      0.00
   -3   16   11     -1.56      0.00
   -3   16   14      0.96      0.00
   -3   16   17     -0.12      0.00
  -16   12   17      0.90      0.00
  -16   12   14     -2.37      0.00
  -16   12   11     -1.63      0.00
  -16   12    8      0.74      0.00
  -16   12    5      2.58      0.00
  -16   12    2     -1.65      0.00
   -4   16    1     -3.17      0.00
   -4   16    4     -1.71      0.00
   -4   16    7      0.99      0.00
   -4   16   10     -1.20      0.00
   -4   16   13     -1.01      0.00
   -4   16   16      1.39      0.00
   -4   16   19     -2.29      0.00
  -16   11   18      2.63      0.00
  -16   11   15     -1.41      0.00
  -16   11   12     -2.82      0.00
  -16   11    9      2.46      0.00
  -16   11    6     -0.52      0.00
  -16   11    3     -1.06      0.00
   -5   16    0     -0.36      0.00
   -5   16    3     -1.34      0.00
   -5   16    6      0.35      0.00
   -5   16    9     -1.43      0.00
   -5   16   12     -0.19      0.00
   -5   16   15     -0.38      0.00
   -5   16   18     -3.47      0.00
  -16   10   19      5.99      0.00
  -16   10   16     -0.66      0.00
  -16   10   13     -0.65      0.00
  -16   10   10     -0.69      0.00
  -16   10    7     -1.03      0.00
  -16   10    4      2.03      0.00
  -16   10    1     -1.52      0.00
   -6   16    2     -1.49      0.00
   -6   16    5      4.23      0.00
   -6   16    8     -1.30      0.00
   -6   16   11     -0.75      0.00
   -6   16   14      0.23      0.00
   -6   16   17     -2.27      0.00
  -16    9   17      1.26      0.00
  -16    9   14      0.83      0.00
  -16    9   11      2.15      0.00
  -16    9    8     -2.18      0.00
  -16    9    5      1.05      0.00
  -16    9    2     -1.20      0.00
   -7   16    1      1.13      0.00
   -7   16    4      1.72      0.00
   -7   16    7     -0.60      0.00
   -7   16   10     -0.69      0.00
   -7   16   13      3.17      0.00
   -7   16   16     -2.85      0.00
   -7   16   19      0.55      0.00
    8    8   18      0.90      0.00
    8    8   15      3.32      0.00
    8    8   12      0.40      0.00
    8    8    9      0.54      0.00
    8    8    6     -0.34      0.00
    8    8    3      0.73      0.00
   -8   16    0      1.53      0.00
   -8   16    3     -1.95      0.00
   -8   16    6     -1.18      0.00
   -8   16    9      2.03      0.00
   -8   16   12      1.01      0.00
   -8   16   15     -0.93      0.00
   -8   16   18     -0.05      0.00
    7    9   19     -3.84      0.00
    7    9   16      2.21      0.00
    7    9   13     -0.75      0.00
    7    9   10     -1.66      0.00
    7    9    7      2.53      0.00
    7    9    4     -0.57      0.00
    7    9    1      3.35      0.00
   -9   16    2     -2.47      0.00
   -9   16    5     -2.38      0.00
   -9   16    8      1.61      0.00
   -9   16   11      1.81      0.00
   -9   16   14     -1.79      0.00
   -9   16   17      0.60      0.00
    6   10   17      0.48      0.00
    6   10   14     -4.38      0.00
    6   10   11     -0.58      0.00
    6   10    8      1.00      0.00
    6   10    5     -2.09      0.00
    6   10    2      1.36      0.00
  -10   16    1      1.22      0.00
  -10   16    4      1.09      0.00
  -10   16    7     -1.91      0.00
  -10   16   10     -0.06      0.00
  -10   16   13      1.53      0.00
  -10   16   16      0.72      0.00
  -10   16   19     -1.20      0.00
    5   11   18      2.02      0.00
    5   11   15     -4.48      0.00
    5   11   12      0.08      0.00
    5   11    9     -1.26      0.00
    5   11    6     -2.08      0.00
    5   11    3     -1.90      0.00
  -11   16    0      2.99      0.00
  -11   16    3      0.62      0.00
  -11   16    6      1.20      0.00
  -11   16    9     -2.74      0.00
  -11   16   12      4.16      0.00
  -11   16   15      0.08      0.00
  -11   16   18      1.04      0.00
    4   12   19      4.01      0.00
    4   12   16     -4.59      0.00
    4   12   13      1.12      0.00
    4   12   10     -2.60      0.00
    4   12    7     -0.30      0.00
    4   12    4     -2.57      0.00
    4   12    1      2.13      0.00
  -12   16    2     -2.07      0.00
  -12   16    5      3.41      0.00
  -12   16    8     -1.67      0.00
  -12   16   11      0.77      0.00
  -12   16   14      4.21      0.00
  -12   16   17     -1.62      0.00
    3   13   17     -0.45      0.00
    3   13   14     -0.79      0.00
    3   13   11     -2.73      0.00
    3   13    8      1.03      0.00
    3   13    5     -1.77      0.00
    3   13    2      3.09      0.00
  -13   16    1     -1.79      0.00
  -13   16    4     -1.13      0.00
  -13   16    7      1.38      0.00
  -13   16   10     -3.66      0.00
  -13   16   13      3.04      0.00
  -13   16   16     -0.62      0.00
  -13   16   19      3.59      0.00
    2   14   18      0.66      0.00
    2   14   15     -2.66      0.00
    2   14   12      0.40      0.00
    2   14    9     -0.38      0.00
    2   14    6      0.47      0.00
    2   14    3      0.33      0.00
  -14   16    0      2.48      0.00
  -14   16    3     -3.58      0.00
  -14   16    6      1.20      0.00
  -14   16    9     -5.55      0.00
  -14   16   12      4.34      0.00
  -14   16   15     -3.51      0.00
  -14   16   18      3.01      0.00
    1   15   16     -1.15      0.00
    1   15   13      0.42      0.00
    1   15   10     -1.69      0.00
    1   15    7      1.81      0.00
    1   15    4     -1.01      0.00
    1   15    1      1.10      0.00
  -15   16    2      0.37      0.00
  -15   16    5      0.96      0.00
  -15   16    8     -2.20      0.00
  -15   16   11      1.31      0.00
  -15   16   14     -2.06      0.00
  -15   16   17     -0.34      0.00
    0   16   17     -5.65      0.00
    0   16   14      0.62      0.00
    0   16   11      0.11      0.00
    0   16    8      0.75      0.00
    0   16    5     -2.38      0.00
    0   16    2      1.41      0.00
  -16   16    1      3.45      0.00
  -16   16    4     -0.43      0.00
  -16   16    7      1.04      0.00
  -16   16   10     -1.32      0.00
  -16   16   13      0.37      0.00
  -16   16   16     -0.45      0.00
  -17   16   15      0.83      0.00
  -17   16   12      1.63      0.00
  -17   16    9      1.14      0.00
  -17   16    6     -1.52      0.00
  -17   16    3     -0.93      0.00
   -1   17    0      3.31      0.00
   -1   17    3      2.39      0.00
   -1   17    6     -3.30      0.00
   -1   17    9      1.39      0.00
   -1   17   12      0.13      0.00
   -1   17   15     -0.73      0.00
  -17   15   16     -0.83      0.00
  -17   15   13      1.34      0.00
  -17   15   10     -0.23      0.00
  -17   15    7     -1.46      0.00
  -17   15    4      0.32      0.00
  -17   15    1      1.52      0.00
   -2   17    2     -0.09      0.00
   -2   17    5      2.02      0.00
   -2   17    8      0.51      0.00
   -2   17   11      1.22      0.00
   -2   17   14     -1.38      0.00
   -2   17   17      0.96      0.00
  -17   14   17     -0.42      0.00
  -17   14   14     -2.60      0.00
  -17   14   11      0.51      0.00
  -17   14    8     -0.55      0.00
  -17   14    5      0.85      0.00
  -17   14    2     -0.06      0.00
   -3   17    1     -3.83      0.00
   -3   17    4      2.42      0.00
   -3   17    7      1.63      0.00
   -3   17   10     -0.55      0.00
   -3   17   13      1.23      0.00
   -3   17   16      1.22      0.00
  -17   13   18     -1.26      0.00
  -17   13   15     -1.19      0.00
  -17   13   12      0.30      0.00
  -17   13    9     -1.00      0.00
  -17   13    6     -0.67      0.00
  -17   13    3      0.00      0.00
   -4   17    0     -1.44      0.00
   -4   17    3     -1.78      0.00
   -4   17    6     -1.27      0.00
   -4   17    9      0.15      0.00
   -4   17   12      0.44      0.00
   -4   17   15      2.40      0.00
   -4   17   18     -1.38      0.00
  -17   12   16      0.61      0.00
  -17   12   13     -1.46      0.00
  -17   12   10      0.00      0.00
  -17   12    7     -1.10      0.00
  -17   12    4     -0.08      0.00
  -17   12    1     -0.31      0.00
   -5   17    2     -0.73      0.00
   -5   17    5     -2.60      0.00
   -5   17    8     -1.30      0.00
   -5   17   11      0.00      0.00
   -5   17   14     -0.72      0.00
   -5   17   17     -0.69      0.00
  -17   11   17      2.16      0.00
  -17   11   14     -1.61      0.00
  -17   11   11     -1.43      0.00
  -17   11    8      2.14      0.00
  -17   11    5     -0.94      0.00
  -17   11    2     -1.31      0.00
   -6   17    1      0.49      0.00
   -6   17    4      1.40      0.00
   -6   17    7     -2.19      0.00
   -6   17   10     -2.29      0.00
   -6   17   13      0.52      0.00
   -6   17   16     -0.07      0.00
  -17   10   18      5.28      0.00
  -17   10   15     -0.24      0.00
  -17   10   12     -0.01      0.00
  -17   10    9     -0.43      0.00
  -17   10    6     -1.18      0.00
  -17   10    3      0.52      0.00
   -7   17    0      1.18      0.00
   -7   17    3     -1.11      0.00
   -7   17    6      1.64      0.00
   -7   17    9     -0.82      0.00
   -7   17   12      0.26      0.00
   -7   17   15      0.49      0.00
   -7   17   18     -1.48      0.00
  -17    9   19      4.16      0.00
  -17    9   16      2.96      0.00
  -17    9   13     -1.25      0.00
  -17    9   10      1.51      0.00
  -17    9    7     -2.37      0.00
  -17    9    4      1.82      0.00
  -17    9    1      0.03      0.00
   -8   17    2     -2.88      0.00
   -8   17    5      2.95      0.00
   -8   17    8      2.01      0.00
   -8   17   11     -2.55      0.00
   -8   17   14      1.90      0.00
   -8   17   17     -0.27      0.00
    8    9   17      0.80      0.00
    8    9   14      1.96      0.00
    8    9   11      0.04      0.00
    8    9    8      0.40      0.00
    8    9    5     -1.33      0.00
    8    9    2      1.91      0.00
   -9   17    1     -2.70      0.00
   -9   17    4      1.22      0.00
   -9   17    7      0.43      0.00
   -9   17   10      0.23      0.00
   -9   17   13     -1.56      0.00
   -9   17   16      1.86      0.00
   -9   17   19     -0.21      0.00
    7   10   18     -2.76      0.00
    7   10   15      0.77      0.00
    7   10   12      0.84      0.00
    7   10    9     -0.97      0.00
    7   10    6     -1.70      0.00
    7   10    3      0.67      0.00
  -10   17    0      2.37      0.00
  -10   17    3     -0.40      0.00
  -10   17    6     -2.53      0.00
  -10   17    9      1.37      0.00
  -10   17   12      0.20      0.00
  -10   17   15      0.54      0.00
  -10   17   18     -0.16      0.00
    6   11   16     -1.03      0.00
    6   11   13     -0.31      0.00
    6   11   10     -2.58      0.00
    6   11    7     -0.31      0.00
    6   11    4     -1.40      0.00
    6   11    1      2.81      0.00
  -11   17    2     -0.94      0.00
  -11   17    5      1.86      0.00
  -11   17    8      0.49      0.00
  -11   17   11      0.12      0.00
  -11   17   14      1.15      0.00
  -11   17   17      0.74      0.00
    5   12   17     -1.64      0.00
    5   12   14      0.69      0.00
    5   12   11     -3.14      0.00
    5   12    8      0.93      0.00
    5   12    5     -1.95      0.00
    5   12    2      0.22      0.00
  -12   17    1      0.25      0.00
  -12   17    4      2.34      0.00
  -12   17    7      1.15      0.00
  -12   17   10     -0.98      0.00
  -12   17   13      4.39      0.00
  -12   17   16     -1.18      0.00
    4   13   18      1.27      0.00
    4   13   15     -0.39      0.00
    4   13   12     -0.29      0.00
    4   13    9      0.15      0.00
    4   13    6     -1.05      0.00
    4   13    3      0.31      0.00
  -13   17    0      0.55      0.00
  -13   17    3     -3.04      0.00
  -13   17    6      2.88      0.00
  -13   17    9     -2.58      0.00
  -13   17   12      5.10      0.00
  -13   17   15      0.99      0.00
  -13   17   18      0.14      0.00
    3   14   16      2.98      0.00
    3   14   13     -0.63      0.00
    3   14   10     -0.44      0.00
    3   14    7      0.29      0.00
    3   14    4     -1.49      0.00
    3   14    1      3.00      0.00
  -14   17    2     -4.83      0.00
  -14   17    5      1.00      0.00
  -14   17    8     -1.83      0.00
  -14   17   11      3.71      0.00
  -14   17   14     -1.99      0.00
  -14   17   17      1.04      0.00
    2   15   17      4.13      0.00
    2   15   14     -3.20      0.00
    2   15   11      0.62      0.00
    2   15    8      1.24      0.00
    2   15    5     -1.08      0.00
    2   15    2     -0.68      0.00
  -15   17    1      0.49      0.00
  -15   17    4     -0.01      0.00
  -15   17    7     -0.36      0.00
  -15   17   10     -1.97      0.00
  -15   17   13     -0.21      0.00
  -15   17   16     -1.66      0.00
    1   16   15     -1.01      0.00
    1   16   12      2.03      0.00
    1   16    9     -0.30      0.00
    1   16    6     -1.18      0.00
    1   16    3     -1.48      0.00
  -16   17    0      2.13      0.00
  -16   17    3     -0.44      0.00
  -16   17    6      0.63      0.00
  -16   17    9     -1.20      0.00
  -16   17   12      0.84      0.00
  -16   17   15     -1.42      0.00
    0   17   16     -2.71      0.00
    0   17   13      1.96      0.00
    0   17   10     -0.28      0.00
    0   17    7     -2.24      0.00
    0   17    4     -1.06      0.00
    0   17    1      1.19      0.00
  -17   17    2      0.81      0.00
  -17   17    5     -2.14      0.00
  -17   17    8      5.28      0.00
  -17   17   11     -0.44      0.00
  -17   17   14     -0.40      0.00
  -18   17   13     -0.02      0.00
  -18   17   10     -0.87      0.00
  -18   17    7      3.93      0.00
  -18   17    4     -2.37      0.00
  -18   17    1      2.86      0.00
   -1   18    2     -0.94      0.00
   -1   18    5     -0.29      0.00
   -1   18    8     -0.68      0.00
   -1   18   11     -0.91      0.00
   -1   18   14     -0.94      0.00
  -18   16   14     -0.32      0.00
  -18   16   11      1.23      0.00
  -18   16    8      1.74      0.00
  -18   16    5     -0.97      0.00
  -18   16    2     -0.98      0.00
   -2   18    1     -1.17      0.00
   -2   18    4      7.11      0.00
   -2   18    7     -3.71      0.00
   -2   18   10      0.21      0.00
   -2   18   13     -2.18      0.00
   -2   18   16      3.15      0.00
  -18   15   15     -1.68      0.00
  -18   15   12      1.94      0.00
  -18   15    9     -0.13      0.00
  -18   15    6     -0.84      0.00
  -18   15    3     -1.99      0.00
   -3   18    0     -1.48      0.00
   -3   18    3      6.54      0.00
   -3   18    6     -1.26      0.00
   -3   18    9     -1.59      0.00
   -3   18   12      1.82      0.00
   -3   18   15      1.68      0.00
  -18   14   16      1.32      0.00
  -18   14   13     -2.01      0.00
  -18   14   10     -1.96      0.00
  -18   14    7      0.89      0.00
  -18   14    4     -1.43      0.00
  -18   14    1     -0.13      0.00
   -4   18    2      0.73      0.00
   -4   18    5     -1.41      0.00
   -4   18    8     -0.14      0.00
   -4   18   11      0.84      0.00
   -4   18   14      1.93      0.00
   -4   18   17     -0.67      0.00
  -18   13   17      1.50      0.00
  -18   13   14     -2.48      0.00
  -18   13   11     -1.03      0.00
  -18   13    8      1.99      0.00
  -18   13    5     -2.81      0.00
  -18   13    2     -0.19      0.00
   -5   18    1      1.42      0.00
   -5   18    4     -2.53      0.00
   -5   18    7     -2.63      0.00
   -5   18   10     -0.81      0.00
   -5   18   13      0.82      0.00
   -5   18   16      0.87      0.00
  -18   12   15     -1.22      0.00
  -18   12   12     -0.16      0.00
  -18   12    9      3.88      0.00
  -18   12    6     -4.55      0.00
  -18   12    3     -0.29      0.00
   -6   18    0      2.19      0.00
   -6   18    3      0.49      0.00
   -6   18    6     -4.55      0.00
   -6   18    9     -2.08      0.00
   -6   18   12      1.76      0.00
   -6   18   15     -1.58      0.00
  -18   11   16      0.68      0.00
  -18   11   13     -0.78      0.00
  -18   11   10      1.07      0.00
  -18   11    7     -1.12      0.00
  -18   11    4      0.46      0.00
  -18   11    1      1.10      0.00
   -7   18    2     -1.12      0.00
   -7   18    5      1.98      0.00
   -7   18    8     -1.62      0.00
   -7   18   11     -0.81      0.00
   -7   18   14     -1.63      0.00
   -7   18   17      0.71      0.00
  -18   10   17      3.80      0.00
  -18   10   14     -1.79      0.00
  -18   10   11      1.45      0.00
  -18   10    8     -1.54      0.00
  -18   10    5      0.87      0.00
  -18   10    2     -0.12      0.00
   -8   18    1     -1.35      0.00
   -8   18    4      3.93      0.00
   -8   18    7     -0.15      0.00
   -8   18   10     -1.81      0.00
   -8   18   13     -0.89      0.00
   -8   18   16      2.11      0.00
    9    9   18      2.78      0.00
    9    9   15      2.88      0.00
    9    9   12     -1.01      0.00
    9    9    9      0.25      0.00
    9    9    6     -1.92      0.00
    9    9    3      2.00      0.00
   -9   18    0     -1.93      0.00
   -9   18    3      0.62      0.00
   -9   18    6     -0.19      0.00
   -9   18    9      2.69      0.00
   -9   18   12     -4.50      0.00
   -9   18   15      2.70      0.00
   -9   18   18      2.21      0.00
    8   10   16     -0.33      0.00
    8   10   13      2.49      0.00
    8   10   10     -1.02      0.00
    8   10    7     -0.72      0.00
    8   10    4      0.25      0.00
    8   10    1      0.98      0.00
  -10   18    2     -3.77      0.00
  -10   18    5      0.61      0.00
  -10   18    8      3.45      0.00
  -10   18   11     -2.25      0.00
  -10   18   14     -2.67      0.00
  -10   18   17      4.83      0.00
    7   11   17     -5.90      0.00
    7   11   14      4.28      0.00
    7   11   11     -1.56      0.00
    7   11    8      1.43      0.00
    7   11    5     -1.59      0.00
    7   11    2     -0.35      0.00
  -11   18    1     -1.14      0.00
  -11   18    4      3.63      0.00
  -11   18    7      0.11      0.00
  -11   18   10     -1.67      0.00
  -11   18   13     -1.68      0.00
  -11   18   16      4.38      0.00
    6   12   15      6.20      0.00
    6   12   12     -2.20      0.00
    6   12    9      0.53      0.00
    6   12    6     -0.30      0.00
    6   12    3     -2.42      0.00
  -12   18    0      2.31      0.00
  -12   18    3      0.55      0.00
  -12   18    6      0.61      0.00
  -12   18    9      1.09      0.00
  -12   18   12      0.94      0.00
  -12   18   15      2.29      0.00
    5   13   16      5.44      0.00
    5   13   13     -0.38      0.00
    5   13   10     -1.86      0.00
    5   13    7      1.50      0.00
    5   13    4     -1.58      0.00
    5   13    1      0.92      0.00
  -13   18    2     -2.93      0.00
  -13   18    5      2.23      0.00
  -13   18    8      1.71      0.00
  -13   18   11      4.45      0.00
  -13   18   14      0.77      0.00
  -13   18   17     -1.91      0.00
    4   14   17      7.04      0.00
    4   14   14     -3.59      0.00
    4   14   11      1.97      0.00
    4   14    8      0.13      0.00
    4   14    5     -1.17      0.00
    4   14    2      1.56      0.00
  -14   18    1     -4.05      0.00
  -14   18    4      0.53      0.00
  -14   18    7      0.97      0.00
  -14   18   10      3.13      0.00
  -14   18   13     -1.20      0.00
  -14   18   16      1.09      0.00
    3   15   15     -2.47      0.00
    3   15   12      4.68      0.00
    3   15    9     -0.51      0.00
    3   15    6     -1.07      0.00
    3   15    3     -1.29      0.00
  -15   18    0     -0.09      0.00
  -15   18    3     -0.90      0.00
  -15   18    6     -1.21      0.00
  -15   18    9     -0.43      0.00
  -15   18   12      0.82      0.00
  -15   18   15     -0.81      0.00
    2   16   16      2.30      0.00
    2   16   13      3.17      0.00
    2   16   10     -2.37      0.00
    2   16    7     -0.49      0.00
    2   16    4     -0.64      0.00
    2   16    1     -1.35      0.00
  -16   18    2     -0.08      0.00
  -16   18    5     -0.29      0.00
  -16   18    8      0.77      0.00
  -16   18   11     -1.05      0.00
  -16   18   14     -0.97      0.00
    1   17   14      2.18      0.00
    1   17   11     -1.88      0.00
    1   17    8     -0.66      0.00
    1   17    5     -0.17      0.00
    1   17    2     -2.36      0.00
  -17   18    1      1.79      0.00
  -17   18    4     -1.13      0.00
  -17   18    7      3.63      0.00
  -17   18   10     -1.79      0.00
  -17   18   13     -0.09      0.00
    0   18   15     -0.87      0.00
    0   18   12     -0.15      0.00
    0   18    9     -0.13      0.00
    0   18    6     -0.83      0.00
    0   18    3     -2.14      0.00
    0   18    0      1.96      0.00
  -18   18    3     -0.20      0.00
  -18   18    6     -1.02      0.00
  -18   18    9      3.05      0.00
  -18   18   12      0.62      0.00
  -18   18   15      2.19      0.00
  -19   18   14      0.31      0.00
  -19   18   11      1.85      0.00
  -19   18    8      4.28      0.00
  -19   18    5     -4.65      0.00
  -19   18    2      2.96      0.00
   -1   19    1     -1.33      0.00
   -1   19    4     -0.01      0.00
   -1   19    7     -0.04      0.00
   -1   19   10     -1.24      0.00
   -1   19   13     -0.73      0.00
  -19   17   12      3.09      0.00
  -19   17    9     -1.82      0.00
  -19   17    6     -0.40      0.00
  -19   17    3     -0.53      0.00
   -2   19    0      1.30      0.00
   -2   19    3      3.41      0.00
   -2   19    6     -2.61      0.00
   -2   19    9     -0.51      0.00
   -2   19   12     -1.57      0.00
  -19   16   13      1.28      0.00
  -19   16   10     -2.05      0.00
  -19   16    7      1.09      0.00
  -19   16    4      0.46      0.00
  -19   16    1     -0.69      0.00
   -3   19    2      1.39      0.00
   -3   19    5      2.70      0.00
   -3   19    8     -1.63      0.00
   -3   19   11      0.37      0.00
   -3   19   14     -1.75      0.00
  -19   15   14     -2.52      0.00
  -19   15   11     -1.21      0.00
  -19   15    8      4.00      0.00
  -19   15    5     -0.17      0.00
  -19   15    2     -3.03      0.00
   -4   19    1     -0.58      0.00
   -4   19    4      3.79      0.00
   -4   19    7      0.46      0.00
   -4   19   10     -2.19      0.00
   -4   19   13      1.57      0.00
   -4   19   16      1.09      0.00
  -19   14   15      0.40      0.00
  -19   14   12     -2.12      0.00
  -19   14    9      3.12      0.00
  -19   14    6     -1.19      0.00
  -19   14    3     -3.12      0.00
   -5   19    0      2.13      0.00
   -5   19    3      0.35      0.00
   -5   19    6     -2.12      0.00
   -5   19    9     -1.59      0.00
   -5   19   12      3.02      0.00
   -5   19   15      0.93      0.00
  -19   13   16      1.89      0.00
  -19   13   13     -1.39      0.00
  -19   13   10      2.47      0.00
  -19   13    7     -1.58      0.00
  -19   13    4     -1.97      0.00
  -19   13    1      2.11      0.00
   -6   19    2      1.01      0.00
   -6   19    5     -4.24      0.00
   -6   19    8     -0.75      0.00
   -6   19   11      1.07      0.00
   -6   19   14     -1.39      0.00
  -19   12   14     -2.13      0.00
  -19   12   11      2.94      0.00
  -19   12    8      1.58      0.00
  -19   12    5     -2.14      0.00
  -19   12    2      0.81      0.00
   -7   19    1      0.22      0.00
   -7   19    4      1.83      0.00
   -7   19    7     -3.23      0.00
   -7   19   10     -1.28      0.00
   -7   19   13      0.15      0.00
   -7   19   16     -1.70      0.00
  -19   11   15     -2.00      0.00
  -19   11   12      2.62      0.00
  -19   11    9      0.10      0.00
  -19   11    6     -0.55      0.00
  -19   11    3      0.71      0.00
   -8   19    0      0.47      0.00
   -8   19    3      1.81      0.00
   -8   19    6     -1.28      0.00
   -8   19    9     -0.73      0.00
   -8   19   12      1.72      0.00
   -8   19   15     -3.53      0.00
  -19   10   16      1.87      0.00
  -19   10   13     -1.36      0.00
  -19   10   10      0.61      0.00
  -19   10    7     -1.89      0.00
  -19   10    4      2.84      0.00
  -19   10    1     -1.14      0.00
   -9   19    2     -1.92      0.00
   -9   19    5      2.66      0.00
   -9   19    8      1.92      0.00
   -9   19   11     -1.30      0.00
   -9   19   14     -3.74      0.00
   -9   19   17      5.34      0.00
    9   10   17     -0.94      0.00
    9   10   14      2.97      0.00
    9   10   11     -0.71      0.00
    9   10    8     -1.06      0.00
    9   10    5      0.86      0.00
    9   10    2      0.09      0.00
  -10   19    1     -4.94      0.00
  -10   19    4      4.35      0.00
  -10   19    7      0.91      0.00
  -10   19   10     -0.02      0.00
  -10   19   13     -7.55      0.00
  -10   19   16      8.14      0.00
    8   11   15      3.88      0.00
    8   11   12      1.32      0.00
    8   11    9     -0.53      0.00
    8   11    6      0.56      0.00
    8   11    3     -1.74      0.00
  -11   19    0     -0.63      0.00
  -11   19    3      1.27      0.00
  -11   19    6     -1.48      0.00
  -11   19    9      0.93      0.00
  -11   19   12     -3.02      0.00
  -11   19   15      3.00      0.00
    7   12   16      2.37      0.00
    7   12   13      1.78      0.00
    7   12   10     -1.53      0.00
    7   12    7      4.24      0.00
    7   12    4     -3.63      0.00
    7   12    1      1.01      0.00
  -12   19    2     -3.32      0.00
  -12   19    5      2.66      0.00
  -12   19    8      2.99      0.00
  -12   19   11     -1.14      0.00
  -12   19   14     -0.44      0.00
    6   13   14      2.99      0.00
    6   13   11     -1.57      0.00
    6   13    8      4.26      0.00
    6   13    5     -2.49      0.00
    6   13    2     -0.91      0.00
  -13   19    1     -2.66      0.00
  -13   19    4      3.63      0.00
  -13   19    7      2.38      0.00
  -13   19   10      3.08      0.00
  -13   19   13     -2.72      0.00
  -13   19   16      0.43      0.00
    5   14   15      0.84      0.00
    5   14   12      4.27      0.00
    5   14    9     -1.64      0.00
    5   14    6     -0.74      0.00
    5   14    3      0.48      0.00
  -14   19    0     -3.17      0.00
  -14   19    3      1.28      0.00
  -14   19    6      0.57      0.00
  -14   19    9      3.43      0.00
  -14   19   12      0.26      0.00
  -14   19   15      0.75      0.00
    4   15   16      3.28      0.00
    4   15   13      3.15      0.00
    4   15   10     -1.76      0.00
    4   15    7     -2.10      0.00
    4   15    4      0.70      0.00
    4   15    1     -1.02      0.00
  -15   19    2     -1.70      0.00
  -15   19    5      0.01      0.00
  -15   19    8      0.53      0.00
  -15   19   11      2.66      0.00
  -15   19   14     -2.26      0.00
    3   16   14     -0.40      0.00
    3   16   11     -0.09      0.00
    3   16    8     -1.10      0.00
    3   16    5      0.62      0.00
    3   16    2     -2.05      0.00
  -16   19    1     -1.41      0.00
  -16   19    4      2.69      0.00
  -16   19    7     -2.90      0.00
  -16   19   10     -0.10      0.00
  -16   19   13     -1.73      0.00
    2   17   12      2.30      0.00
    2   17    9     -2.52      0.00
    2   17    6      0.20      0.00
    2   17    3     -0.82      0.00
  -17   19    0     -0.75      0.00
  -17   19    3      1.47      0.00
  -17   19    6     -2.29      0.00
  -17   19    9      0.41      0.00
  -17   19   12     -1.23      0.00
    1   18   13      3.80      0.00
    1   18   10     -4.50      0.00
    1   18    7      1.21      0.00
    1   18    4     -0.14      0.00
    1   18    1     -1.66      0.00
  -18   19    2      2.05      0.00
  -18   19    5     -3.56      0.00
  -18   19    8      4.95      0.00
  -18   19   11     -1.04      0.00
  -18   19   14      2.57      0.00
    0   19   11     -4.28      0.00
    0   19    8      3.35      0.00
    0   19    5     -0.76      0.00
    0   19    2     -2.92      0.00
  -19   19    1      3.50      0.00
  -19   19    4     -2.35      0.00
  -19   19    7      2.11      0.00
  -19   19   10      1.04      0.00
  -19   19   13      1.71      0.00
  -20   19   12      3.88      0.00
  -20   19    9      0.43      0.00
  -20   19    6     -3.89      0.00
  -20   19    3      0.55      0.00
   -1   20    0      2.03      0.00
   -1   20    3      0.46      0.00
   -1   20    6     -3.04      0.00
   -1   20    9      3.72      0.00
   -1   20   12     -3.34      0.00
  -20   18   13      1.11      0.00
  -20   18   10     -1.17      0.00
  -20   18    7      0.46      0.00
  -20   18    4     -2.30      0.00
  -20   18    1      4.35      0.00
   -2   20    2      0.94      0.00
   -2   20    5     -4.13      0.00
   -2   20    8      2.31      0.00
   -2   20   11     -2.24      0.00
  -20   17   14      0.05      0.00
  -20   17   11      1.83      0.00
  -20   17    8     -1.09      0.00
  -20   17    5     -0.14      0.00
  -20   17    2     -0.09      0.00
   -3   20    1      2.12      0.00
   -3   20    4      0.94      0.00
   -3   20    7      0.18      0.00
   -3   20   10     -2.43      0.00
   -3   20   13     -0.78      0.00
  -20   16   12      1.75      0.00
  -20   16    9      0.71      0.00
  -20   16    6     -0.53      0.00
  -20   16    3     -1.27      0.00
   -4   20    0      2.36      0.00
   -4   20    3      0.65      0.00
   -4   20    6      1.49      0.00
   -4   20    9     -2.45      0.00
   -4   20   12      2.82      0.00
  -20   15   13     -2.56      0.00
  -20   15   10      1.09      0.00
  -20   15    7      1.95      0.00
  -20   15    4     -0.23      0.00
  -20   15    1      0.66      0.00
   -5   20    2     -1.83      0.00
   -5   20    5     -0.31      0.00
   -5   20    8      2.23      0.00
   -5   20   11      2.01      0.00
   -5   20   14     -1.23      0.00
  -20   14   14     -1.23      0.00
  -20   14   11      1.09      0.00
  -20   14    8      2.09      0.00
  -20   14    5      0.69      0.00
  -20   14    2     -2.61      0.00
   -6   20    1      0.72      0.00
   -6   20    4     -2.56      0.00
   -6   20    7      2.61      0.00
   -6   20   10     -1.19      0.00
   -6   20   13      0.68      0.00
  -20   13   15      0.45      0.00
  -20   13   12      3.56      0.00
  -20   13    9      0.92      0.00
  -20   13    6     -0.06      0.00
  -20   13    3     -2.79      0.00
   -7   20    0      1.64      0.00
   -7   20    3      0.72      0.00
   -7   20    6     -2.81      0.00
   -7   20    9     -0.18      0.00
   -7   20   12      1.92      0.00
   -7   20   15     -1.67      0.00
  -20   12   13      1.27      0.00
  -20   12   10      0.18      0.00
  -20   12    7      1.86      0.00
  -20   12    4     -1.14      0.00
  -20   12    1      1.31      0.00
   -8   20    2     -0.11      0.00
   -8   20    5     -0.79      0.00
   -8   20    8     -0.50      0.00
   -8   20   11      2.96      0.00
   -8   20   14     -3.56      0.00
  -20   11   14     -3.92      0.00
  -20   11   11      1.80      0.00
  -20   11    8      0.84      0.00
  -20   11    5      0.83      0.00
  -20   11    2     -0.05      0.00
   -9   20    1     -0.97      0.00
   -9   20    4      2.35      0.00
   -9   20    7     -0.65      0.00
   -9   20   10      0.51      0.00
   -9   20   13      0.02      0.00
   -9   20   16     -0.08      0.00
   10   10   15     -0.76      0.00
   10   10   12     -0.16      0.00
   10   10    9      0.29      0.00
   10   10    6     -0.97      0.00
   10   10    3      1.95      0.00
  -10   20    0     -1.62      0.00
  -10   20    3      0.10      0.00
  -10   20    6      0.68      0.00
  -10   20    9      0.79      0.00
  -10   20   12     -0.81      0.00
  -10   20   15      1.06      0.00
    9   11   16     -0.49      0.00
    9   11   13      1.94      0.00
    9   11   10      0.42      0.00
    9   11    7     -0.47      0.00
    9   11    4      0.05      0.00
    9   11    1      0.97      0.00
  -11   20    2     -5.82      0.00
  -11   20    5      2.98      0.00
  -11   20    8      1.74      0.00
  -11   20   11      0.46      0.00
  -11   20   14     -4.30      0.00
    8   12   14      1.77      0.00
    8   12   11      2.73      0.00
    8   12    8      2.08      0.00
    8   12    5     -1.86      0.00
    8   12    2      0.11      0.00
  -12   20    1     -6.06      0.00
  -12   20    4      6.67      0.00
  -12   20    7      0.13      0.00
  -12   20   10     -1.70      0.00
  -12   20   13     -2.58      0.00
    7   13   15      2.13      0.00
    7   13   12      4.36      0.00
    7   13    9     -0.29      0.00
    7   13    6      0.70      0.00
    7   13    3     -1.17      0.00
  -13   20    0     -2.32      0.00
  -13   20    3      2.63      0.00
  -13   20    6      0.15      0.00
  -13   20    9      2.34      0.00
  -13   20   12     -2.23      0.00
  -13   20   15      0.69      0.00
    6   14   13      6.49      0.00
    6   14   10     -5.25      0.00
    6   14    7      2.81      0.00
    6   14    4     -0.17      0.00
    6   14    1     -2.37      0.00
  -14   20    2     -0.33      0.00
  -14   20    5      1.09      0.00
  -14   20    8      4.37      0.00
  -14   20   11      0.96      0.00
  -14   20   14     -2.12      0.00
    5   15   14      1.90      0.00
    5   15   11     -1.26      0.00
    5   15    8     -1.00      0.00
    5   15    5      0.28      0.00
    5   15    2     -0.46      0.00
  -15   20    1     -2.41      0.00
  -15   20    4      2.58      0.00
  -15   20    7      0.86      0.00
  -15   20   10      1.27      0.00
  -15   20   13     -1.92      0.00
    4   16   12      1.72      0.00
    4   16    9     -1.22      0.00
    4   16    6     -2.28      0.00
    4   16    3      0.57      0.00
  -16   20    0     -1.43      0.00
  -16   20    3      2.62      0.00
  -16   20    6     -3.21      0.00
  -16   20    9     -0.96      0.00
  -16   20   12      1.07      0.00
    3   17   13      1.98      0.00
    3   17   10     -3.24      0.00
    3   17    7     -1.17      0.00
    3   17    4      1.34      0.00
    3   17    1     -0.28      0.00
  -17   20    2     -1.46      0.00
  -17   20    5      0.35      0.00
  -17   20    8     -2.09      0.00
  -17   20   11      0.46      0.00
  -17   20   14     -0.29      0.00
    2   18   11     -3.19      0.00
    2   18    8      0.74      0.00
    2   18    5      0.08      0.00
    2   18    2      0.58      0.00
  -18   20    1     -0.75      0.00
  -18   20    4      0.19      0.00
  -18   20    7      0.22      0.00
  -18   20   10     -0.39      0.00
  -18   20   13     -0.19      0.00
    1   19   12     -0.69      0.00
    1   19    9     -0.37      0.00
    1   19    6      1.19      0.00
    1   19    3      0.10      0.00
  -19   20    0     -0.19      0.00
  -19   20    3      1.06      0.00
  -19   20    6     -1.40      0.00
  -19   20    9      1.75      0.00
  -19   20   12     -0.18      0.00
    0   20   10     -1.53      0.00
    0   20    7      3.18      0.00
    0   20    4      0.33      0.00
    0   20    1     -2.60      0.00
  -20   20    2      2.16      0.00
  -20   20    5     -1.60      0.00
  -20   20    8     -0.26      0.00
  -20   20   11      2.42      0.00
  -21   20   10      1.69      0.00
  -21   20    7     -4.70      0.00
  -21   20    4      0.20      0.00
  -21   20    1      2.48      0.00
   -1   21    2     -1.12      0.00
   -1   21    5     -3.74      0.00
   -1   21    8      6.51      0.00
  -21   19   11      2.98      0.00
  -21   19    8     -1.67      0.00
  -21   19    5     -3.34      0.00
  -21   19    2      1.29      0.00
   -2   21    1      1.80      0.00
   -2   21    4     -1.58      0.00
   -2   21    7      0.86      0.00
   -2   21   10     -0.81      0.00
  -21   18   12      1.98      0.00
  -21   18    9     -2.95      0.00
  -21   18    6     -1.23      0.00
  -21   18    3     -1.88      0.00
   -3   21    0      5.72      0.00
   -3   21    3      1.04      0.00
   -3   21    6     -2.61      0.00
   -3   21    9     -2.72      0.00
   -3   21   12      1.65      0.00
  -21   17   10      1.02      0.00
  -21   17    7     -2.02      0.00
  -21   17    4      0.12      0.00
  -21   17    1      2.88      0.00
   -4   21    2      0.82      0.00
   -4   21    5     -0.71      0.00
   -4   21    8     -1.15      0.00
   -4   21   11      2.49      0.00
  -21   16   11      3.68      0.00
  -21   16    8      0.65      0.00
  -21   16    5      0.39      0.00
  -21   16    2     -2.10      0.00
   -5   21    1      1.59      0.00
   -5   21    4     -0.92      0.00
   -5   21    7      2.86      0.00
   -5   21   10      1.06      0.00
   -5   21   13     -1.66      0.00
  -21   15   12      2.14      0.00
  -21   15    9     -0.50      0.00
  -21   15    6      2.33      0.00
  -21   15    3     -4.05      0.00
   -6   21    0      3.01      0.00
   -6   21    3     -2.89      0.00
   -6   21    6      1.52      0.00
   -6   21    9      1.46      0.00
   -6   21   12      1.11      0.00
  -21   14   13      2.50      0.00
  -21   14   10     -3.19      0.00
  -21   14    7      3.46      0.00
  -21   14    4     -1.71      0.00
  -21   14    1      0.27      0.00
   -7   21    2     -1.14      0.00
   -7   21    5     -3.22      0.00
   -7   21    8      4.16      0.00
   -7   21   11     -0.32      0.00
   -7   21   14      0.56      0.00
  -21   13   14      0.58      0.00
  -21   13   11     -0.55      0.00
  -21   13    8      3.45      0.00
  -21   13    5     -0.06      0.00
  -21   13    2     -2.08      0.00
   -8   21    1     -0.59      0.00
   -8   21    4     -1.37      0.00
   -8   21    7      0.58      0.00
   -8   21   10      1.32      0.00
   -8   21   13      0.08      0.00
  -21   12   12      1.01      0.00
  -21   12    9      1.55      0.00
  -21   12    6      0.71      0.00
  -21   12    3     -1.01      0.00
   -9   21    0      0.18      0.00
   -9   21    3     -0.11      0.00
   -9   21    6     -1.30      0.00
   -9   21    9      0.17      0.00
   -9   21   12      5.11      0.00
  -21   11   13     -3.69      0.00
  -21   11   10      1.45      0.00
  -21   11    7     -0.25      0.00
  -21   11    4      2.21      0.00
  -21   11    1     -0.56      0.00
  -10   21    2     -1.89      0.00
  -10   21    5      2.00      0.00
  -10   21    8     -0.85      0.00
  -10   21   11      3.37      0.00
  -10   21   14      0.60      0.00
   10   11   14     -3.55      0.00
   10   11   11      2.24      0.00
   10   11    8      0.01      0.00
   10   11    5     -0.16      0.00
   10   11    2      1.08      0.00
  -11   21    1     -3.86      0.00
  -11   21    4      3.70      0.00
  -11   21    7     -0.09      0.00
  -11   21   10     -0.06      0.00
  -11   21   13     -0.09      0.00
    9   12   12      5.71      0.00
    9   12    9      0.81      0.00
    9   12    6     -1.49      0.00
    9   12    3     -0.02      0.00
  -12   21    0     -1.10      0.00
  -12   21    3      1.64      0.00
  -12   21    6     -1.78      0.00
  -12   21    9     -0.67      0.00
  -12   21   12      2.03      0.00
    8   13   13      5.44      0.00
    8   13   10      0.16      0.00
    8   13    7      1.57      0.00
    8   13    4     -1.11      0.00
    8   13    1      0.38      0.00
  -13   21    2     -3.49      0.00
  -13   21    5      2.50      0.00
  -13   21    8      2.21      0.00
  -13   21   11     -2.41      0.00
  -13   21   14     -0.79      0.00
    7   14   14      4.50      0.00
    7   14   11     -0.79      0.00
    7   14    8      1.50      0.00
    7   14    5     -0.47      0.00
    7   14    2      0.12      0.00
  -14   21    1     -2.46      0.00
  -14   21    4      4.02      0.00
  -14   21    7      1.59      0.00
  -14   21   10     -2.45      0.00
  -14   21   13     -0.66      0.00
    6   15   12      2.49      0.00
    6   15    9     -3.66      0.00
    6   15    6      0.52      0.00
    6   15    3      0.93      0.00
  -15   21    0     -0.95      0.00
  -15   21    3      3.05      0.00
  -15   21    6     -2.05      0.00
  -15   21    9      0.05      0.00
  -15   21   12      2.23      0.00
    5   16   13      1.22      0.00
    5   16   10     -2.92      0.00
    5   16    7     -1.92      0.00
    5   16    4      1.01      0.00
    5   16    1      0.69      0.00
  -16   21    2      0.77      0.00
  -16   21    5     -3.33      0.00
  -16   21    8      1.12      0.00
  -16   21   11      2.87      0.00
    4   17   11     -2.49      0.00
    4   17    8      0.52      0.00
    4   17    5     -1.74      0.00
    4   17    2      2.31      0.00
  -17   21    1     -2.08      0.00
  -17   21    4     -0.18      0.00
  -17   21    7     -0.47      0.00
  -17   21   10      0.24      0.00
    3   18   12     -0.24      0.00
    3   18    9     -0.57      0.00
    3   18    6     -1.83      0.00
    3   18    3      3.18      0.00
  -18   21    0     -0.08      0.00
  -18   21    3     -4.12      0.00
  -18   21    6      3.18      0.00
  -18   21    9     -1.78      0.00
  -18   21   12     -1.43      0.00
    2   19   10     -3.16      0.00
    2   19    7      2.86      0.00
    2   19    4      0.25      0.00
    2   19    1      0.10      0.00
  -19   21    2     -2.07      0.00
  -19   21    5      2.77      0.00
  -19   21    8     -0.34      0.00
  -19   21   11     -1.61      0.00
    1   20    8      3.94      0.00
    1   20    5     -0.21      0.00
    1   20    2     -2.76      0.00
  -20   21    1      1.83      0.00
  -20   21    4      2.49      0.00
  -20   21    7     -2.21      0.00
  -20   21   10      0.81      0.00
    0   21    6     -0.78      0.00
    0   21    3     -1.32      0.00
    0   21    0      1.73      0.00
  -21   21    3      0.23      0.00
  -21   21    6     -2.70      0.00
  -22   21    5      0.38      0.00
  -22   21    2     -2.44      0.00
   -1   22    1      1.02      0.00
   -1   22    4     -1.92      0.00
   -1   22    7      3.04      0.00
  -22   20    6     -4.22      0.00
  -22   20    3     -1.42      0.00
   -2   22    0      4.17      0.00
   -2   22    3     -1.56      0.00
   -2   22    6     -1.84      0.00
  -22   19    7     -1.83      0.00
  -22   19    4     -2.37      0.00
  -22   19    1      4.50      0.00
   -3   22    2     -1.41      0.00
   -3   22    5     -1.04      0.00
   -3   22    8     -1.69      0.00
  -22   18    8     -3.19      0.00
  -22   18    5     -0.82      0.00
  -22   18    2      0.03      0.00
   -4   22    1      0.81      0.00
   -4   22    4      2.61      0.00
   -4   22    7     -1.69      0.00
   -4   22   10     -0.99      0.00
  -22   17    9     -1.61      0.00
  -22   17    6     -2.32      0.00
  -22   17    3     -1.09      0.00
   -5   22    0      2.28      0.00
   -5   22    3      1.80      0.00
   -5   22    6      0.64      0.00
   -5   22    9     -1.22      0.00
  -22   16   10     -1.55      0.00
  -22   16    7      0.99      0.00
  -22   16    4     -0.91      0.00
  -22   16    1     -0.22      0.00
   -6   22    2     -0.08      0.00
   -6   22    5      0.68      0.00
   -6   22    8      1.47      0.00
   -6   22   11      1.64      0.00
  -22   15   11     -2.39      0.00
  -22   15    8      2.16      0.00
  -22   15    5      1.06      0.00
  -22   15    2     -5.00      0.00
   -7   22    1      1.15      0.00
   -7   22    4     -1.68      0.00
   -7   22    7      2.77      0.00
   -7   22   10      0.05      0.00
  -22   14   12      0.29      0.00
  -22   14    9     -0.89      0.00
  -22   14    6      1.94      0.00
  -22   14    3     -5.36      0.00
   -8   22    0      1.24      0.00
   -8   22    3     -1.90      0.00
   -8   22    6     -1.32      0.00
   -8   22    9      2.86      0.00
   -8   22   12     -0.42      0.00
  -22   13   13     -0.15      0.00
  -22   13   10     -1.34      0.00
  -22   13    7      1.31      0.00
  -22   13    4     -1.00      0.00
  -22   13    1     -0.11      0.00
   -9   22    2     -2.31      0.00
   -9   22    5     -2.14      0.00
   -9   22    8      1.62      0.00
   -9   22   11      3.66      0.00
  -22   12   11      0.85      0.00
  -22   12    8     -0.18      0.00
  -22   12    5      2.14      0.00
  -22   12    2     -0.82      0.00
  -10   22    1     -2.49      0.00
  -10   22    4      1.72      0.00
  -10   22    7     -0.99      0.00
  -10   22   10      1.56      0.00
  -10   22   13      3.25      0.00
   11   11   12      1.12      0.00
   11   11    9     -1.56      0.00
   11   11    6      0.70      0.00
   11   11    3      2.22      0.00
  -11   22    0     -3.12      0.00
  -11   22    3      2.72      0.00
  -11   22    6      0.44      0.00
  -11   22    9     -2.50      0.00
  -11   22   12      3.59      0.00
   10   12   13      2.14      0.00
   10   12   10     -1.13      0.00
   10   12    7      1.00      0.00
   10   12    4      0.40      0.00
   10   12    1     -1.18      0.00
  -12   22    2      0.77      0.00
  -12   22    5      0.57      0.00
  -12   22    8     -0.87      0.00
  -12   22   11      0.28      0.00
    9   13   11      1.29      0.00
    9   13    8      3.02      0.00
    9   13    5     -1.75      0.00
    9   13    2     -0.88      0.00
  -13   22    1     -0.05      0.00
  -13   22    4      3.54      0.00
  -13   22    7     -2.54      0.00
  -13   22   10     -4.50      0.00
  -13   22   13      3.57      0.00
    8   14   12      1.67      0.00
    8   14    9      1.44      0.00
    8   14    6     -0.42      0.00
    8   14    3      0.23      0.00
  -14   22    0      1.80      0.00
  -14   22    3      0.31      0.00
  -14   22    6     -3.18      0.00
  -14   22    9     -1.81      0.00
  -14   22   12      2.56      0.00
    7   15   10     -1.71      0.00
    7   15    7      0.37      0.00
    7   15    4      0.51      0.00
    7   15    1      2.72      0.00
  -15   22    2     -1.51      0.00
  -15   22    5     -2.06      0.00
  -15   22    8      1.45      0.00
  -15   22   11      1.26      0.00
    6   16   11      0.23      0.00
    6   16    8     -2.47      0.00
    6   16    5     -0.17      0.00
    6   16    2      2.46      0.00
  -16   22    1     -0.13      0.00
  -16   22    4     -1.54      0.00
  -16   22    7      1.10      0.00
  -16   22   10     -0.11      0.00
    5   17    9     -1.07      0.00
    5   17    6     -2.99      0.00
    5   17    3      2.63      0.00
  -17   22    0     -0.05      0.00
  -17   22    3     -1.29      0.00
  -17   22    6     -1.07      0.00
  -17   22    9      0.27      0.00
    4   18   10     -3.42      0.00
    4   18    7      0.81      0.00
    4   18    4      0.66      0.00
    4   18    1      0.80      0.00
  -18   22    2     -4.69      0.00
  -18   22    5      2.01      0.00
  -18   22    8     -0.23      0.00
    3   19    8      3.96      0.00
    3   19    5     -2.79      0.00
    3   19    2      0.36      0.00
  -19   22    1      1.33      0.00
  -19   22    4     -2.84      0.00
  -19   22    7      2.54      0.00
    2   20    6     -0.17      0.00
    2   20    3     -2.53      0.00
  -20   22    0      5.35      0.00
  -20   22    3     -4.23      0.00
  -20   22    6      2.21      0.00
    1   21    7      1.01      0.00
    1   21    4     -1.04      0.00
    1   21    1      0.82      0.00
  -21   22    2     -3.09      0.00
  -21   22    5      3.74      0.00
    0   22    5     -0.58      0.00
    0   22    2     -1.82      0.00
  -22   22    1     -1.69      0.00
  -22   22    4      3.62      0.00
  -23   21    4      0.74      0.00
  -23   21    1      0.96      0.00
   -2   23    2     -2.09      0.00
  -23   20    5     -2.01      0.00
  -23   20    2      0.38      0.00
   -3   23    1     -0.76      0.00
   -3   23    4      0.60      0.00
  -23   19    6     -1.16      0.00
  -23   19    3     -0.64      0.00
   -4   23    0      1.67      0.00
   -4   23    3      0.53      0.00
   -4   23    6     -0.63      0.00
  -23   18    7     -2.37      0.00
  -23   18    4      0.53      0.00
  -23   18    1      1.05      0.00
   -5   23    2     -1.65      0.00
   -5   23    5      4.03      0.00
   -5   23    8     -1.38      0.00
  -23   17    8     -0.07      0.00
  -23   17    5     -1.93      0.00
  -23   17    2     -1.04      0.00
   -6   23    1     -1.21      0.00
   -6   23    4      5.20      0.00
   -6   23    7      0.22      0.00
  -23   16    9     -0.63      0.00
  -23   16    6     -1.03      0.00
  -23   16    3     -3.23      0.00
   -7   23    0      0.14      0.00
   -7   23    3      2.01      0.00
   -7   23    6      0.35      0.00
   -7   23    9     -0.69      0.00
  -23   15   10     -3.11      0.00
  -23   15    7      0.53      0.00
  -23   15    4     -1.99      0.00
  -23   15    1     -2.13      0.00
   -8   23    2     -0.43      0.00
   -8   23    5     -1.79      0.00
   -8   23    8      2.34      0.00
  -23   14   11     -1.06      0.00
  -23   14    8     -1.27      0.00
  -23   14    5      1.63      0.00
  -23   14    2     -5.68      0.00
   -9   23    1     -0.27      0.00
   -9   23    4     -2.56      0.00
   -9   23    7      1.21      0.00
   -9   23   10      3.01      0.00
  -23   13    9     -2.80      0.00
  -23   13    6      2.33      0.00
  -23   13    3     -4.09      0.00
  -10   23    0      0.19      0.00
  -10   23    3     -0.58      0.00
  -10   23    6     -1.31      0.00
  -10   23    9      1.94      0.00
  -23   12   10     -3.14      0.00
  -23   12    7      1.12      0.00
  -23   12    4      0.32      0.00
  -23   12    1     -0.49      0.00
  -11   23    2      0.30      0.00
  -11   23    5      1.22      0.00
  -11   23    8     -1.21      0.00
  -11   23   11      0.67      0.00
   11   12   11     -1.18      0.00
   11   12    8      0.02      0.00
   11   12    5     -1.13      0.00
   11   12    2      2.07      0.00
  -12   23    1     -0.68      0.00
  -12   23    4      2.41      0.00
  -12   23    7      0.58      0.00
  -12   23   10     -4.86      0.00
   10   13    9     -0.25      0.00
   10   13    6     -1.11      0.00
   10   13    3      1.74      0.00
  -13   23    0     -0.83      0.00
  -13   23    3      2.74      0.00
  -13   23    6     -2.32      0.00
  -13   23    9     -4.75      0.00
    9   14   10     -0.55      0.00
    9   14    7      2.22      0.00
    9   14    4      0.45      0.00
    9   14    1     -0.39      0.00
  -14   23    2     -0.45      0.00
  -14   23    5     -0.63      0.00
  -14   23    8     -2.84      0.00
  -14   23   11      0.58      0.00
    8   15    8      1.89      0.00
    8   15    5     -0.65      0.00
    8   15    2      1.92      0.00
  -15   23    1      0.29      0.00
  -15   23    4     -0.92      0.00
  -15   23    7     -3.01      0.00
  -15   23   10     -0.29      0.00
    7   16    9     -1.12      0.00
    7   16    6     -1.55      0.00
    7   16    3      2.85      0.00
  -16   23    0      2.68      0.00
  -16   23    3     -3.99      0.00
  -16   23    6     -1.48      0.00
  -16   23    9      0.26      0.00
    6   17    7     -3.31      0.00
    6   17    4      2.52      0.00
    6   17    1      0.17      0.00
  -17   23    2     -2.83      0.00
  -17   23    5     -0.15      0.00
  -17   23    8      1.22      0.00
    5   18    8      0.94      0.00
    5   18    5     -1.17      0.00
    5   18    2     -1.83      0.00
  -18   23    1     -0.80      0.00
  -18   23    4      0.81      0.00
  -18   23    7     -0.52      0.00
    4   19    6     -1.50      0.00
    4   19    3     -1.94      0.00
  -19   23    0      4.75      0.00
  -19   23    3     -6.52      0.00
  -19   23    6      1.84      0.00
    3   20    4     -3.66      0.00
    3   20    1      4.80      0.00
  -20   23    2     -4.33      0.00
  -20   23    5     -0.23      0.00
    2   21    2     -0.95      0.00
  -21   23    1      0.92      0.00
  -21   23    4      0.19      0.00
  -24   20    1      0.33      0.00
   -4   24    2     -1.93      0.00
  -24   19    5      0.81      0.00
  -24   19    2      0.12      0.00
   -5   24    1     -2.15      0.00
   -5   24    4      4.55      0.00
  -24   18    6     -1.96      0.00
  -24   18    3      1.06      0.00
   -6   24    0     -0.33      0.00
   -6   24    3      2.77      0.00
   -6   24    6      0.58      0.00
  -24   17    7     -0.17      0.00
  -24   17    4     -1.22      0.00
  -24   17    1     -0.16      0.00
   -7   24    2     -0.06      0.00
   -7   24    5      1.80      0.00
  -24   16    8      0.68      0.00
  -24   16    5     -1.76      0.00
  -24   16    2     -3.67      0.00
   -8   24    1      0.15      0.00
   -8   24    4      0.38      0.00
   -8   24    7      1.27      0.00
  -24   15    6      0.60      0.00
  -24   15    3     -7.07      0.00
   -9   24    0      1.82      0.00
   -9   24    3     -1.99      0.00
   -9   24    6     -0.42      0.00
  -24   14    7      0.51      0.00
  -24   14    4     -3.98      0.00
  -24   14    1     -0.16      0.00
  -10   24    2     -0.83      0.00
  -10   24    5     -2.87      0.00
  -10   24    8      2.65      0.00
  -24   13    8     -0.07      0.00
  -24   13    5     -0.63      0.00
  -24   13    2     -1.81      0.00
  -11   24    1      1.25      0.00
  -11   24    4     -0.81      0.00
  -11   24    7      0.55      0.00
   12   12    9     -1.89      0.00
   12   12    6     -0.76      0.00
   12   12    3      0.66      0.00
  -12   24    0      0.93      0.00
  -12   24    3      0.42      0.00
  -12   24    6      2.34      0.00
  -12   24    9     -4.47      0.00
   11   13    7     -0.08      0.00
   11   13    4     -1.72      0.00
   11   13    1      1.58      0.00
  -13   24    2      0.19      0.00
  -13   24    5      1.22      0.00
  -13   24    8     -2.02      0.00
   10   14    8      1.41      0.00
   10   14    5     -3.69      0.00
   10   14    2      2.66      0.00
  -14   24    1     -1.54      0.00
  -14   24    4      1.94      0.00
  -14   24    7     -3.13      0.00
    9   15    6     -1.24      0.00
    9   15    3      4.35      0.00
  -15   24    0     -1.26      0.00
  -15   24    3     -2.41      0.00
  -15   24    6     -2.59      0.00
    8   16    7      0.22      0.00
    8   16    4      3.28      0.00
    8   16    1      0.31      0.00
  -16   24    2     -4.65      0.00
  -16   24    5      0.96      0.00
  -16   24    8     -1.01      0.00
    7   17    5      0.28      0.00
    7   17    2     -1.01      0.00
  -17   24    1      0.12      0.00
  -17   24    4      0.16      0.00
  -17   24    7     -1.23      0.00
    6   18    6     -4.04      0.00
    6   18    3     -0.60      0.00
  -18   24    0      1.61      0.00
  -18   24    3     -1.85      0.00
  -18   24    6     -0.77      0.00
    5   19    4      0.04      0.00
    5   19    1      0.42      0.00
  -19   24    2     -5.03      0.00
  -19   24    5      2.02      0.00
    4   20    2     -1.47      0.00
  -20   24    1      0.89      0.00
  -25   18    2      0.32      0.00
   -7   25    1      0.07      0.00
  -25   17    3     -3.43      0.00
   -8   25    0      1.80      0.00
   -8   25    3     -0.48      0.00
  -25   16    4     -7.13      0.00
  -25   16    1      1.93      0.00
   -9   25    2     -1.38      0.00
   -9   25    5     -0.78      0.00
  -25   15    5     -4.64      0.00
  -25   15    2     -2.05      0.00
  -10   25    1      1.62      0.00
  -10   25    4     -3.14      0.00
  -25   14    6     -1.95      0.00
  -25   14    3     -2.18      0.00
  -11   25    0      2.29      0.00
  -11   25    3     -2.01      0.00
  -11   25    6     -0.72      0.00
  -25   13    4     -0.12      0.00
  -25   13    1     -0.40      0.00
  -12   25    2     -0.02      0.00
  -12   25    5      1.43      0.00
   12   13    5     -2.72      0.00
   12   13    2     -0.12      0.00
  -13   25    1      1.13      0.00
  -13   25    4      1.73      0.00
   11   14    6     -3.35      0.00
   11   14    3     -0.35      0.00
  -14   25    0      0.43      0.00
  -14   25    3      0.94      0.00
  -14   25    6     -1.10      0.00
   10   15    4     -1.07      0.00
   10   15    1      0.47      0.00
  -15   25    2     -3.42      0.00
  -15   25    5      1.05      0.00
    9   16    5     -0.68      0.00
    9   16    2      2.15      0.00
  -16   25    1     -3.42      0.00
  -16   25    4      0.87      0.00
    8   17    3      1.81      0.00
  -17   25    0      0.49      0.00
  -17   25    3     -2.72      0.00
    7   18    1     -0.56      0.00
  -18   25    2     -2.25      0.00
   -1    2    0     97.08      0.00
   -1    1    1    158.31      0.00
    1    1    3    -39.23      0.00
    0    1   20     -6.79      0.00
   -2    2   20     -5.90      0.00
    1    2   20     -1.07      0.00
    0    0   21      2.63      0.00
    1    1   21      0.76      0.00
   -1    2   21     -3.60      0.00
    2    2   21     -1.86      0.00
   -3    3   21     -6.11      0.00
    0    3   21     -2.41      0.00
    1    4   21     -2.19      0.00
   -1    1   22      7.98      0.00
   -3    2   22      1.42      0.00
    0    2   22      0.23      0.00
   -2    3   22     -4.47      0.00
    1    3   22     -4.85      0.00
  -10   10   22      3.43      0.00
   -9   11   22      2.37      0.00
   -8   12   22      0.32      0.00
    0    1   23      6.06      0.00
   -2    2   23      4.16      0.00
    1    2   23     -2.22      0.00
   -1    3   23     -2.04      0.00
    0    0   24     -1.13      0.00
    1    1   24     -0.41      0.00
   -1    2   24      1.20      0.00
   -1    1   25     -5.04      0.00
   -3    2   25     -2.44      0.00
    0    2   25     -0.44      0.00
    0    0    0      0.00      0.00
# SQUEEZE RESULTS (Version =  71116)
# Note: Data are Listed for all Voids in the P1 Unit Cell
# i.e. Centre of Gravity, Solvent Accessible Volume,
# Recovered number of Electrons in the Void and
# Details about the Squeezed Material
loop_
  _platon_squeeze_void_nr
  _platon_squeeze_void_average_x
  _platon_squeeze_void_average_y
  _platon_squeeze_void_average_z
  _platon_squeeze_void_volume
  _platon_squeeze_void_count_electrons
  _platon_squeeze_void_content
   1 -0.039 -0.029 -0.004      1876       321 ' '
# Missing Reflections Below sin(th)/lambda = 0.25
loop_
  _platon_missing_refln_index_h
  _platon_missing_refln_index_k
  _platon_missing_refln_index_l
  _platon_missing_refln_theta
   -1    2    0     2.070
   -1    1    1     1.594
    1    1    3     3.784
_platon_squeeze_void_probe_radius                  1.20
_platon_squeeze_details
)
TITL a in R-3
CELL   19.6760   19.6760   19.3000     90.00     90.00    120.00
SPGR R-3
# Solvent Accessible Volume =      1875
# Electrons Found in S.A.V. =       318
# Note: Atoms in Void as Cxxx and Qxxx all others
C101 1.000 0.997 0.235 !       1.73 eA-3
Q102 0.701 0.107 0.752 !       1.30 eA-3
C103 0.265 0.654 0.483 !       1.15 eA-3
C104 0.702 0.379 0.501 !       1.05 eA-3
C105 0.845 0.276 0.251 !       1.01 eA-3
Q106 0.369 0.561 0.506 !       1.01 eA-3
C107 0.192 0.623 0.502 !       1.01 eA-3
C108 1.000 1.000 0.832 !       0.94 eA-3
C109 0.862 0.144 0.137 !       0.87 eA-3
C110 0.251 0.595 0.505 !       0.85 eA-3
C111 0.518 0.521 0.477 !       0.82 eA-3
C112 1.007 0.510 0.510 !       0.82 eA-3
C113 0.781 0.589 0.216 !       0.76 eA-3
C114 0.567 0.776 0.808 !       0.73 eA-3
Q115 0.809 0.481 0.201 !       0.72 eA-3
Q116 0.613 0.186 0.204 !       0.67 eA-3
Q117 0.126 0.595 0.580 !       0.67 eA-3
C118 0.565 0.220 0.202 !       0.66 eA-3
Q119 0.909 0.484 0.092 !       0.66 eA-3
Q120 0.124 0.481 0.623 !       0.65 eA-3
C121 0.844 0.909 0.860 !       0.63 eA-3
Q122 0.187 0.061 0.142 !       0.61 eA-3
Q123 0.014 0.035 0.478 !       0.61 eA-3
Q124 0.502 0.096 0.449 !       0.59 eA-3
C125 0.483 0.220 0.233 !       0.58 eA-3
C126 0.902 0.886 0.869 !       0.57 eA-3
Q127 0.967 0.502 0.253 !       0.57 eA-3
Q128 0.260 0.114 0.101 !       0.56 eA-3
Q129 0.125 0.605 0.624 !       0.56 eA-3
Q130 0.601 0.787 0.773 !       0.56 eA-3
C131 0.533 0.203 0.233 !       0.55 eA-3
Q132 0.392 0.576 0.203 !       0.55 eA-3
Q133 0.871 0.344 0.440 !       0.55 eA-3
Q134 0.845 0.905 0.388 !       0.55 eA-3
C135 0.796 0.252 0.199 !       0.54 eA-3
Q136 0.140 0.908 0.102 !       0.54 eA-3
Q137 0.607 0.095 0.263 !       0.53 eA-3
Q138 0.686 0.939 0.250 !       0.53 eA-3
Q139 0.483 0.438 0.533 !       0.51 eA-3
)
;
_shelx_shelxl_version_number     2014/7
_olex2_submission_special_instructions 'No special instructions were received'
loop_
_space_group_symop_operation_xyz
'x, y, z'
'-y, x-y, z'
'-x+y, -x, z'
'x+2/3, y+1/3, z+1/3'
'-y+2/3, x-y+1/3, z+1/3'
'-x+y+2/3, -x+1/3, z+1/3'
'x+1/3, y+2/3, z+2/3'
'-y+1/3, x-y+2/3, z+2/3'
'-x+y+1/3, -x+2/3, z+2/3'
'-x, -y, -z'
'y, -x+y, -z'
'x-y, x, -z'
'-x+2/3, -y+1/3, -z+1/3'
'y+2/3, -x+y+1/3, -z+1/3'
'x-y+2/3, x+1/3, -z+1/3'
'-x+1/3, -y+2/3, -z+2/3'
'y+1/3, -x+y+2/3, -z+2/3'
'x-y+1/3, x+2/3, -z+2/3'
loop_
_atom_site_label
_atom_site_type_symbol
_atom_site_fract_x
_atom_site_fract_y
_atom_site_fract_z
_atom_site_U_iso_or_equiv
_atom_site_adp_type
_atom_site_occupancy
_atom_site_site_symmetry_order
_atom_site_calc_flag
_atom_site_refinement_flags_posn
_atom_site_refinement_flags_adp
_atom_site_refinement_flags_occupancy
Cd1 Cd 0.11008(2) 0.12701(2) 0.58647(2) 0.02544(10) Uani 1 1 d . . .
N1 N 0.20281(19) 0.17458(18) 0.67679(17) 0.0369(7) Uani 1 1 d . . .
N2 N 0.3116(2) 0.26615(19) 0.75247(18) 0.0431(8) Uani 1 1 d . . .
O1 O 0.10011(14) 0.01430(14) 0.63600(13) 0.0322(5) Uani 1 1 d . . .
O2 O 0.13961(18) -0.06918(16) 0.65998(17) 0.0504(8) Uani 1 1 d . . .
O3 O 0.40030(16) 0.26078(16) 0.88080(14) 0.0383(6) Uani 1 1 d . . .
O4 O 0.47875(14) 0.22720(14) 0.82871(13) 0.0320(5) Uani 1 1 d . . .
S1 S 0.24743(8) 0.26554(6) 0.70089(7) 0.0541(3) Uani 1 1 d . . .
S2 S 0.0000 0.0000 0.5000 0.0203(4) Uani 1 6 d S T P
C1 C 0.1482(2) -0.0026(2) 0.66480(19) 0.0317(7) Uani 1 1 d . . .
C2 C 0.2160(2) 0.0589(2) 0.70618(18) 0.0293(7) Uani 1 1 d . . .
C3 C 0.2601(2) 0.0365(2) 0.7445(2) 0.0392(9) Uani 1 1 d . . .
H3 H 0.2472 -0.0158 0.7436 0.047 Uiso 1 1 calc R . .
C4 C 0.3248(2) 0.0900(2) 0.7858(2) 0.0392(9) Uani 1 1 d . . .
H4 H 0.3539 0.0721 0.8097 0.047 Uiso 1 1 calc R . .
C5 C 0.3452(2) 0.1669(2) 0.79102(18) 0.0288(7) Uani 1 1 d . . .
C6 C 0.3003(2) 0.1927(2) 0.75348(18) 0.0289(7) Uani 1 1 d . . .
C7 C 0.23661(19) 0.13901(19) 0.71028(17) 0.0266(7) Uani 1 1 d . . .
C8 C 0.41227(19) 0.22252(19) 0.83619(18) 0.0281(7) Uani 1 1 d . . .
O5 O 0.2418(6) -0.1388(6) 0.6477(6) 0.255(5) Uani 1 1 d . . .
H5A H 0.2116 -0.1198 0.6516 0.306 Uiso 1 1 d R . .
H5B H 0.2768 -0.1266 0.6787 0.306 Uiso 1 1 d R . .
O6 O 0.2400(6) 0.2099(9) 0.9173(6) 0.160(6) Uani 0.5 1 d . . .
loop_
_atom_site_aniso_label
_atom_site_aniso_U_11
_atom_site_aniso_U_22
_atom_site_aniso_U_33
_atom_site_aniso_U_23
_atom_site_aniso_U_13
_atom_site_aniso_U_12
Cd1 0.02389(14) 0.02677(14) 0.02736(16) 0.00206(9) 0.00006(9) 0.01395(10)
N1 0.0431(18) 0.0319(16) 0.0392(17) -0.0041(13) -0.0144(14) 0.0214(14)
N2 0.047(2) 0.0321(16) 0.050(2) -0.0084(15) -0.0145(16) 0.0202(15)
O1 0.0278(12) 0.0281(12) 0.0364(14) -0.0006(10) -0.0098(10) 0.0109(10)
O2 0.0464(17) 0.0280(14) 0.072(2) -0.0107(14) -0.0244(15) 0.0151(13)
O3 0.0367(14) 0.0396(14) 0.0427(15) -0.0133(12) -0.0081(12) 0.0223(12)
O4 0.0231(11) 0.0347(13) 0.0347(13) -0.0045(10) -0.0040(10) 0.0118(10)
S1 0.0702(8) 0.0352(5) 0.0642(7) -0.0118(5) -0.0319(6) 0.0320(5)
S2 0.0188(5) 0.0188(5) 0.0234(9) 0.000 0.000 0.0094(2)
C1 0.0272(17) 0.0298(17) 0.0314(18) 0.0003(14) -0.0051(14) 0.0093(14)
C2 0.0284(16) 0.0301(17) 0.0312(18) -0.0022(14) -0.0065(14) 0.0161(14)
C3 0.0356(19) 0.0279(18) 0.055(2) -0.0080(17) -0.0166(18) 0.0168(16)
C4 0.0341(19) 0.036(2) 0.050(2) -0.0048(17) -0.0162(17) 0.0199(16)
C5 0.0263(16) 0.0304(17) 0.0313(18) -0.0081(14) -0.0075(14) 0.0154(14)
C6 0.0267(16) 0.0260(16) 0.0337(18) -0.0030(14) -0.0033(14) 0.0129(14)
C7 0.0223(15) 0.0270(16) 0.0288(17) -0.0008(13) -0.0018(13) 0.0112(13)
C8 0.0252(16) 0.0224(15) 0.0339(18) -0.0031(13) -0.0036(14) 0.0096(13)
O5 0.253(10) 0.285(13) 0.312(12) -0.098(10) -0.118(9) 0.197(10)
O6 0.071(7) 0.238(16) 0.138(10) -0.082(10) 0.003(6) 0.051(9)
loop_
_atom_type_symbol
_atom_type_description
_atom_type_scat_dispersion_real
_atom_type_scat_dispersion_imag
_atom_type_scat_source
C C 0.0033 0.0016 'International Tables Vol C Tables 4.2.6.8 and 6.1.1.4'
H H 0.0000 0.0000 'International Tables Vol C Tables 4.2.6.8 and 6.1.1.4'
N N 0.0061 0.0033 'International Tables Vol C Tables 4.2.6.8 and 6.1.1.4'
O O 0.0106 0.0060 'International Tables Vol C Tables 4.2.6.8 and 6.1.1.4'
S S 0.1246 0.1234 'International Tables Vol C Tables 4.2.6.8 and 6.1.1.4'
Cd Cd -0.8075 1.2024 'International Tables Vol C Tables 4.2.6.8 and 6.1.1.4'
loop_
_geom_angle_atom_site_label_1
_geom_angle_atom_site_label_2
_geom_angle_atom_site_label_3
_geom_angle
_geom_angle_site_symmetry_1
_geom_angle_site_symmetry_3
N1 Cd1 O1 107.53(10) . 2
N1 Cd1 O2 76.36(10) . 2
N1 Cd1 O3 80.36(10) . 9_554
N1 Cd1 O4 97.05(10) . 13_556
N1 Cd1 S2 150.56(7) . .
O1 Cd1 N1 75.78(9) . .
O1 Cd1 O1 85.85(13) . 2
O1 Cd1 O2 52.66(8) 2 2
O1 Cd1 O2 117.88(10) . 2
O1 Cd1 O3 149.37(8) . 9_554
O1 Cd1 O3 119.91(9) 2 9_554
O1 Cd1 O4 149.83(9) . 9_554
O1 Cd1 O4 149.01(8) 2 13_556
O1 Cd1 O4 82.12(9) . 13_556
O1 Cd1 S2 74.70(6) 2 .
O1 Cd1 S2 75.12(6) . .
O2 Cd1 S2 122.01(6) 2 .
O3 Cd1 O2 73.73(9) 9_554 2
O3 Cd1 S2 124.93(6) 9_554 .
O4 Cd1 N1 133.38(10) 9_554 .
O4 Cd1 O1 90.51(9) 9_554 2
O4 Cd1 O2 82.23(10) 9_554 2
O4 Cd1 O2 155.60(9) 13_556 2
O4 Cd1 O3 53.86(8) 9_554 9_554
O4 Cd1 O3 82.04(9) 13_556 9_554
O4 Cd1 O4 85.88(3) 9_554 13_556
O4 Cd1 S2 75.03(6) 9_554 .
O4 Cd1 S2 74.63(6) 13_556 .
S1 N1 Cd1 122.47(16) . .
C7 N1 Cd1 129.4(2) . .
C7 N1 S1 107.5(2) . .
C6 N2 S1 107.0(3) . .
Cd1 O1 Cd1 120.33(10) . 3
C1 O1 Cd1 134.9(2) . .
C1 O1 Cd1 97.2(2) . 3
C1 O2 Cd1 89.0(2) . 3
C8 O3 Cd1 88.6(2) . 5
Cd1 O4 Cd1 119.70(10) 5 13_556
C8 O4 Cd1 142.3(2) . 13_556
C8 O4 Cd1 95.2(2) . 5
N2 S1 N1 100.17(16) . .
Cd1 S2 Cd1 89.841(12) 10_556 12_556
Cd1 S2 Cd1 89.841(12) 3 .
Cd1 S2 Cd1 89.841(12) 12_556 11_556
Cd1 S2 Cd1 180.0 10_556 .
Cd1 S2 Cd1 180.0 12_556 3
Cd1 S2 Cd1 89.841(12) 10_556 11_556
Cd1 S2 Cd1 90.159(12) 10_556 3
Cd1 S2 Cd1 180.0 2 11_556
Cd1 S2 Cd1 90.159(12) 11_556 .
Cd1 S2 Cd1 89.841(11) 3 2
Cd1 S2 Cd1 90.159(12) 3 11_556
Cd1 S2 Cd1 89.841(11) 2 .
Cd1 S2 Cd1 90.159(12) 12_556 2
Cd1 S2 Cd1 90.159(12) 10_556 2
Cd1 S2 Cd1 90.159(12) 12_556 .
O1 C1 C2 119.7(3) . .
O2 C1 O1 121.1(3) . .
O2 C1 C2 119.2(3) . .
C3 C2 C1 118.5(3) . .
C3 C2 C7 116.8(3) . .
C7 C2 C1 124.7(3) . .
C2 C3 H3 118.6 . .
C2 C3 C4 122.8(3) . .
C4 C3 H3 118.6 . .
C3 C4 H4 119.3 . .
C5 C4 C3 121.4(3) . .
C5 C4 H4 119.3 . .
C4 C5 C6 118.0(3) . .
C4 C5 C8 121.1(3) . .
C6 C5 C8 120.9(3) . .
N2 C6 C5 126.3(3) . .
N2 C6 C7 113.4(3) . .
C5 C6 C7 120.4(3) . .
N1 C7 C2 127.5(3) . .
N1 C7 C6 111.9(3) . .
C6 C7 C2 120.6(3) . .
O3 C8 O4 122.3(3) . .
O3 C8 C5 118.7(3) . .
O4 C8 C5 118.9(3) . .
H5A O5 H5B 117.3 . .
loop_
_geom_bond_atom_site_label_1
_geom_bond_atom_site_label_2
_geom_bond_distance
_geom_bond_site_symmetry_2
Cd1 N1 2.353(3) .
Cd1 O1 2.331(2) .
Cd1 O1 2.362(2) 2
Cd1 O2 2.558(3) 2
Cd1 O3 2.506(3) 9_554
Cd1 O4 2.346(2) 9_554
Cd1 O4 2.374(2) 13_556
Cd1 S2 2.8825(4) .
N1 S1 1.618(3) .
N1 C7 1.347(4) .
N2 S1 1.604(3) .
N2 C6 1.348(4) .
O1 Cd1 2.361(2) 3
O1 C1 1.277(4) .
O2 Cd1 2.558(3) 3
O2 C1 1.237(4) .
O3 Cd1 2.506(3) 5
O3 C8 1.241(4) .
O4 Cd1 2.375(2) 13_556
O4 Cd1 2.346(2) 5
O4 C8 1.273(4) .
S2 Cd1 2.8825(4) 2
S2 Cd1 2.8825(4) 3
S2 Cd1 2.8825(4) 11_556
S2 Cd1 2.8825(4) 12_556
S2 Cd1 2.8825(4) 10_556
C1 C2 1.506(5) .
C2 C3 1.371(5) .
C2 C7 1.420(5) .
C3 H3 0.9300 .
C3 C4 1.421(5) .
C4 H4 0.9300 .
C4 C5 1.362(5) .
C5 C6 1.418(5) .
C5 C8 1.502(4) .
C6 C7 1.434(5) .
O5 H5A 0.8500 .
O5 H5B 0.8500 .
loop_
_geom_hbond_atom_site_label_D
_geom_hbond_atom_site_label_H
_geom_hbond_atom_site_label_A
_geom_hbond_distance_DH
_geom_hbond_distance_HA
_geom_hbond_distance_DA
_geom_hbond_angle_DHA
O5 H5A O2 0.85 2.11 2.955(9) 178.1
loop_
_geom_torsion_atom_site_label_1
_geom_torsion_atom_site_label_2
_geom_torsion_atom_site_label_3
_geom_torsion_atom_site_label_4
_geom_torsion
_geom_torsion_site_symmetry_1
Cd1 N1 S1 N2 -170.7(2) .
Cd1 N1 C7 C2 -10.1(6) .
Cd1 N1 C7 C6 169.6(2) .
Cd1 O1 C1 O2 -147.8(3) .
Cd1 O1 C1 O2 -0.2(4) 3
Cd1 O1 C1 C2 33.0(5) .
Cd1 O1 C1 C2 -179.3(3) 3
Cd1 O2 C1 O1 0.2(4) 3
Cd1 O2 C1 C2 179.3(3) 3
Cd1 O3 C8 O4 -1.2(3) 5
Cd1 O3 C8 C5 176.9(3) 5
Cd1 O4 C8 O3 -157.6(3) 13_556
Cd1 O4 C8 O3 1.2(4) 5
Cd1 O4 C8 C5 -176.8(3) 5
Cd1 O4 C8 C5 24.4(5) 13_556
N2 C6 C7 N1 1.2(5) .
N2 C6 C7 C2 -179.1(3) .
O1 C1 C2 C3 170.9(4) .
O1 C1 C2 C7 -7.1(6) .
O2 C1 C2 C3 -8.3(6) .
O2 C1 C2 C7 173.7(4) .
S1 N1 C7 C2 178.9(3) .
S1 N1 C7 C6 -1.4(4) .
S1 N2 C6 C5 178.4(3) .
S1 N2 C6 C7 -0.4(4) .
C1 C2 C3 C4 -179.4(4) .
C1 C2 C7 N1 -3.0(6) .
C1 C2 C7 C6 177.3(3) .
C2 C3 C4 C5 2.0(7) .
C3 C2 C7 N1 178.9(4) .
C3 C2 C7 C6 -0.7(5) .
C3 C4 C5 C6 -0.6(6) .
C3 C4 C5 C8 178.3(4) .
C4 C5 C6 N2 179.9(4) .
C4 C5 C6 C7 -1.4(5) .
C4 C5 C8 O3 -125.7(4) .
C4 C5 C8 O4 52.4(5) .
C5 C6 C7 N1 -177.6(3) .
C5 C6 C7 C2 2.1(5) .
C6 N2 S1 N1 -0.4(3) .
C6 C5 C8 O3 53.2(5) .
C6 C5 C8 O4 -128.7(4) .
C7 N1 S1 N2 1.1(3) .
C7 C2 C3 C4 -1.3(6) .
C8 C5 C6 N2 1.0(6) .
C8 C5 C6 C7 179.7(3) .
loop_
_refln_index_h
_refln_index_k
_refln_index_l
_refln_F_squared_meas
_refln_F_squared_sigma
0 0 3 797.23 7.53
0 0 -6 1363.89 13.1
0 0 6 1412.66 13.36
0 0 -9 58.22 2.99
0 0 9 49.71 2.65
0 0 -12 2505.91 48.05
0 0 12 2299.15 43.63
0 0 -15 4.25 1.51
0 0 15 10.41 1.91
0 0 -18 734.72 9.73
1 0 -17 634.93 16.45
0 -1 -17 621.7 17.18
-1 1 -17 636.91 17.19
0 -1 -14 245.56 8.08
-1 1 -14 249.66 7.12
0 1 14 258.7 7.42
-1 0 14 280.77 6.93
1 -1 14 274.11 6.98
1 0 -11 1815.93 25.8
0 -1 -11 1859.13 27.02
-1 1 -11 1800.9 25.79
0 1 11 1776.28 26.79
-1 0 11 1699.53 24.04
1 -1 11 1763.92 25.18
1 0 -8 187.05 6.86
0 -1 -8 194.26 7.75
-1 1 -8 194.08 7.59
-1 0 8 200.22 7.76
0 1 8 203.95 7.8
1 -1 8 199.97 7.55
1 0 -5 630.98 6.21
0 -1 -5 665.5 7.89
-1 0 5 649.41 6.44
0 1 5 670.53 7.6
-1 1 -5 657.8 7.33
1 -1 5 677.5 7.08
-1 0 2 639.21 5.87
0 -1 -2 653.51 6.46
0 1 2 664.4 6.64
1 -1 -1 -0.79 0.4
-1 1 1 -0.93 0.44
1 0 1 -0.82 0.53
1 -1 -1 -0.73 0.42
-1 1 1 -0.94 0.48
1 -1 -4 785.55 8
-1 1 4 826.72 8.14
-1 0 -4 838.4 8.94
1 0 4 802.9 8.17
0 -1 4 834.53 7.67
1 -1 -7 820.69 8.64
-1 1 7 796.23 8.5
-1 0 -7 802.9 8.93
1 0 7 793.75 8.33
0 -1 7 811.4 8.2
1 -1 -10 1129.22 16.77
0 1 -10 1155.07 16.57
-1 0 -10 1137.31 17.81
-1 1 10 1110.39 16.56
1 0 10 1081.29 17.28
0 -1 10 1107.2 16.11
1 -1 -13 936.64 20.27
0 1 -13 950.09 19.9
-1 0 -13 971.5 21.53
-1 1 13 975.59 20.55
1 0 13 972.06 20.66
0 -1 13 983.19 20.05
1 -1 -16 313.84 9.89
0 1 -16 318.2 7.35
-1 0 -16 305.48 9.05
-1 0 -19 49.11 8.13
2 -1 -18 235.47 6.33
-1 -1 -18 240.09 9.54
2 -1 -15 27.64 2.91
-1 2 -15 22.35 3.01
-1 -1 -15 23.6 3.4
-2 1 15 13.2 2.43
1 -2 15 11.59 2.11
2 -1 -12 1308.93 26.44
-1 2 -12 1335.05 25.75
-1 -1 -12 1346 27.35
-2 1 12 1341.95 26.3
1 1 12 1332.79 27.4
1 -2 12 1323.7 25.46
2 -1 -9 0.5 0.78
-1 -1 -9 3.01 1.57
-2 1 9 0.67 0.79
-1 2 -9 1.92 0.84
1 1 9 1.94 0.87
1 -2 9 1.27 0.53
2 -1 -6 53.53 2.98
-2 1 6 57.46 2.37
-1 -1 -6 59.94 5.33
1 1 6 57.24 2.35
1 -2 6 54.84 2.14
-1 2 -3 58.56 1.81
2 -1 -3 60.32 1.63
-2 1 3 55.56 1.59
-1 -1 -3 64.3 2.43
1 1 3 67.23 2.37
1 -2 -3 10.45 2.45
-1 2 3 10.39 2.29
-2 1 -3 9.67 1.82
2 -1 3 8.42 2.14
1 -2 -3 7.78 1.67
-1 2 6 1388.88 13.94
-1 -1 6 1433.5 12.93
-2 1 -6 1389.09 13.63
1 -2 -9 590.61 10
-1 2 9 618.25 9.99
-2 1 -9 622.18 9.66
-1 -1 9 612.53 7.25
2 -1 9 615.95 8.57
1 -2 -12 425.28 11.24
-2 1 -12 431.7 10.43
-1 2 12 408.88 10.94
-1 -1 12 423.03 8.72
2 -1 12 405.92 11.37
1 -2 -15 11.95 2.2
-2 1 -15 5.84 1.59
-1 -1 15 1.14 0.71
2 -1 15 3.15 1.33
1 -2 -18 30.19 5.29
-2 1 -18 36.36 4.73
0 -2 -19 57.51 6.99
2 0 -16 75.79 5.46
0 -2 -16 74.7 10.12
-2 2 -16 68.5 6.61
2 0 -13 344.58 8.5
0 -2 -13 347.71 9.89
-2 2 -13 357.01 10
-2 0 13 359.68 8.25
2 -2 13 348.63 9.84
2 0 -10 124.53 4.3
0 -2 -10 109.77 5.74
-2 2 -10 125.07 4.23
-2 0 10 118.75 4.55
0 2 10 109.58 5.21
2 -2 10 118.44 3.83
2 0 -7 -0.39 0.55
0 -2 -7 1.61 1.85
-2 0 7 1.61 0.41
0 2 7 0.81 1.03
-2 2 -7 0.24 0.82
2 -2 7 3.16 0.91
0 -2 -4 1407.61 13.92
0 2 4 1355.13 13.33
-2 2 -4 1356.9 13.39
2 -2 4 1353.26 12.75
2 -2 1 51.37 1.3
-2 2 -1 53.74 1.32
0 -2 -1 50.57 1.53
0 2 1 51.47 1.69
-2 0 1 51.76 1.18
2 0 -1 51.11 1.36
0 2 1 48.99 1.32
2 -2 -2 386.61 4.28
-2 2 2 378.45 4.26
0 -2 2 387.92 3.96
0 2 -2 386.87 3.98
-2 0 -2 389.03 4.82
2 0 2 391.26 4.7
2 -2 -2 371.98 4.24
-2 2 2 386.53 4.97
2 -2 -5 297.06 5.11
-2 2 5 293.6 4.08
-2 0 -5 279.21 3.92
2 0 5 286.57 4.08
2 -2 -8 11.67 2.32
-2 2 8 10.22 1.96
-2 0 -8 7.81 2.05
2 0 8 10.12 1.55
0 -2 8 8.6 0.82
2 -2 -11 491.29 8.96
-2 0 -11 497.47 11.66
-2 2 11 484.68 9.81
2 0 11 474.81 10.73
0 -2 11 479.89 7.26
2 -2 -14 22.81 4.87
-2 0 -14 25.8 4.02
-2 2 14 17.56 3.12
2 0 14 17.59 3.27
0 -2 14 17.6 2.49
2 -2 -17 65.5 7.6
-2 0 -17 67.32 9.1
-2 -1 -19 117.28 8.65
3 -2 -16 39.69 5.49
-2 -1 -16 45.17 5.04
3 -2 -13 71.01 7.63
-2 -1 -13 70.57 7.28
-3 2 13 63.02 6.51
1 -3 13 64.85 6.2
3 -2 -10 14.74 2.81
-3 2 10 20.47 3.47
-2 -1 -10 21.26 4.55
2 1 10 20.8 3.95
-1 3 -7 0.45 0.38
3 -2 -7 1.23 0.46
-3 2 7 1.12 0.59
-2 -1 -7 -0.53 1.38
2 1 7 0.72 0.6
1 -3 4 63.2 1.69
3 -2 -4 79.03 4.4
-1 3 -4 77.07 1.88
-3 2 4 75.83 2.08
-2 -1 -4 58.13 5
2 1 4 56.95 4.6
3 -2 -4 53.09 6.22
-3 2 1 738.93 7.38
1 -3 1 773.59 7.72
-1 3 -1 776.47 7.77
-2 -1 -1 739.3 7.7
2 1 1 734.31 7.55
1 -3 -2 33.01 2.4
-1 3 2 33.42 2.21
-2 -1 2 33.3 1.92
2 1 -2 37.14 1.91
-3 2 -2 34.79 2.9
3 -2 2 32.52 1.73
-1 3 2 30.93 1.43
-2 -1 5 3598.4 32.04
1 -3 -5 3498.02 32.38
-1 3 5 3507.62 32.31
-3 2 -5 3387.88 31.37
-2 -1 5 3462.09 30.89
3 -2 5 3523.82 32.13
1 -3 -5 3505.77 32.62
1 -3 -8 450.21 7.14
-1 3 8 449.67 6.92
-2 -1 8 445.62 5.25
-3 2 -8 434.45 6.22
3 -2 8 444.05 6.31
1 -3 -11 35.09 2.98
-1 3 11 31.15 3.81
-3 2 -11 38 5.34
-2 -1 11 28.36 2.18
3 -2 11 30.54 3.55
1 -3 -14 31.27 4.47
-3 2 -14 28.63 4.68
-2 -1 14 22.35 2.48
3 -2 14 19.82 2.9
1 -3 -17 22.02 3.32
-3 2 -17 22.57 3.01
1 -3 -20 4.3 2.16
3 -1 -17 2.06 1
-2 3 -17 3.2 1.19
-1 -2 -17 5.8 3.05
3 -1 -14 46.12 3.6
-1 -2 -14 43.24 4.81
-2 3 -14 46.56 4.33
-3 1 14 46.16 2.76
2 -3 14 38.58 4.05
3 -1 -11 1.57 1.28
-1 -2 -11 5.42 2.48
-3 1 11 5.52 0.93
-2 3 -11 5.08 1.03
1 2 11 7.83 2.05
2 -3 11 8.66 1.31
3 -1 -8 71.44 3.96
-3 1 8 67.5 3.41
-1 -2 -8 59.99 3.58
1 2 8 55.98 3.3
-2 3 -8 62.19 3.61
2 -3 8 56.3 2.54
-2 3 -5 331.9 3.87
3 -1 -5 332.57 4.32
-1 -2 -5 324.83 5.32
1 2 5 332.09 4.72
-2 3 -5 337.37 4.4
3 -1 -2 1122.95 11.14
-3 1 2 1127.06 11
2 -3 2 1125.85 10.83
-2 3 -2 1141.83 10.85
-1 -2 -2 1134.13 11.28
1 2 2 1160.8 11.66
3 -1 -2 1163.53 11.03
-1 -2 -2 1143.03 11.02
-2 3 1 472.76 6.27
-1 -2 1 453.98 4.7
1 2 -1 466.27 5.33
-3 1 -1 462.94 5.01
3 -1 1 478.3 6.03
2 -3 -4 1288.48 12.92
-2 3 4 1267.02 12.57
-1 -2 4 1255.34 11.28
-3 1 -4 1303.46 13.59
3 -1 4 1310.06 12.87
2 -3 -4 1256.22 12.97
2 -3 -7 96.95 5.66
-2 3 7 83.44 4.32
-3 1 -7 84.61 5.51
3 -1 7 82.28 4.16
2 -3 -10 97.31 5.99
-2 3 10 105.48 5.32
-3 1 -10 104 4.19
3 -1 10 100.63 3.73
1 2 -13 12.67 1.74
2 -3 -13 19.87 3.79
-3 1 -13 21.29 3.18
-2 3 13 14.79 3.34
3 -1 13 16.49 3.91
2 -3 -16 57.62 9.51
-3 1 -16 68.32 8.57
2 -3 -19 28.89 6.24
-3 1 -19 21.71 4.27
2 -3 -25 13.21 3.61
0 -3 -24 5.4 2.39
0 -3 -18 18.43 3.45
-3 3 -18 14.36 2.98
0 -3 -15 83.7 8.05
-3 3 -15 82.87 5.91
-3 0 15 76.31 4.24
3 -3 15 76.94 4.44
3 0 -12 41.29 3.11
0 -3 -12 54.14 5.55
-3 3 -12 56.33 4.74
-3 0 12 45.82 3.22
3 -3 12 46.9 3.33
3 0 -9 24.63 2.6
0 -3 -9 24.33 5.48
-3 0 9 26.71 2.84
0 3 9 22.92 4.27
-3 3 -9 21.98 3.04
3 -3 9 20.44 3.26
3 0 -6 119.61 2.84
-3 0 6 117.14 2.29
0 -3 -6 121.11 4.2
0 3 6 124.27 3.13
-3 3 -6 114.73 4.04
3 -3 6 116.18 3.42
-3 0 3 1179.46 11.19
-3 3 -3 1171.04 11.38
0 -3 -3 1172.7 12.01
0 3 3 1173.36 12.4
-3 0 3 1138.46 10.96
-3 3 -3 1136.88 11.19
0 -3 -3 1119.89 11.33
0 3 3 1111 12.04
3 -3 0 333.38 4.04
-3 3 0 325.25 4.86
0 -3 0 325.58 4.15
0 3 0 323.43 4.57
-3 0 0 322.79 3.95
3 0 0 326.39 4.83
3 -3 -3 730.87 8.75
-3 3 3 724.8 7.95
0 -3 3 758.43 7.54
0 3 -3 741.99 7.31
-3 0 -3 734.52 8.88
3 0 3 731.29 7.94
3 -3 -3 748.98 8.35
-3 3 3 733.73 8.12
3 -3 -6 3.32 1.5
-3 3 6 5.33 0.95
-3 0 -6 3.16 1.5
3 0 6 3.14 1.25
3 -3 -6 4.5 1.86
3 -3 -9 88.46 4.2
-3 3 9 81.51 3.71
-3 0 -9 74.5 5.12
3 0 9 78.56 3.82
3 -3 -12 32.39 4.72
-3 3 12 20.49 3.93
-3 0 -12 22.16 3.3
3 -3 -15 1.11 1.37
-3 0 -15 0.71 2.08
3 -3 -18 0.89 0.98
-3 0 -18 1.79 1.29
3 -3 -24 5.58 2.83
4 -3 -23 21.66 5.95
-3 -1 -20 1.31 1.44
4 -3 -17 102.4 8.17
-3 -1 -17 132.74 10.77
4 -3 -14 94.21 7.98
-3 -1 -14 70.44 6.35
-4 3 14 57.43 5.43
-1 4 -11 72.2 2.96
4 -3 -11 86.46 6.98
-1 4 -11 76.7 2.97
-4 3 11 75.78 5.71
-3 -1 -11 77.66 8.08
4 -3 -8 566.22 7.88
-1 4 -8 565.35 6.1
-4 3 8 573.97 7.81
-3 -1 -8 574.65 9.8
3 1 8 548.34 7.41
4 -3 -8 560.71 9.89
1 -4 5 375.97 4.25
4 -3 -5 376.8 5.59
-4 3 5 387.13 5.89
-1 4 -5 392.72 4.61
-3 -1 -5 401.26 6.04
3 1 5 411.88 5.79
4 -3 -5 398.58 6.94
4 -3 -2 1.64 0.78
-4 3 2 4.77 1.54
1 -4 2 4.73 1.4
-1 4 -2 2.72 1.05
-3 -1 -2 4.36 2.28
3 1 2 1.56 2.02
4 -3 1 226.1 5.33
-4 3 -1 221.02 4.22
1 -4 -1 225.37 3.47
-1 4 1 231.26 3.5
-3 -1 1 225.05 3.65
3 1 -1 226.17 3.3
1 -4 -4 609.8 9.62
-1 4 4 615.8 7.34
-3 -1 4 600.83 6.95
-4 3 -4 604.37 8.49
3 1 -4 607.49 6.13
4 -3 4 607.09 6.72
1 -4 -4 620.15 7.9
-1 4 4 603.8 7.06
-3 -1 7 44.71 2.41
1 -4 -7 43.28 4.48
-1 4 7 44.5 4.19
-4 3 -7 42.46 3.83
-3 -1 7 41.22 2.16
4 -3 7 42.11 3.73
1 -4 -7 38.77 8.68
1 -4 -10 12.66 1.91
-3 -1 10 11.33 1.4
-4 3 -10 16.97 2.52
4 -3 10 18.58 3.1
-3 -1 10 15.13 1.49
1 -4 -13 294.75 10.16
-4 3 -13 332.93 9.83
-3 -1 13 350.27 7.05
4 -3 13 316.75 8.34
1 -4 -16 0.95 1.25
-4 3 -16 0.3 1.04
1 -4 -19 50.87 7.41
1 -4 -22 6.32 3.98
1 -4 -25 6.53 3.71
4 -2 -24 5.65 3.31
4 -2 -18 17.56 3.32
-2 -2 -18 31.53 4.43
-2 4 -15 539.59 13.85
4 -2 -15 506.85 15.24
-2 -2 -15 533.63 18.13
-4 2 15 506.12 14.28
-2 4 -12 31.21 2.7
4 -2 -12 27.05 3.55
-2 -2 -12 39.11 4.19
-4 2 12 34.49 3.76
-2 4 -12 35.81 3
-2 4 -9 1802.27 25.1
4 -2 -9 1801.02 25.81
-4 2 9 1749.4 25.58
-2 -2 -9 1754.37 27.5
2 2 9 1796.35 26.96
-2 4 -9 1811.58 25.16
4 -2 -6 198.13 3.88
-2 -2 -6 211.64 3.98
4 -2 -6 211.34 3.96
2 -4 3 6336.34 216.62
-2 -2 -3 6563.15 224.55
2 2 3 6577.54 225.05
4 -2 -3 6401.71 218.92
-4 2 3 6556.29 224.21
-4 2 0 288.41 3.85
2 -4 0 284.21 5.49
-2 4 0 304.98 3.83
-2 -2 0 280.64 5.84
2 2 0 287.88 4.89
-4 2 0 297.17 4.02
2 -4 -3 350.59 4.79
-2 4 3 361.23 5.75
-2 -2 3 352.95 4.26
2 2 -3 362.79 4.27
-4 2 -3 358.82 5.16
4 -2 3 355.36 5.12
-2 4 3 354.62 4.88
2 -4 -6 229.83 3.96
-2 4 6 236.02 5.56
-2 -2 6 227.91 2.5
-4 2 -6 228.84 4.26
4 -2 6 231.83 4.27
2 -4 -6 238.67 5.58
2 -4 -9 1224.12 20.72
-2 4 9 1292.11 19.8
-4 2 -9 1278.15 19.52
4 -2 9 1273.08 18.88
2 -4 -9 1216.79 20
2 -4 -12 612.8 15.49
-4 2 -12 592.64 14.4
4 -2 12 584.62 12.52
2 -4 -15 228.74 10.67
-4 2 -15 234.49 9.66
2 -4 -18 137.62 7.3
-4 2 -18 147.04 9.48
2 -4 -21 229.62 12.92
2 -4 -24 54.89 11.11
-1 -3 -25 14.41 6.38
-1 -3 -19 28.8 6.52
4 -1 -16 432.17 8.23
-1 -3 -16 433.12 10.67
-3 4 -16 479.13 9.62
4 -1 -13 81.26 7.63
-1 -3 -13 89.25 8.24
-4 1 13 70.19 7.14
-3 4 -13 75.97 7.97
4 -1 -10 2139.11 29.94
-4 1 10 2014.55 28.05
-1 -3 -10 2106.75 32.05
-3 4 -10 2166.24 31.18
-3 4 -7 24.45 2.49
4 -1 -7 23.29 2.37
-4 1 7 23.74 2.56
-1 -3 -7 15.86 3.2
1 3 7 18.89 3.72
-3 4 -7 16.58 2.25
4 -1 -4 5572.7 50.26
-3 4 -4 5721.33 195.66
-4 1 4 5651.74 50.79
-1 -3 -4 5840.9 199.96
1 3 4 5920.14 202.65
-1 -3 -4 5488.05 50.33
4 -1 -4 5690.1 194.59
3 -4 1 5.58 2.62
-3 4 -1 9.62 1.98
-1 -3 -1 11.16 2.33
1 3 1 13.46 2.54
-4 1 1 11.58 3.5
4 -1 -1 13.97 2.54
1 3 1 13.11 2.09
3 -4 -2 2536.29 23.78
-3 4 2 2563.53 23.94
-1 -3 2 2487.43 23.07
1 3 -2 2472.08 22.75
-4 1 -2 2592.38 24.23
4 -1 2 2599.99 24.18
3 -4 -5 0.58 1.07
-1 -3 5 1.31 0.52
-3 4 5 8.11 1.77
-4 1 -5 2.9 2.01
1 3 -5 3.86 0.66
4 -1 5 1.13 0.85
3 -4 -5 5.67 3.55
-3 4 5 7.64 1.45
3 -4 -8 1778.92 20.74
-3 4 8 1883.62 20.92
-4 1 -8 1850.91 21.71
4 -1 8 1922.44 22.06
3 -4 -8 1911.3 22.74
3 -4 -11 7.85 1.4
-3 4 11 3.68 1.13
-4 1 -11 4.92 2.14
4 -1 11 0.32 0.99
3 -4 -11 4.1 2.01
3 -4 -14 984.22 23.55
-4 1 -14 1051.59 22.48
3 -4 -17 55.57 7.72
-4 1 -17 49.63 7.85
3 -4 -20 423.15 13.95
3 -4 -23 22.25 6.05
0 -4 -23 84.02 12.41
0 -4 -20 6.33 3.05
0 -4 -17 32.69 5.56
-4 4 -17 35.89 5.72
0 -4 -14 40.73 7.8
-4 4 -14 32.41 5.75
-4 0 14 30.77 3.1
4 -4 14 24.05 3.82
4 0 -11 511.59 10.41
0 -4 -11 500.15 12.76
-4 0 11 511.34 10.83
-4 4 -11 520 11.57
4 -4 11 511.19 12.07
-4 0 8 122.71 4.85
0 -4 -8 130.1 8.6
0 4 8 111.56 4.87
-4 4 -8 113.53 5.64
4 -4 8 119.14 5.37
0 -4 -8 118.48 7.19
-4 4 -5 2419.46 22.7
-4 0 5 2456.97 22.82
0 -4 -5 2480.32 24.51
0 4 5 2498.73 24.52
-4 4 -5 2516.83 23.71
-4 0 5 2515.15 23.16
0 -4 -5 2551.35 24.44
4 -4 2 402.11 5.43
-4 4 -2 402.57 5.56
0 -4 -2 401.39 5.25
4 0 -2 419.55 5.33
4 -4 -1 1692.43 16.99
-4 4 1 1646.63 16.41
0 -4 1 1741.39 16.53
0 4 -1 1730.98 16.69
-4 0 -1 1611.15 16.34
4 0 1 1629.73 15.94
4 -4 -4 46.99 3.04
-4 4 4 49.31 2.25
0 -4 4 52.47 2.58
0 4 -4 40.36 1.7
-4 0 -4 46.44 6.12
4 0 4 38.35 2.27
-4 4 4 33.7 2.78
4 -4 -7 125.69 5.24
-4 4 7 149.6 5.94
-4 0 -7 149.87 8.05
4 0 7 141.39 5.96
4 -4 -7 148.54 7.43
4 -4 -10 81.26 3.89
-4 4 10 98.02 4.44
-4 0 -10 94.25 4.44
4 -4 -10 96.06 6.72
4 -4 -13 740.76 19.34
-4 0 -13 782.29 19.98
4 -4 -13 765.91 23.03
4 -4 -16 113.3 8.08
-4 0 -16 100.27 10.14
4 -4 -16 106.59 13.98
4 -4 -19 204.39 11.24
-4 0 -19 210.3 14.89
4 -4 -19 201.95 12.71
4 -4 -22 9.12 4.82
4 -4 -25 17.29 3.79
5 -4 -24 4.7 4.02
5 -4 -21 5.32 3.37
5 -4 -18 107.73 7.82
-4 -1 -18 107.86 12.59
5 -4 -18 128.22 16.67
5 -4 -15 272.08 10.2
-4 -1 -15 252.23 16.22
5 -4 -15 241.67 16.04
5 -4 -12 277.62 7.74
-5 4 12 269.26 8.73
-4 -1 -12 267.84 7.86
5 -4 -12 272.79 13.02
5 -4 -9 120.23 5.22
-5 4 9 133.21 4.86
-1 5 -9 122.98 3.27
-4 -1 -9 127.77 6.24
-1 5 -9 124.71 3.37
5 -4 -9 119.85 4.49
1 -5 6 321.1 4.08
5 -4 -6 319.69 5.32
-5 4 6 329.06 5.61
-1 5 -6 350.43 5.14
-4 -1 -6 355.26 5.65
4 1 6 346.66 7.97
5 -4 -3 198.92 4.19
-5 4 3 204.76 5.15
1 -5 3 208.13 4.54
-1 5 -3 201.71 3.05
-4 -1 -3 179.83 4.45
4 1 3 189.88 3.54
-5 4 3 198.56 3.71
5 -4 0 13.31 2.73
-5 4 0 14.83 3.13
1 -5 0 19.02 2.56
-1 5 0 19.42 4.33
-4 -1 0 15.93 3.09
4 1 0 16.57 3.38
-5 4 -3 174.54 4.5
1 -5 -3 174.48 4.33
-1 5 3 177.09 3.51
-4 -1 3 178.1 3.13
4 1 -3 180.2 3.37
-5 4 -3 176.48 3.54
-1 5 3 177.34 3.25
-4 -1 6 366.77 4.71
1 -5 -6 375.92 6.63
-1 5 6 363.53 5.74
-4 -1 6 362.19 4.77
-5 4 -6 375.39 7.41
5 -4 6 368.34 5.37
1 -5 -6 363.51 7.05
-4 -1 9 240.41 6.31
1 -5 -9 257.93 10.52
-5 4 -9 257.57 7.39
-4 -1 9 252.02 6.74
5 -4 9 260.4 8.76
1 -5 -9 244.16 7.62
1 -5 -12 605.17 14.33
-4 -1 12 624.39 12.39
-5 4 -12 630.95 15.76
5 -4 12 608.84 14.21
1 -5 -12 630.47 20.97
1 -5 -15 -0.03 1.77
-5 4 -15 3.12 2.07
1 -5 -15 1.46 1.6
1 -5 -18 54.53 9.31
-5 4 -18 50.13 7.84
1 -5 -18 78.08 10.97
1 -5 -21 4.2 1.82
1 -5 -21 19.54 4.22
1 -5 -24 7.69 5.33
5 -3 -22 110.34 20.37
-3 -2 -19 3.1 2.06
5 -3 -19 2.61 1.85
5 -3 -16 494.49 10.67
-3 -2 -16 489.53 13.66
5 -3 -13 138.2 7.06
-2 5 -13 135.15 4.28
-5 3 13 99.18 9.77
-3 -2 -13 104.35 9.73
5 -3 -10 848.72 15.63
-2 5 -10 858.17 12.35
-5 3 10 871.49 13.56
-3 -2 -10 873.29 18.27
5 -3 -10 866.71 18.97
5 -3 -7 129.58 6.77
-5 3 7 128.38 6.71
-3 -2 -7 106.74 8.12
3 2 7 103.6 7.45
-2 5 -7 99.58 4.6
5 -3 -7 102.57 5.53
5 -3 -4 9307.62 318.25
2 -5 4 9041.19 309.03
-5 3 4 9147.28 312.74
3 2 4 9999.99 342.3
-5 3 4 9780.87 334.38
5 -3 -1 487.84 7.24
-5 3 1 483.35 5.9
2 -5 1 496.55 6.16
-2 5 -1 471.1 5.75
-3 -2 -1 462.13 6.54
3 2 1 458.76 6.28
-3 -2 -1 459.88 5.58
2 -5 -2 163.41 3.67
-2 5 2 183.69 5.34
-3 -2 2 179.46 3.13
3 2 -2 176.28 3.02
-5 3 -2 181.62 3.88
5 -3 2 187.47 5.41
2 -5 -5 84.11 4.32
-2 5 5 74.27 2.47
-3 -2 5 70.17 2.46
-5 3 -5 69.97 2.78
3 2 -5 65.32 2.04
5 -3 5 67.03 2.63
2 -5 -5 73.3 3.65
-2 5 5 64.52 3
2 -5 -8 2420.21 28.27
2 -5 -11 136.57 6.44
-5 3 -11 114.33 5.54
5 -3 11 110.06 6.81
2 -5 -11 99.58 8.58
2 -5 -14 569.87 14.39
-5 3 -14 625.37 16.02
2 -5 -14 622.32 17.5
2 -5 -17 185.17 12.96
-5 3 -17 137.5 6.89
2 -5 -17 134.34 8.28
2 -5 -20 451.61 13.89
2 -5 -20 478.44 20.44
2 -5 -23 13.51 5.58
5 -2 -23 21.68 5.37
-2 -3 -20 323.23 11.09
5 -2 -17 448.42 12.66
-2 -3 -17 462.54 16.86
-3 5 -14 1498.96 28.43
5 -2 -14 1507.24 30.27
-5 2 14 1464.63 28.25
-3 5 -14 1513.13 28.55
-3 5 -11 1393.54 26.89
5 -2 -11 1346.15 26.57
-5 2 11 1377.73 27.12
-2 -3 -11 1436.22 29.84
-3 5 -11 1472.9 28.18
5 -2 -8 1028.06 12.34
-3 5 -8 1030.51 11.57
-5 2 8 1004.81 11.39
-2 -3 -8 979.2 15.3
-3 5 -8 976.42 11.74
3 -5 5 4903.63 44.3
5 -2 -5 4933 44.96
-3 5 -5 4853.38 43.97
-5 2 5 4820.13 43.68
-2 -3 -5 5055.42 47.81
2 3 5 5027.47 46.56
5 -2 -5 5015.65 45.73
-5 2 2 692.51 7.53
3 -5 2 715.3 7.72
-2 -3 -2 672.89 7.91
2 3 2 668.7 7.5
-5 2 2 694.94 8.49
-5 2 2 706.37 7.47
2 3 2 696.24 7.24
3 -5 -1 1457.46 14.56
-3 5 1 1410.18 14.3
-2 -3 1 1436.91 13.91
2 3 -1 1448.04 13.84
5 -2 1 1437.31 14.13
-3 5 4 1462.2 14.73
-2 -3 4 1525.49 14.4
2 3 -4 1528.57 14.26
-5 2 -4 1520.68 16.33
5 -2 4 1559.45 16.19
-3 5 4 1513.52 15.48
3 -5 -7 6374.98 154.33
-3 5 7 6292.55 66.29
-5 2 -7 6262.78 64.73
5 -2 7 6372.63 154.17
3 -5 -7 6335.35 153.44
3 -5 -10 396.6 8.05
-5 2 -10 416.71 8.78
5 -2 10 415.11 10.09
3 -5 -10 432.59 10.99
3 -5 -13 1810.16 51.29
-5 2 -13 1809.78 49.47
3 -5 -13 1732.28 39.62
3 -5 -16 2.67 2.05
-5 2 -16 6.29 1.98
3 -5 -16 -1.75 2.74
3 -5 -19 829.49 13.76
-5 2 -19 781.29 14.56
3 -5 -19 740.6 17.59
3 -5 -22 6.62 3.89
-1 -4 -24 4.6 3.48
5 -1 -24 1.98 1.9
-1 -4 -18 40.34 6.7
-4 5 -15 817.55 21.9
5 -1 -15 815.26 21.71
-1 -4 -15 798.81 24.52
-4 5 -15 810.16 22.28
-4 5 -12 2.31 1.18
5 -1 -12 3.68 1.27
-1 -4 -12 0.24 1.13
-5 1 12 1.7 1.08
-4 5 -12 1.6 1.05
5 -1 -9 2151.02 30.22
-4 5 -9 2276.84 32.31
-5 1 9 2181.71 30.87
-1 -4 -9 2199.15 32.27
-4 5 -9 2179.17 30.78
-4 5 -6 229.59 8.63
-5 1 6 226.9 8.33
-1 -4 -6 237.55 9
1 4 6 240.72 10.72
-4 5 -6 229.73 8.83
-5 1 6 234.36 8.64
-1 -4 -6 219.52 9.5
-5 1 3 442.3 5.29
4 -5 3 454.12 5.88
-4 5 -3 468.09 5.51
-1 -4 -3 455.11 6.18
1 4 3 454.03 6.18
-5 1 3 431.03 5.16
-1 -4 -3 429.02 6.27
5 -1 -3 437.93 5.59
1 4 3 446.89 5.54
4 -5 0 579.54 6.7
-4 5 0 541.63 6.24
-1 -4 0 550.99 6.62
1 4 0 573.68 6.57
-5 1 0 553.04 8.17
5 -1 0 550.85 7.68
4 -5 -3 1769.06 17.47
-1 -4 3 1815.46 17.49
1 4 -3 1787.43 17.09
-5 1 -3 1806.42 18.82
5 -1 3 1860.92 18.09
-4 5 3 1801.08 17.67
4 -5 -6 2099.56 23.6
-4 5 6 1972.74 21.49
1 4 -6 1973.22 19.96
-5 1 -6 2037.45 22.83
5 -1 6 1989.8 22.3
4 -5 -6 2029.5 23.27
-4 5 6 1942.57 21.64
4 -5 -9 1379.29 23.81
-4 5 9 1445.36 21.91
-5 1 -9 1465.57 23.54
4 -5 -9 1466.53 22.97
-5 1 -12 321.52 10.74
4 -5 -12 310.58 8.68
4 -5 -15 346.1 13.83
-5 1 -15 406.57 19.27
4 -5 -15 416.23 15.12
4 -5 -18 379.43 16.48
-5 1 -18 350.72 16.11
4 -5 -18 348.32 15.16
4 -5 -21 83.2 14.54
4 -5 -24 78.04 10.88
0 -5 -22 86.81 11.14
0 -5 -19 17.33 2.98
0 -5 -19 9.42 3.45
0 -5 -16 155.63 6.48
-5 5 -16 148.53 7.33
0 -5 -16 165.01 6.69
0 -5 -13 6.21 3.07
-5 0 13 5.26 1
-5 5 -13 6.33 2.94
-5 0 13 6.54 0.91
0 -5 -13 6.59 3.16
-5 5 -10 176 7.53
-5 0 10 176.41 7
0 -5 -10 167.55 9
-5 5 -10 183.8 7.57
-5 0 10 182.12 7.62
0 -5 -10 173.99 9.47
-5 5 -7 32.26 4.98
0 -5 -7 34.68 7.56
-5 5 -7 38.24 4.43
-5 0 7 38.49 2.13
0 -5 -7 38.67 8.25
-5 5 -4 135.71 3.46
0 -5 -4 126.28 3.66
0 5 4 130.07 4.89
-5 0 4 118.77 3.08
-5 5 -4 116.06 3.63
0 -5 -4 117.1 5.1
0 5 4 118.65 3.57
5 -5 1 159.85 3.22
-5 5 -1 157.58 3.78
0 -5 -1 159.63 3.47
0 5 1 150.33 3.3
-5 0 1 149.17 3.83
5 0 -1 152.92 2.86
5 -5 -2 1389.81 14.29
-5 5 2 1500.93 14.88
0 -5 2 1497.32 14.4
0 5 -2 1465.02 14.22
-5 0 -2 1408.01 15.14
5 -5 -5 454.96 7.43
-5 5 5 462.23 6.8
0 5 -5 432.57 5.94
-5 0 -5 449.6 8.16
5 0 5 440.02 6.33
-5 5 5 436.01 7.49
5 -5 -8 361.03 14.67
-5 5 8 355.76 13.78
-5 0 -8 352.16 10.29
5 -5 -8 352.1 10.21
5 -5 -11 106.65 5.17
-5 0 -11 92.48 8.84
5 -5 -11 82.3 8.62
5 -5 -14 165.9 9.63
-5 0 -14 159.04 7.59
5 -5 -14 146.83 6.83
5 -5 -17 111.74 9.22
-5 0 -17 77.58 11.17
5 -5 -17 91.08 15.53
-5 0 -20 32.76 5.88
5 -5 -20 38.59 7.61
5 -5 -23 3.51 2.57
6 -5 -22 1.74 1.69
6 -5 -19 5.75 3.13
-5 -1 -19 2.65 2.32
6 -5 -19 5.7 2.66
6 -5 -16 12.47 1.89
-5 -1 -16 15.9 2.65
6 -5 -16 15.64 3.92
6 -5 -13 9.02 1.75
-5 -1 -13 4.49 2.56
6 -5 -13 10.25 2.05
6 -5 -10 90.13 4.58
-5 -1 -10 84.47 4.83
6 -5 -10 92.84 8.62
1 -6 7 2.48 0.61
6 -5 -7 2.66 2.1
-6 5 7 -1.01 1.21
-1 6 -7 1.83 0.91
-5 -1 -7 2.8 1.62
6 -5 -7 3.42 2.5
6 -5 -4 4.33 2.17
-6 5 4 6.13 1.58
1 -6 4 6.95 1.48
-1 6 -4 9.55 1.89
-5 -1 -4 16.42 3.76
5 1 4 8.55 2.09
-6 5 4 9.78 1.87
6 -5 -1 233.3 7.27
-6 5 1 228.53 3.81
1 -6 1 228.13 3.94
-1 6 -1 248.19 4.48
-5 -1 -1 231.38 5.41
5 1 1 256.75 5.43
6 -5 2 3.98 1.81
-6 5 -2 5.43 1.54
1 -6 -2 10.55 2.12
-1 6 2 14.21 2.9
-5 -1 2 6.34 2.35
5 1 -2 10.02 1.82
-6 5 -5 3.57 1.39
1 -6 -5 -0.88 1.84
-1 6 5 -0.03 1.42
-5 -1 5 1.76 0.74
-6 5 -5 0.84 1.3
5 1 -5 1.2 0.92
1 -6 -5 2.71 1.82
-1 6 5 1.21 0.75
-5 -1 8 1.17 0.63
1 -6 -8 1.46 1.32
-6 5 -8 1.68 1.99
-5 -1 8 -0.02 0.48
1 -6 -8 3.62 2.51
1 -6 -11 1.96 1.94
-6 5 -11 0.3 1.3
-5 -1 11 -0.12 0.46
6 -5 11 0 0.95
1 -6 -11 2 1.97
1 -6 -14 15.68 3.46
-6 5 -14 11.22 1.99
1 -6 -14 14.94 3.15
1 -6 -17 1.32 1.29
-6 5 -17 2.69 1.44
1 -6 -17 8.12 4.32
1 -6 -20 8.68 2.82
1 -6 -20 13.55 3.26
1 -6 -23 3.24 2.33
6 -4 -23 15.96 3.5
-4 -2 -20 55.72 10.74
6 -4 -20 57.63 9.95
6 -4 -17 101.34 8.46
-4 -2 -17 104.8 8.87
6 -4 -17 123.57 8.69
6 -4 -14 286.37 9.88
-4 -2 -14 269.94 11.44
6 -4 -14 262.14 9.32
6 -4 -11 77.31 4.57
-2 6 -11 85.53 3.6
-6 4 11 90.92 6.18
-4 -2 -11 88.78 8.03
6 -4 -11 92.22 4.95
6 -4 -8 169.53 7.22
-2 6 -8 187.97 5.59
-6 4 8 179.57 5.75
-4 -2 -8 161.14 7.89
-2 6 -8 165.58 5.06
6 -4 -8 158.48 6.18
6 -4 -5 1779.57 20.58
2 -6 5 1716.38 18.26
-6 4 5 1831.57 19.77
-2 6 -5 1826.42 19.34
-4 -2 -5 1737.88 20.53
4 2 5 1785.61 21.53
-6 4 5 1826.08 20.09
6 -4 -2 1412.05 14.53
-6 4 2 1390.34 13.97
2 -6 2 1432.83 14.37
-2 6 -2 1436.93 14.12
-4 -2 -2 1443.4 15.88
4 2 2 1449.77 14.76
-4 -2 -2 1416.54 13.54
-6 4 -1 393.14 5.7
2 -6 -1 397.81 7.46
-2 6 1 392.8 5.23
-4 -2 1 375.35 7.7
4 2 -1 382.29 6.66
-6 4 -1 374.15 6.67
2 -6 -4 69.72 4.8
-2 6 4 79 5.01
-4 -2 4 69.52 3.67
4 2 -4 67.58 3.1
-6 4 -4 63.3 2.62
6 -4 4 71.92 5.1
-2 6 4 64.03 2.45
-4 -2 7 499.56 6.48
2 -6 -7 499.14 13.08
-4 -2 7 465.62 5.97
-6 4 -7 451.48 6.74
6 -4 7 474.04 7.69
2 -6 -7 458.03 9.69
2 -6 -10 223.77 6.85
-4 -2 10 251.02 4.84
-6 4 -10 250.09 7.12
6 -4 10 255.29 6.48
2 -6 -10 266.11 9.54
2 -6 -13 192.25 6.33
-6 4 -13 190.78 9.88
2 -6 -13 187.53 7.04
2 -6 -16 11.58 1.89
-6 4 -16 10.29 2.81
2 -6 -16 18.86 5.22
2 -6 -19 499.67 11.94
2 -6 -19 493.31 14.69
2 -6 -22 5.44 2.76
6 -3 -24 -2.14 2.33
-3 -3 -21 259.7 14.49
6 -3 -21 298.36 8.95
-3 -3 -18 63.47 10.09
6 -3 -18 76.44 14.81
6 -3 -15 1025.07 20.32
-3 6 -15 996.52 15.44
-3 -3 -15 1031.7 23.88
6 -3 -15 1029.56 28.01
6 -3 -12 11.66 1.74
-3 6 -12 5.16 0.82
-6 3 12 14.08 2.84
-3 -3 -12 15.94 2.88
-3 6 -12 18.83 2.8
6 -3 -12 22.43 4.57
6 -3 -9 564.74 9.76
-3 6 -9 559.77 8.92
-6 3 9 566.47 10.59
-3 -3 -9 540.87 10.99
-3 6 -9 526.85 8.76
6 -3 -9 521.41 13.01
3 -6 6 1730.19 18.47
6 -3 -6 1777.39 19.96
-6 3 6 1684.15 18.22
-3 6 -6 1727.96 18.76
-3 -3 -6 1842.83 21.16
6 -3 -6 1850.88 21.37
3 -6 3 4101.27 37.78
-3 -3 -3 3781.34 36.09
3 3 3 4042.54 37.75
-6 3 3 4002.22 36.66
-3 -3 -3 4052.74 37.12
-6 3 0 786.79 8.61
3 -6 0 767.53 8.44
-3 6 0 808.97 10.61
-3 -3 0 799.44 9.93
3 3 0 772.88 8.49
-6 3 0 809.63 9.15
3 -6 -3 1096.74 11.93
-3 6 3 1089.65 12.13
-3 -3 3 1095.44 11.03
3 3 -3 1052.47 10.98
-6 3 -3 1047.98 12.67
6 -3 3 1029.54 11.1
3 -6 -6 2075.96 25.57
-3 6 6 2084.27 23.67
-3 -3 6 2027.02 20.97
-6 3 -6 1920.95 21.11
3 3 -6 1937.66 19.87
6 -3 6 1969.95 21.52
3 -6 -6 1981.39 25.66
3 -6 -9 1705.77 28.13
-6 3 -9 1869.51 28.87
3 -6 -9 1766.51 29.55
3 -6 -12 331.7 11.6
-6 3 -12 289.02 9.97
3 -6 -12 270.2 7.88
3 -6 -15 128.14 12.17
-6 3 -15 157.39 12.34
3 -6 -15 176.09 10.52
3 -6 -18 730.95 28.45
-6 3 -18 694.19 27.46
3 -6 -18 672.24 26.52
3 -6 -21 129.03 18.69
3 -6 -24 75.42 12.75
6 -2 -22 198.7 14.27
-2 -4 -22 215.37 17.22
-2 -4 -19 34.27 6.43
6 -2 -16 836.65 21.59
-2 -4 -16 857.72 24.98
-4 6 -16 906.95 21.24
6 -2 -13 857.18 17.15
-4 6 -13 856.83 17.56
-6 2 13 843.54 17.1
-2 -4 -13 809.48 23.72
-4 6 -13 815.92 16.56
6 -2 -10 1512.65 29.96
-4 6 -10 1497.35 28.83
-6 2 10 1510.32 29.37
-2 -4 -10 1523.42 30.26
-4 6 -10 1515.67 29.54
-2 -4 -7 8.08 2.77
6 -2 -7 3.95 2.14
-2 -4 -7 3.78 2.35
4 -6 4 3092.12 29.31
-6 2 4 3158.76 29.35
-4 6 -4 3266.05 30.38
2 4 4 3063.68 29.34
-6 2 4 3158.59 29.74
6 -2 -4 3149.36 29.06
-2 -4 -4 3126.62 30.09
4 -6 1 65.02 5.59
-4 6 -1 64.28 3.93
-2 -4 -1 69.35 5.26
2 4 1 70.43 4.06
-6 2 1 72.44 3.92
6 -2 -1 66.37 2.03
2 4 1 67.75 3.31
4 -6 -2 1720.78 17.68
-4 6 2 1795.09 17.92
-2 -4 2 1679.86 16.89
2 4 -2 1719.49 16.45
-6 2 -2 1741.34 17.97
6 -2 2 1715.93 17.25
4 -6 -5 203.92 8.04
-4 6 5 199.71 7.62
-2 -4 5 188.38 7.41
2 4 -5 171.83 6.42
-6 2 -5 177 8.07
6 -2 5 174.42 6.82
-4 6 5 184.84 8.03
4 -6 -8 4224.87 60.55
-6 2 -8 4519.19 63.44
4 -6 -8 4361.91 63.06
4 -6 -11 42.16 3.27
-6 2 -11 70.05 6.88
4 -6 -11 65.8 4.29
4 -6 -14 893.04 25.18
-6 2 -14 928.46 30
4 -6 -14 906.12 27.99
4 -6 -17 134.59 10.4
-6 2 -17 106.25 12.37
4 -6 -17 82.36 6.28
4 -6 -20 241.8 18.83
4 -6 -20 310.45 18.08
4 -6 -23 24.91 4.62
-1 -5 -23 44.53 7.61
6 -1 -23 26.99 7.64
-1 -5 -20 241.41 9.71
-1 -5 -20 186.17 15.3
-1 -5 -17 307.26 8.52
-5 6 -17 305.61 8.01
-1 -5 -17 331.81 9.33
-5 6 -14 215.91 6.51
-1 -5 -14 209.33 9.61
-6 1 14 203.76 6.47
-5 6 -14 218.32 7.97
-6 1 14 198.51 6.47
-1 -5 -14 208.32 7.62
-5 6 -11 14.16 2.45
-6 1 11 14.59 2.2
-1 -5 -11 8.92 2.57
-5 6 -11 8.71 1.69
-6 1 11 8.93 1.69
-1 -5 -11 5.99 2.2
-1 -5 -8 2064.68 32.01
-5 6 -8 2058.55 29.86
-6 1 8 2056.03 29.38
-6 1 5 677.36 8.68
-5 6 -5 669.89 8.41
-1 -5 -5 666.25 9.04
-6 1 5 680.37 8.79
-5 6 -5 666.17 8.36
-1 -5 -5 664.94 10.2
6 -1 -5 688.31 9.5
5 -6 2 1021.63 11.4
-5 6 -2 1010.99 10.67
-1 -5 -2 1002.75 10.88
1 5 2 1084.04 12.08
-6 1 2 1012.29 11.51
6 -1 -2 1032.09 12.03
1 5 2 1059.23 10.92
5 -6 -1 1704.4 17.1
-5 6 1 1676.13 16.51
-1 -5 1 1666.18 16.21
-6 1 -1 1702.19 17.2
6 -1 1 1714.41 16.99
5 -6 -4 113.29 6.11
-5 6 4 122.92 3.62
-1 -5 4 126.15 3.27
1 5 -4 128.38 3.03
-6 1 -4 144.88 7.93
6 -1 4 128.93 3.44
-5 6 4 133.29 3.51
-1 -5 7 1582.81 16.22
5 -6 -7 1649.8 19.78
1 5 -7 1523.55 15.63
-6 1 -7 1516.13 20.43
5 -6 -7 1621.46 19.83
5 -6 -10 218.26 7.31
-6 1 -10 252.13 10.44
5 -6 -10 251.97 7.15
5 -6 -13 183.08 6.65
-6 1 -13 163.34 8.51
5 -6 -13 159.06 8.08
5 -6 -16 183.87 8.22
-6 1 -16 247.99 9.28
5 -6 -16 240.63 20.41
5 -6 -19 261.26 13.72
-6 1 -19 268.97 11.01
5 -6 -19 284.88 9.83
5 -6 -22 10.43 4.72
0 -6 -24 18.98 4.78
0 -6 -21 4.75 2.45
0 -6 -21 15.66 4.85
0 -6 -18 28.78 8.02
0 -6 -18 40.02 6.61
0 -6 -15 4.46 2.77
-6 6 -15 3.91 2.73
-6 0 15 3.65 0.94
0 -6 -15 9.2 3.1
-6 6 -12 224.38 7.17
-6 0 12 228.91 5.72
0 -6 -12 248.31 10.52
-6 6 -12 258.01 7.46
-6 0 12 255.85 6.75
0 -6 -12 249.61 9.51
-6 6 -9 1074.87 16.46
-6 0 9 1042.92 15.49
0 -6 -9 1064.45 22.02
-6 6 -9 1050.22 17.7
-6 0 9 1034.31 16.31
0 -6 -9 1053.1 18.29
-6 0 6 353.5 5.77
-6 6 -6 366.75 5.48
0 -6 -6 365.89 6.57
-6 0 6 360.58 5.57
-6 6 -6 358.55 5.68
0 -6 -6 370.44 7.05
6 -6 3 337.52 5.32
-6 6 -3 333.24 5.25
0 -6 -3 315.83 6.7
-6 0 3 323.51 4.88
6 0 -3 334.18 4.9
0 6 3 322.85 5.13
6 -6 0 3.69 1.33
-6 6 0 3.76 1.5
0 -6 0 1.04 1.1
0 6 0 2.42 1.32
-6 0 0 1.11 0.78
6 0 0 -0.91 1.35
6 -6 -3 259.83 5.67
-6 6 3 252.52 5.87
0 -6 3 248.8 4.23
0 6 -3 256.65 5.91
-6 0 -3 256.66 5.41
6 0 3 236.72 4.34
6 -6 -6 295.98 7.06
-6 6 6 293.84 6.52
6 -6 -9 282.02 8.84
-6 0 -9 289.76 9.21
6 -6 -9 283.2 8.53
6 -6 -12 39.96 6.61
-6 0 -12 40.09 7.5
6 -6 -12 37.79 5.85
6 -6 -15 309.6 15.44
-6 0 -15 298.64 8.99
6 -6 -15 285.8 9.45
6 -6 -18 45.87 5.55
-6 0 -18 44.01 7.56
6 -6 -18 50.9 8.38
-6 0 -21 13.17 4.21
6 -6 -21 19.47 3.89
6 -6 -24 1.17 2
7 -6 -23 38.92 9.08
-6 -1 -20 6.63 2.48
7 -6 -20 3.84 1.31
7 -6 -17 162.43 12.36
-6 -1 -17 160.59 14.88
7 -6 -17 167.37 14.95
7 -6 -14 1.82 1.62
-6 -1 -14 2.77 2.4
7 -6 -14 4.82 3.73
7 -6 -11 524.98 15.1
-6 -1 -11 542.6 17.03
7 -6 -11 531.66 15.02
1 -7 8 111.58 3.8
7 -6 -8 126.8 7.59
-1 7 -8 134.57 4.32
-6 -1 -8 147.31 10.76
7 -6 -8 143.83 7.16
7 -6 -5 2216.54 25.37
1 -7 5 2321.86 25.11
-1 7 -5 2338.83 24.99
-6 -1 -5 2377.15 27.79
7 -6 -2 109.64 6.38
-7 6 2 105.74 4.58
1 -7 2 110.39 5.21
-1 7 -2 111.55 4.66
-6 -1 -2 112.59 8.79
6 1 2 102.79 4.38
7 -6 1 349.16 5.71
-7 6 -1 350.27 6.74
1 -7 -1 347.28 6.04
-1 7 1 363.04 5.97
-6 -1 1 365.45 6.39
6 1 -1 353.46 7.37
-7 6 -4 12.77 4.41
1 -7 -4 18.99 4.32
-6 -1 4 16.03 3.78
6 1 -4 12.3 2.27
-7 6 -4 15.01 3.5
-1 7 4 13.02 2.33
-7 6 -7 581.22 10.71
-6 -1 7 571.36 9.12
1 -7 -7 590.99 12.96
-6 -1 7 607.15 10.19
-7 6 -7 596.32 11.36
1 -7 -7 643.64 12.04
-6 -1 10 376.34 8.45
1 -7 -10 368.2 9.98
-7 6 -10 379.62 10.35
-6 -1 10 380.53 8.32
1 -7 -10 375 13.81
1 -7 -13 112.15 8.33
-7 6 -13 116.61 5.32
-6 -1 13 118.84 3.77
1 -7 -13 129 9.61
1 -7 -16 158.09 6.34
-7 6 -16 158.35 5.96
1 -7 -16 171.99 15.18
1 -7 -19 28.86 7.58
1 -7 -19 52.33 7.09
1 -7 -22 52.7 7.63
7 -5 -24 3.23 3.6
-5 -2 -21 3.44 2.17
7 -5 -21 4.07 2.38
7 -5 -18 120.54 8.86
-5 -2 -18 107.94 11.63
7 -5 -18 110.65 11.38
7 -5 -15 90.78 6.26
-5 -2 -15 77.41 5.81
7 -5 -15 92.12 8.44
7 -5 -12 251.15 7.96
-5 -2 -12 252.89 10.33
-2 7 -12 279.94 5.62
7 -5 -12 254.12 9.06
7 -5 -9 332.96 9.47
-2 7 -9 346.44 7.37
-5 -2 -9 333.83 11.57
-2 7 -9 343.16 9.23
7 -5 -9 345.03 10.16
7 -5 -6 94.45 4.99
2 -7 6 84.61 4.22
-7 5 6 85.45 3.93
-2 7 -6 95.18 4.11
-5 -2 -6 104.77 5.45
-7 5 6 99.89 5
7 -5 -3 1093.34 13.72
-7 5 3 1158.32 13.71
2 -7 3 1091.81 12.47
-2 7 -3 1157.82 13.17
-5 -2 -3 1140.01 16.21
7 -5 0 18.38 3.27
-7 5 0 17.78 2.26
2 -7 0 20.81 4.39
-2 7 0 20.33 4.81
-5 -2 0 19.02 4.54
5 2 0 18.82 3.82
-7 5 -3 2.02 1.82
2 -7 -3 1.45 1.37
-2 7 3 3.75 1.47
-5 -2 3 -0.93 1.34
5 2 -3 0.53 1.06
-7 5 -3 0.68 1.15
-2 7 3 0.99 1.85
-7 5 -6 696.52 9.49
2 -7 -6 695.02 11.14
-5 -2 6 708.69 9.56
-7 5 -6 706.69 11.01
5 2 -6 735.06 9.05
-5 -2 9 739.77 10.6
2 -7 -9 744.02 16.19
-5 -2 9 750.84 11.24
-7 5 -9 744.21 12.88
2 -7 -9 738.78 19.38
2 -7 -12 84.04 10.6
-7 5 -12 101.46 10.25
2 -7 -12 97.92 12.19
2 -7 -15 173.89 13.29
-7 5 -15 160.18 10.58
2 -7 -15 155.31 13.69
2 -7 -18 39.32 5.46
-7 5 -18 31.37 4.86
2 -7 -18 32.21 6.09
2 -7 -21 8.65 3.21
2 -7 -21 17.43 4.45
2 -7 -24 12.9 4.42
7 -4 -22 60.67 14.05
-4 -3 -19 39.87 7.58
7 -4 -19 48.33 7.8
7 -4 -16 374.91 11
-4 -3 -16 372.64 16.82
7 -4 -16 398.95 13.51
7 -4 -13 81.31 6.91
-3 7 -13 76.58 3.75
-4 -3 -13 79.82 8.64
7 -4 -13 62.91 9.46
7 -4 -10 109.43 5.52
-3 7 -10 103.29 4.61
-7 4 10 92.91 5.45
-4 -3 -10 114.93 6.35
-3 7 -10 104.7 4.77
7 -4 -10 93.38 4.8
3 -7 7 -0.44 0.92
7 -4 -7 2.16 0.92
-7 4 7 3.2 1.17
-3 7 -7 1.59 1.15
-4 -3 -7 1.07 1.3
7 -4 -7 4.67 1.35
7 -4 -4 4090.75 43.14
-7 4 4 3995.88 41.29
3 -7 4 3823.53 40.28
-3 7 -4 4113.29 42.6
-4 -3 -4 3965.44 42.28
-7 4 4 3765.84 38.76
-4 -3 -4 3834.41 39.56
-7 4 1 166.62 4.53
3 -7 1 172.11 3.84
-3 7 -1 173.56 3.6
-4 -3 -1 161.54 3.84
4 3 1 173.81 3.82
-7 4 1 176.66 7.77
-7 4 -2 1492.45 16.22
3 -7 -2 1471.34 15.56
-3 7 2 1551.17 15.95
-4 -3 2 1500.86 15.64
4 3 -2 1494.16 14.86
-7 4 -2 1446.94 15.51
3 -7 -5 25.37 4.7
-4 -3 5 20.36 3.74
4 3 -5 23.48 2.99
-7 4 -5 26.48 5.12
7 -4 5 23.91 3.43
3 -7 -8 1414.79 22.11
-4 -3 8 1388.37 19.4
-7 4 -8 1362.28 21.27
3 -7 -8 1364.49 22.55
3 -7 -11 72.79 8.56
-7 4 -11 84.59 8.1
3 -7 -11 101.32 12
3 -7 -14 165.76 10.1
-7 4 -14 166.57 6.59
3 -7 -14 157.04 10.06
3 -7 -17 67 8.76
-7 4 -17 48.95 7.3
3 -7 -17 44.59 6.66
3 -7 -20 135.63 12.22
3 -7 -20 159.28 21.09
3 -7 -23 2.94 1.28
7 -3 -23 86.93 16.13
-3 -4 -23 109.02 9.38
-3 -4 -20 20.01 5.01
7 -3 -20 22.87 4.05
7 -3 -17 213.9 4.71
-3 -4 -17 229.5 10.07
7 -3 -17 225.97 7.31
7 -3 -14 642.65 19.53
-4 7 -14 637.15 17.17
-7 3 14 624.35 17.99
-3 -4 -14 594.58 18.33
-4 7 -14 600.15 16.09
7 -3 -14 572.19 18.47
7 -3 -11 275.41 6.71
-4 7 -11 263.06 6.3
-7 3 11 280.53 7.84
-3 -4 -11 287.84 9.91
-4 7 -11 301.02 8.31
7 -3 -11 300.87 9.35
7 -3 -8 677.09 11.22
-7 3 8 720.96 11.83
-3 -4 -8 650.16 11.54
-4 7 -8 647.68 10.32
7 -3 -8 632.76 12.93
7 -3 -5 5931.76 60.94
4 -7 5 5785.78 58.81
-7 3 5 5945.18 60.67
-4 7 -5 5759.79 58.44
-3 -4 -5 5938.49 62.36
-3 -4 -5 5928.79 60.55
-7 3 2 126.72 3.55
4 -7 2 125.97 5.18
-4 7 -2 131.26 4.1
-3 -4 -2 114.38 3.72
3 4 2 117.59 3
-7 3 2 121.36 3.92
3 4 2 121.42 3.1
4 -7 -1 751.41 10.93
-3 -4 1 734.98 8.56
3 4 -1 713.61 7.99
-7 3 -1 734.57 10.3
7 -3 1 730.78 8.44
4 -7 -4 76.47 4.91
-4 7 4 78.47 4.7
-3 -4 4 84.89 4.21
3 4 -4 73.57 3.13
-7 3 -4 81.88 4.18
7 -3 4 78.68 3.77
-4 7 4 68.4 3.4
4 -7 -7 1819.95 27.77
-3 -4 7 1728.61 23.91
-7 3 -7 1721.14 25.47
3 4 -7 1708.5 23.65
4 -7 -10 709.11 17.26
-7 3 -10 761.3 18.03
4 -7 -10 758.14 17.32
4 -7 -13 740.75 21.46
-7 3 -13 731.59 19.2
4 -7 -13 733.92 21.5
4 -7 -16 3.59 2.03
-7 3 -16 1.93 2.25
4 -7 -16 -1.76 2.61
4 -7 -19 418.64 18.89
-7 3 -19 459.93 12.65
4 -7 -19 486.13 13.75
4 -7 -22 2.16 2.49
7 -2 -24 1.03 1.75
-2 -5 -24 1.24 2.92
-2 -5 -21 46.63 10.51
-2 -5 -21 64.79 8.43
7 -2 -21 45.1 12.25
-2 -5 -18 57.2 8.19
-2 -5 -18 77.45 12.73
7 -2 -18 69.42 12.31
-2 -5 -15 381.01 10.64
-5 7 -15 368.71 10.24
-2 -5 -15 356.58 12.58
7 -2 -12 35.18 6.31
-5 7 -12 35.36 4.68
-7 2 12 29.71 4.65
-2 -5 -12 34.65 6.63
-5 7 -12 24.73 3.5
-2 -5 -12 27.82 4.83
7 -2 -12 28.73 6.75
-5 7 -9 2408.94 35.16
-7 2 9 2413.13 34.2
-2 -5 -9 2416.85 40.36
-5 7 -9 2374.57 34.6
7 -2 -9 2377.89 35.59
-2 -5 -9 2357.61 38.8
-7 2 6 1378.19 15.33
-5 7 -6 1389.46 15.6
-2 -5 -6 1408.14 18.94
-7 2 6 1489.83 17.17
7 -2 -6 1433.18 16.05
-2 -5 -6 1443.14 17.6
-7 2 3 921.66 11.95
5 -7 3 942.8 11.38
-5 7 -3 948.81 12.4
-2 -5 -3 884.25 12.59
2 5 3 908.26 11.83
-7 2 3 909.7 11.98
2 5 3 928.4 10.85
-7 2 3 940 10.27
5 -7 0 3.24 1.01
-5 7 0 4.64 3.39
-2 -5 0 5.69 2.34
2 5 0 2.26 1.45
-7 2 0 2.27 0.99
7 -2 0 1.46 1.2
5 -7 -3 393.31 6.22
-5 7 3 414.52 6.47
-2 -5 3 397.89 5.53
2 5 -3 399.36 5.58
-7 2 -3 413.4 8.11
7 -2 3 417.3 6.86
-2 -5 6 527.46 6.72
2 5 -6 514.59 6.33
-7 2 -6 496.98 7.46
5 -7 -9 1012.36 16.82
-7 2 -9 1049.92 20.27
5 -7 -9 1042.06 18.91
5 -7 -12 267.52 8.26
-7 2 -12 249.1 7.91
5 -7 -12 256.28 9.92
5 -7 -15 255.29 8.1
-7 2 -15 293.44 8.75
5 -7 -15 280.46 11.21
5 -7 -18 374.13 14.13
-7 2 -18 360 13.52
5 -7 -18 348.93 19.56
5 -7 -21 39.88 8.35
5 -7 -24 10.02 4.52
-1 -6 -22 1.64 1.57
-1 -6 -22 3.04 2.13
7 -1 -22 4.05 1.94
-1 -6 -19 35.06 5.85
-1 -6 -19 34.43 6.71
-1 -6 -16 60.93 7.66
-6 7 -16 62.14 6.84
-1 -6 -16 74.48 10.33
-6 7 -13 90.78 7.58
-7 1 13 89.64 5.05
-1 -6 -13 97.32 6.44
-6 7 -13 98.94 6.82
-7 1 13 99.67 4.54
-1 -6 -13 112.04 10.57
-6 7 -10 238.28 6.16
-7 1 10 227.37 6.57
-1 -6 -10 252.85 7.85
-6 7 -10 273.37 6.72
-7 1 10 267.01 6.58
-1 -6 -10 266.48 8.17
-6 7 -7 45.85 2.79
-7 1 7 47.42 3.09
-1 -6 -7 52.54 4.62
-7 1 7 54.32 2.93
-6 7 -7 51.99 3.21
-1 -6 -7 55.24 3.74
7 -1 -7 51.77 6.02
-7 1 4 233.53 8.78
6 -7 4 225.34 8.53
-6 7 -4 233.08 11.03
-1 -6 -4 225.41 8.98
-7 1 4 227.19 9.52
1 6 4 230.26 8.68
6 -7 1 531.02 8.1
-6 7 -1 544.12 8.98
-1 -6 -1 525.21 7.76
1 6 1 533.21 6.75
-7 1 1 513.95 8.35
7 -1 -1 532.86 7.84
6 -7 -2 39.15 3.93
-6 7 2 30.28 3.03
-1 -6 2 26.02 3.03
1 6 -2 22.14 3.26
-7 1 -2 27.34 5.45
7 -1 2 24.35 5.2
6 -7 -5 301.94 9.42
-1 -6 5 308.54 5.3
1 6 -5 314.97 5.22
-7 1 -5 315.53 8.56
-1 -6 8 416 6.25
6 -7 -8 429.48 11.58
-7 1 -8 372.49 15.64
1 6 -8 380.95 5.87
6 -7 -11 2.3 2.08
-7 1 -11 6.17 2.66
6 -7 -11 4.9 3.42
6 -7 -14 136.32 8.27
-7 1 -14 100.79 6.1
6 -7 -14 115.07 8.65
6 -7 -17 37.09 7.1
-7 1 -17 24.22 5.21
6 -7 -17 26.2 7.07
6 -7 -20 20.26 3.48
-7 1 -20 15.95 3.76
6 -7 -20 19.02 5.05
6 -7 -23 17.18 4.64
0 -7 -23 99.51 14.44
7 0 -23 65.9 16.23
0 -7 -20 1.06 0.95
0 -7 -20 5.8 2.68
0 -7 -17 229.78 12.26
-7 7 -17 219.27 13.33
0 -7 -17 241.8 12.3
0 -7 -14 38.75 6.57
-7 7 -14 36.62 5.36
-7 0 14 32.47 3.63
0 -7 -14 45.21 5.6
-7 0 11 934.8 19.18
0 -7 -11 908.15 28.52
-7 7 -11 1027.56 22.27
-7 0 11 993.18 20.61
0 -7 -11 989.09 23.4
-7 7 -8 163.91 5.42
-7 0 8 161.93 5.99
0 -7 -8 165.36 6.24
-7 0 8 173.93 5.32
-7 7 -8 175.12 8.07
0 -7 -8 172.65 8.26
-7 0 5 30.06 1.92
-7 7 -5 29.95 5.14
0 -7 -5 41.66 8.56
-7 0 5 43.21 3.05
-7 7 -5 46.15 4.78
7 0 -5 44.78 3.03
7 -7 2 167.38 7.12
-7 7 -2 180.14 8.11
0 -7 -2 188.5 7.62
-7 0 2 188.62 7.53
7 0 -2 178.63 7.09
7 -7 -1 858.38 11.2
0 -7 1 899.53 11.32
0 7 -1 934.83 11.88
-7 0 -1 929.29 11.6
7 -7 -4 1285.24 15.55
0 -7 4 1284.82 14.81
0 7 -4 1246.9 14.16
-7 0 -4 1244.67 18.15
7 -7 -7 507.03 11.79
0 -7 7 500.81 8.7
0 7 -7 567.88 9.43
-7 0 -7 565.6 12.37
7 -7 -10 516.1 14.74
-7 0 -10 527.54 13.11
7 -7 -10 511.98 16
7 -7 -13 134.61 5.37
-7 0 -13 174.01 13.89
7 -7 -13 163.89 6.86
7 -7 -16 172.2 12.07
-7 0 -16 156.14 8.55
7 -7 -16 156.17 11.55
7 -7 -19 14.07 2.91
-7 0 -19 17.22 3.91
7 -7 -19 26.58 4.61
7 -7 -22 54.38 10.69
-7 -1 -21 18.1 6.12
8 -7 -21 21.67 5.19
8 -7 -18 519.17 14.34
-7 -1 -18 569.51 17.05
8 -7 -18 567.25 16.34
8 -7 -15 24.21 3.86
-7 -1 -15 18.98 2.93
8 -7 -15 14.48 2.28
8 -7 -12 838.66 20.29
-7 -1 -12 880.77 26.74
8 -7 -12 845.29 22.16
1 -8 9 51.2 3.34
8 -7 -9 64.62 7.7
-1 8 -9 41.95 3.43
-7 -1 -9 50.67 9.3
8 -7 -6 1823.17 28.04
1 -8 6 1915.71 27.53
-1 8 -6 1965.56 28.26
-7 -1 -6 1927.47 30.39
8 -7 -3 284.84 5.96
1 -8 3 283.05 4.93
-1 8 -3 260.85 9.64
-7 -1 -3 250.49 11.03
8 -7 0 4519.38 47.31
1 -8 0 4632.06 49.6
-7 -1 0 4634.94 50.44
1 -8 -3 163.16 7.76
-7 -1 3 162.92 6.72
7 1 -3 165.32 6.52
-8 7 -3 168.76 7.43
1 -8 -6 2545.67 37.56
-7 -1 6 2555.3 36.72
-8 7 -6 2641.93 39.06
-7 -1 9 471.22 10.33
1 -8 -9 419.32 11.98
-7 -1 9 419.59 9.18
-8 7 -9 417.82 11.62
1 -8 -9 421.22 11.75
-7 -1 12 797.71 15.88
1 -8 -12 800.97 22.01
-8 7 -12 860.4 20.38
-7 -1 12 855.74 16.66
1 -8 -12 872.17 19.84
-8 7 -15 8.7 1.99
1 -8 -15 11.08 2.63
1 -8 -18 448.58 15.26
-8 7 -18 516.28 11.1
1 -8 -18 514.66 13.12
1 -8 -21 64.6 9.39
1 -8 -21 60.57 8.99
8 -6 -22 35.56 10.63
-6 -2 -19 60.38 12.23
8 -6 -19 78.91 13.32
8 -6 -16 214.42 8.3
-6 -2 -16 195.24 24.51
8 -6 -16 193.65 24.32
8 -6 -13 317.86 11.02
-6 -2 -13 308.64 13.01
8 -6 -13 327.25 11.23
8 -6 -10 150.48 5.27
-2 8 -10 138.41 3.98
-6 -2 -10 132.85 6.47
8 -6 -10 141.67 6.79
8 -6 -7 559.69 10.42
2 -8 7 542.98 8.72
-2 8 -7 566.84 9.41
-6 -2 -7 580.58 10.75
8 -6 -4 690.21 9.93
2 -8 4 706.2 8.91
-2 8 -4 677.44 9.24
-6 -2 -4 659.9 9.42
-8 6 4 663.85 8.7
8 -6 -1 609.39 10.15
2 -8 1 598.57 8.26
-2 8 -1 585.79 8.11
-6 -2 -1 594.85 9.86
2 -8 -2 165.74 8.86
-6 -2 2 183.51 8.63
6 2 -2 170.47 6.59
-8 6 -2 184.88 8
2 -8 -5 1291.32 17.07
-6 -2 5 1259.58 15.06
-8 6 -5 1230.53 16.96
6 2 -5 1286.36 15.7
-6 -2 8 2.78 1.16
2 -8 -8 0.99 2.47
-6 -2 8 2.95 1.23
-8 6 -8 8.03 1.9
2 -8 -8 14.5 3.37
-6 -2 11 714.5 14.31
2 -8 -11 778.13 17.98
-6 -2 11 770.97 15.62
-8 6 -11 798.46 18.79
2 -8 -11 794.26 23.41
2 -8 -14 1.83 1.95
-8 6 -14 0 0.87
2 -8 -14 1.97 1.86
2 -8 -17 150.52 12.88
-8 6 -17 147.95 12.7
2 -8 -17 165.4 12.28
2 -8 -20 1.82 1.27
2 -8 -20 7.91 3.83
2 -8 -23 141.82 16.17
8 -5 -23 3.52 2.94
-5 -3 -20 2.57 1.58
8 -5 -20 5.71 2.92
8 -5 -17 37.79 6.25
-5 -3 -17 38.71 6.53
8 -5 -17 36.37 8.35
8 -5 -14 126.07 11.59
-5 -3 -14 123.81 10.95
8 -5 -14 117.64 11.16
8 -5 -11 75.69 8.39
-3 8 -11 70.59 6.39
-5 -3 -11 65.64 8.27
-3 8 -11 64.55 6.08
8 -5 -11 67.83 8.89
3 -8 8 39.66 3.73
8 -5 -8 46.55 5.48
-3 8 -8 38.65 3.13
-5 -3 -8 42.86 8.51
8 -5 -8 38.23 5.75
8 -5 -5 21.12 3.81
3 -8 5 19.86 3.74
-8 5 5 25.73 4.19
-3 8 -5 19.95 2.5
-5 -3 -5 26.54 7
-8 5 5 23.06 3.22
8 -5 -2 526.02 7.5
3 -8 2 549.2 7.37
-3 8 -2 522.97 7.06
-5 -3 -2 513.75 7.5
-5 -3 -2 499.24 6.34
-8 5 -1 1.63 0.84
3 -8 -1 -0.12 1.89
-3 8 1 1.14 1.15
-5 -3 1 2.66 1.67
5 3 -1 -0.05 0.92
-8 5 -1 1.45 1.72
5 3 -1 1.82 0.76
3 -8 -4 281.71 6.22
-5 -3 4 274.51 5.23
5 3 -4 271.67 9.46
-8 5 -4 264.93 10.37
3 -8 -7 18.3 4.26
-5 -3 7 13.05 1.87
-8 5 -7 15.56 2.37
5 3 -7 8.07 1.26
-5 -3 10 298.32 5.91
3 -8 -10 274.41 11.85
-5 -3 10 273.06 5.77
-8 5 -10 269.74 11.04
3 -8 -10 262.57 8.46
3 -8 -13 5.33 2.16
-8 5 -13 4.42 3.72
3 -8 -13 5.57 2.37
3 -8 -16 12.44 2.55
-8 5 -16 22.13 4.05
3 -8 -16 22.66 5.61
3 -8 -19 3.33 1.46
-8 5 -19 0.25 1.06
3 -8 -19 1.26 1.86
3 -8 -22 49.84 8.54
8 -4 -24 1.48 2.77
-4 -4 -24 5.04 3.26
-4 -4 -21 0.6 2.18
8 -4 -21 2.54 2.22
-4 -4 -18 1.16 1.51
8 -4 -18 4.47 2.49
8 -4 -15 210.97 8.81
-4 -4 -15 217.36 10.59
8 -4 -15 201.3 9.4
8 -4 -12 37.4 5.42
-4 8 -12 36.52 4.61
-4 -4 -12 39.49 8.19
-4 8 -12 31.82 3.7
8 -4 -12 41.2 7.94
8 -4 -9 45.9 4.83
-4 8 -9 51.84 4.39
-8 4 9 41.27 4.71
-4 -4 -9 51.48 10.27
-4 8 -9 45.9 5.72
8 -4 -9 46.09 3.56
8 -4 -6 349.98 12.47
4 -8 6 353.24 10.46
-8 4 6 364.65 13.96
-4 8 -6 368.3 14.28
-4 -4 -6 358.71 14.27
-4 -4 -6 362.12 14.51
-8 4 3 498.81 7.08
4 -8 3 501.95 7.29
-4 -4 -3 455.95 7.23
-8 4 3 460.22 8.01
-8 4 3 479.43 8.55
-4 -4 -3 462.69 6.91
-8 4 0 16.02 3.55
4 -8 0 14.86 3.59
-4 8 0 20.93 2.66
-4 -4 0 20 4.2
4 4 0 17.23 1.87
-8 4 0 21.68 6.62
4 4 0 16.56 2.04
4 -8 -3 2.31 3.33
-4 -4 3 0.85 0.99
4 4 -3 -0.07 1.12
-8 4 -3 -0.12 1.25
4 -8 -6 119.63 6.95
-4 -4 6 103.97 4.35
-8 4 -6 103.98 8.37
4 4 -6 100.57 3.88
4 -8 -9 554.7 15.46
-4 -4 9 521.69 10.16
-8 4 -9 504.59 12.23
4 -8 -9 545.44 16.52
4 -8 -12 149.56 6.59
-8 4 -12 138.51 7.88
4 -8 -12 131.58 12.04
4 -8 -15 1.58 1.41
-8 4 -15 3.66 1.79
4 -8 -15 3.05 3.15
4 -8 -18 48.42 6.15
-8 4 -18 42.14 5.3
4 -8 -18 48.04 8.84
4 -8 -21 13.07 4.34
4 -8 -21 16.52 4.78
4 -8 -24 6.07 2.55
8 -3 -22 51.59 11.48
-3 -5 -22 51.95 8.39
-3 -5 -19 74.04 12.85
8 -3 -19 101.49 10.86
-3 -5 -19 97.65 10
-3 -5 -16 89.65 10.69
-5 8 -16 76.05 5.78
8 -3 -16 81.68 10.12
-3 -5 -16 85.29 5.43
8 -3 -13 10 2.28
-5 8 -13 8.26 1.61
-8 3 13 10.35 1.98
-3 -5 -13 12.71 3.51
-5 8 -13 18.58 2.62
8 -3 -13 24.87 4.55
-3 -5 -13 25.69 5.32
8 -3 -10 268.65 6.43
-5 8 -10 271.66 7.42
-8 3 10 258.74 7.84
-3 -5 -10 280 9.72
-5 8 -10 258.76 7.25
8 -3 -10 248.7 7.69
-3 -5 -10 246.07 6.98
-8 3 7 112.99 3.92
-5 8 -7 112.33 4.5
-3 -5 -7 132.35 9.76
-8 3 7 132.39 6.18
8 -3 -7 130.41 5.21
-3 -5 -7 122.51 6.41
-8 3 4 1818.85 20.34
5 -8 4 1809.15 20.78
-8 3 4 1780.93 20.69
-3 -5 -4 1748.83 20.71
-8 3 4 1852.25 20.64
-8 3 1 28.41 2.11
5 -8 1 21.71 5.24
-5 8 -1 29.95 4.81
-3 -5 -1 34.02 2.77
3 5 1 34.53 4.08
-8 3 1 35.05 3.38
3 5 1 32.59 2.48
5 -8 -2 115.09 7.91
-3 -5 2 97.54 4.52
3 5 -2 99.79 4.3
-8 3 -2 97.94 4.9
5 -8 -5 758.82 10.25
-3 -5 5 751.3 9.17
3 5 -5 761.09 10.15
-8 3 -5 748.35 10.59
5 -8 -8 160.15 6.3
-3 -5 8 143.01 4.51
-8 3 -8 127.64 5.74
3 5 -8 125.16 3.77
5 -8 -11 117.22 11.58
-8 3 -11 100.24 9.24
5 -8 -11 103.77 11.9
5 -8 -14 118.21 10.16
-8 3 -14 126.69 8.14
5 -8 -14 126.93 10.7
5 -8 -17 142.18 12.07
-8 3 -17 159.78 9.18
5 -8 -17 142.02 10.27
5 -8 -20 48.67 7.42
-8 3 -20 40.79 10.1
5 -8 -20 66.94 10.42
5 -8 -23 21.09 3.7
-2 -6 -23 -0.28 2.18
8 -2 -23 6.14 3.67
-2 -6 -20 6.99 3.92
-2 -6 -20 8.86 4.08
8 -2 -20 3.93 2.61
-2 -6 -17 27.43 5.65
-2 -6 -17 27.8 6.57
8 -2 -17 25.65 5.5
-6 8 -14 14.77 2.2
-2 -6 -14 23.96 3.39
-6 8 -14 15.15 2.28
-8 2 14 12.71 2.58
-2 -6 -14 22.16 4.98
8 -2 -14 16.54 3.1
-6 8 -11 85.21 8.46
-8 2 11 84.77 8.5
-2 -6 -11 109.87 12.24
-6 8 -11 111.16 10.07
-8 2 11 115.06 10.21
-2 -6 -11 108.9 13.21
8 -2 -11 92.55 8.44
-6 8 -8 146.18 6.54
-2 -6 -8 176.87 7.56
-6 8 -8 200.57 6.6
-8 2 8 189.35 6.23
-2 -6 -8 196.76 8.45
8 -2 -8 191.67 6.59
6 -8 5 66.52 4.86
-8 2 5 72.57 4.72
-6 8 -5 65.83 3.55
-2 -6 -5 77.5 8.66
-8 2 5 53.69 4.81
-2 -6 -5 54.7 5.74
6 -8 2 175.34 7.02
-6 8 -2 183.36 7.78
-2 -6 -2 169.12 7.33
-8 2 2 170 7.77
8 -2 -2 166.07 6.55
-8 2 2 161.25 6.05
2 6 2 165.47 7.9
6 -8 -1 25.55 5.93
-2 -6 1 25.4 2.76
2 6 -1 27.15 5.99
-8 2 -1 29.2 3.07
6 -8 -4 142.53 6.29
-2 -6 4 170.23 6.76
2 6 -4 166.38 6.94
-8 2 -4 175.87 7.88
6 -8 -7 5.63 2.25
-2 -6 7 4.86 1.2
2 6 -7 1.15 0.82
-8 2 -7 5.12 2.04
6 -8 -10 17.49 3.98
-8 2 -10 14.82 2.88
6 -8 -10 21.12 4.41
6 -8 -13 74.2 6.02
-8 2 -13 60.03 9.68
6 -8 -13 52.87 11.61
6 -8 -16 130.01 13.81
-8 2 -16 110.73 10.97
6 -8 -16 114.22 5.82
6 -8 -19 25.31 4
-8 2 -19 6.61 2.71
6 -8 -19 16.54 4.44
6 -8 -22 10.17 5.32
-1 -7 -21 11.4 5.65
-1 -7 -21 10.08 4.79
8 -1 -21 15.56 3.39
-1 -7 -18 16.33 4.27
-1 -7 -18 18.44 3.94
-1 -7 -15 3.21 1.26
-7 8 -15 2.95 1.24
-8 1 15 1.77 1.16
-1 -7 -15 1.73 1.06
-8 1 12 311.89 8.41
-1 -7 -12 308.5 9.62
-7 8 -12 338.53 9.46
-8 1 12 335.32 9.18
-1 -7 -12 313.73 10.39
-8 1 9 109.17 5.44
-1 -7 -9 113.86 5.87
-7 8 -9 114.93 7.02
-8 1 9 112.93 6.21
-1 -7 -9 106.69 10.15
8 -1 -9 111.01 5.95
-8 1 6 359.42 13.49
-1 -7 -6 355.04 10.59
-8 1 6 378.51 7.43
-7 8 -6 392.47 11.25
-1 -7 -6 377.61 12.39
8 -1 -6 386.7 6.79
7 -8 3 52.21 3.31
-1 -7 -3 53.29 4.07
-8 1 3 53.82 3.15
8 -1 -3 49.05 4.75
1 7 3 47.44 4.57
7 -8 0 528.75 10.72
-1 -7 0 522.1 8.61
1 7 0 523.88 7.46
-8 1 0 529.43 7.94
7 -8 -3 35.87 6.5
-1 -7 3 39.31 2.65
1 7 -3 45.41 3.45
-8 1 -3 50.45 4.36
7 -8 -6 90.3 6.14
-1 -7 6 84.12 4.33
1 7 -6 79.63 3.19
-8 1 -6 80.04 4.15
-1 -7 9 3.01 0.84
7 -8 -9 2.68 1.25
-8 1 -9 15.09 3.18
1 7 -9 9.04 1.11
7 -8 -12 344.4 12.78
-8 1 -12 419.76 11.64
7 -8 -12 427.52 13.17
7 -8 -15 2 0.95
-8 1 -15 -0.6 2.41
7 -8 -15 -0.04 2.5
7 -8 -18 43.1 4.48
-8 1 -18 42.28 6.12
7 -8 -18 40.81 5.54
-8 1 -21 4.96 3.71
7 -8 -21 7.53 3.46
0 -8 -22 89.76 18.18
0 -8 -22 137.66 20.34
8 0 -22 164.63 9.94
0 -8 -19 72.66 11.7
0 -8 -16 179.52 12.53
-8 8 -16 163.7 9.04
0 -8 -16 163.82 12.85
0 -8 -13 588.5 16.99
-8 8 -13 613.55 18.98
-8 0 13 643.13 16.98
0 -8 -13 644.61 19.92
-8 0 10 1217.22 25.53
0 -8 -10 1210.48 27.9
-8 0 10 1155.11 25.02
-8 8 -10 1158.05 26.61
0 -8 -10 1168.21 28.09
-8 0 7 1677.14 32.77
0 -8 -7 1768.74 35.73
-8 0 7 1751.07 34.89
-8 8 -7 1739.85 35.24
8 0 -7 1770.98 34.78
8 -8 4 618.45 10.66
0 -8 -4 618.13 11.4
-8 0 4 602.96 10.72
8 0 -4 627.66 12.98
8 -8 1 1422.8 18.79
0 -8 -1 1401.72 17.61
-8 0 1 1370.42 16.48
8 -8 -2 621.98 11.16
0 -8 2 596.41 9.13
0 8 -2 606.74 9.44
-8 0 -2 653.92 15.21
8 -8 -5 493.09 11.46
0 -8 5 506.85 10.47
0 8 -5 474.28 7.9
-8 0 -5 484.02 9.17
8 -8 -8 145.97 9.35
0 -8 8 138.05 6.42
0 8 -8 165.05 6.8
-8 0 -8 180.66 13.62
8 -8 -11 1317.26 28.17
-8 0 -11 1461.92 30.63
8 -8 -14 86.5 7.1
-8 0 -14 106.84 11.7
8 -8 -14 110.12 15.37
8 -8 -17 623.64 24.13
-8 0 -17 616.75 25.69
8 -8 -17 617.33 24.97
-8 0 -20 -0.91 1.82
8 -8 -20 5.74 2.61
8 -8 -23 135.7 12.68
9 -8 -22 108.07 26.02
9 -8 -19 181.16 11.57
-8 -1 -19 177.07 19.64
9 -8 -19 207.67 16.97
9 -8 -16 516.71 22.4
-8 -1 -16 431.76 17.87
9 -8 -16 444.55 25.66
9 -8 -13 698.44 14.6
9 -8 -13 737.02 16.13
1 -9 10 763.54 15.43
9 -8 -10 820.21 18.84
-1 9 -10 753.71 16.29
-8 -1 -10 755.14 23.16
9 -8 -7 1310.14 29.06
1 -9 7 1335.82 26.04
-1 9 -7 1362.49 26.51
-8 -1 -7 1363.48 28.69
9 -8 -4 782.83 14.89
1 -9 4 814.28 13.62
-1 9 -4 777.75 12.45
9 -8 -1 5671.6 79.38
1 -9 1 5719.62 205.18
-8 -1 -1 5866.81 210.24
-8 -1 -1 5630.94 76.59
9 -8 2 48.64 3.82
1 -9 -2 53.68 5.81
-8 -1 2 64.22 4.79
1 -9 -5 1886.63 28.84
-8 -1 5 1850.46 28.37
-9 8 -5 1884.2 30.25
8 1 -5 1878.41 28.43
-8 -1 8 190.47 8.88
1 -9 -8 199.89 11
-8 -1 8 219.69 6.13
-9 8 -8 221.81 9.18
-8 -1 11 1023.12 19.61
1 -9 -11 952.6 25.88
-8 -1 11 996.1 20.66
-9 8 -11 1019.28 22.45
1 -9 -11 1005.92 22.8
1 -9 -14 328.49 11.94
-8 -1 14 374.87 9.09
-9 8 -14 374.93 14.36
1 -9 -14 379.74 14.21
1 -9 -17 879.2 22.93
-9 8 -17 863.49 16.33
1 -9 -17 852.86 27.08
1 -9 -20 3.3 2.96
1 -9 -20 5.87 3.45
1 -9 -23 304.77 23.25
8 1 -23 252.52 24.08
9 -7 -23 212.09 21.87
-7 -2 -20 1.29 2.39
9 -7 -20 2.68 2.51
9 -7 -17 637.53 14.23
-7 -2 -17 615.46 14.03
9 -7 -17 607.48 14.8
9 -7 -14 73.67 9.35
-7 -2 -14 96.45 16.14
9 -7 -14 95.65 6.48
9 -7 -11 655.31 17.39
-2 9 -11 630.96 12.65
-7 -2 -11 614.94 14.5
9 -7 -11 588.97 13.54
9 -7 -8 146.12 10.32
2 -9 8 143.25 6.26
-2 9 -8 161.17 6.9
-7 -2 -8 178.86 13.28
9 -7 -5 1893.32 29.28
2 -9 5 1992.99 28.95
-2 9 -5 1947.52 27.71
-7 -2 -5 1880.17 29.56
9 -7 -2 500.1 8.61
2 -9 2 508.03 7.69
-2 9 -2 521.15 7.09
-7 -2 -2 517.05 9.25
-7 -2 -2 519.51 6.54
9 -7 1 2348.12 27.19
2 -9 -1 2213.8 25.39
-7 -2 1 2250.26 25.71
2 -9 -4 790.08 13.45
-7 -2 4 736.83 12.51
7 2 -4 750.71 11.98
-9 7 -4 733.37 15.94
2 -9 -7 1217.64 29.94
-9 7 -7 1171.31 25.57
7 2 -7 1225.41 23.62
2 -9 -10 469.27 14.81
-7 -2 10 448.54 10.33
-9 7 -10 442.81 10.97
2 -9 -10 441.87 11.58
2 -9 -13 490.96 16.04
-7 -2 13 512.64 12.94
-9 7 -13 525.01 16.04
2 -9 -13 526.36 18.75
2 -9 -16 368.04 12.08
-9 7 -16 337.43 9.77
2 -9 -16 337.29 10
2 -9 -19 108.51 12.86
2 -9 -19 165.47 19.29
2 -9 -22 215.61 14.48
2 -9 -22 163.22 26.67
-6 -3 -21 25.93 5.45
9 -6 -21 31.69 5.59
9 -6 -18 15.88 4.59
-6 -3 -18 24.49 5.43
9 -6 -18 14.23 6.05
9 -6 -15 120.22 12.23
-6 -3 -15 93.49 7.61
9 -6 -15 77.61 11.44
9 -6 -12 241 8.95
-3 9 -12 233.96 6.06
-6 -3 -12 242.4 16.23
9 -6 -12 230.07 8.28
3 -9 9 126.93 5.63
9 -6 -9 129.34 6.36
-3 9 -9 123.91 5.95
-6 -3 -9 120.9 7.28
9 -6 -6 878.56 17.09
3 -9 6 858.19 13.72
-3 9 -6 894.63 13.96
-6 -3 -6 848.22 17.05
9 -6 -3 11.48 2.5
3 -9 3 11.73 2.69
-3 9 -3 13.81 3.26
-6 -3 -3 12.35 4.2
-6 -3 -3 9.95 2.05
3 -9 0 610.89 8.46
-6 -3 0 639.14 8.8
-9 6 0 663.92 12.72
3 -9 -3 40.15 8.15
-6 -3 3 37.83 4.48
6 3 -3 40.12 4.71
-9 6 -3 39.34 4.16
3 -9 -6 216.45 7.47
-6 -3 6 221.17 6.8
-9 6 -6 231.23 8.48
6 3 -6 214.52 8.4
-6 -3 9 108.4 4.98
3 -9 -9 103.26 7.21
-6 -3 9 120.78 5.65
-9 6 -9 130.92 7.77
3 -9 -12 650.94 16.98
-6 -3 12 662.55 12.32
-9 6 -12 655.12 18.5
3 -9 -12 632.52 16.08
3 -9 -15 33.12 5.35
-9 6 -15 30.34 6.2
3 -9 -15 34.17 6.05
3 -9 -18 93.37 13.39
-9 6 -18 86.04 14.37
3 -9 -18 91.65 6.1
3 -9 -21 33.54 8.23
3 -9 -21 30 8.1
-5 -4 -22 19.4 4.14
9 -5 -22 21.47 4.49
-5 -4 -22 22.42 4.69
-5 -4 -19 32.33 4.25
9 -5 -19 31.89 5.41
9 -5 -16 28.09 4.38
-5 -4 -16 29.68 6.73
9 -5 -16 28.7 4.69
9 -5 -13 4.71 1.43
-4 9 -13 1.38 0.64
-5 -4 -13 7.01 2.28
-4 9 -13 3.24 1.38
9 -5 -13 3.49 2.63
9 -5 -10 88.2 9.78
-4 9 -10 81.71 7.67
-5 -4 -10 96.48 9.32
-4 9 -10 90.05 8.18
9 -5 -10 93.88 8.88
9 -5 -7 59.28 4.84
4 -9 7 55.38 5.1
-4 9 -7 58.47 3
-5 -4 -7 61.88 4.5
-5 -4 -7 56.91 3.63
9 -5 -4 16.69 3.61
4 -9 4 11.81 1.93
-4 9 -4 20.28 4.07
-5 -4 -4 17.6 5.28
-9 5 4 17.45 2.58
-5 -4 -4 16.44 3.19
4 -9 1 220.1 10.15
-4 9 -1 233.61 8.77
-5 -4 -1 245.19 9.68
-9 5 1 246.73 10.39
4 -9 -2 1557.38 17.9
-5 -4 2 1628.19 18.4
5 4 -2 1625.13 18.27
-9 5 -2 1687.48 21.49
4 -9 -5 23.53 4.12
-5 -4 5 21.18 3.32
5 4 -5 18.75 3.03
-9 5 -5 16.4 3.31
4 -9 -8 28.67 6.12
-5 -4 8 31.66 4.28
-9 5 -8 34.58 6.1
5 4 -8 28.62 3.3
4 -9 -11 14.01 2.26
-9 5 -11 6.5 2.91
4 -9 -11 9.15 4.58
4 -9 -14 2.58 1.4
-9 5 -14 2.34 1.81
4 -9 -14 2.89 1.4
4 -9 -17 34.8 6
-9 5 -17 47.4 6.81
4 -9 -17 54.37 9.61
4 -9 -20 16.01 5.85
4 -9 -20 25.57 6.6
4 -9 -23 5.57 2.24
9 -4 -23 17.64 6.03
-4 -5 -23 20.97 5.2
-4 -5 -20 88.24 16.95
9 -4 -20 108.52 16.43
-4 -5 -20 123.34 10.86
9 -4 -17 39.28 6.15
-4 -5 -17 47.07 7.7
9 -4 -17 32.42 9.35
-4 -5 -17 54.05 7.51
9 -4 -14 109.59 13.45
-4 -5 -14 129.27 8.82
-5 9 -14 129.03 8.61
9 -4 -14 148.38 13.01
-4 -5 -14 131.75 8.5
9 -4 -11 2.9 1.69
-5 9 -11 7.47 1.37
-4 -5 -11 6.87 2.01
-5 9 -11 3.17 1.03
9 -4 -11 2.4 1.88
-4 -5 -11 3.27 2.44
9 -4 -8 458.5 10.73
-5 9 -8 467.93 10.68
-4 -5 -8 458.22 15.54
9 -4 -8 498.9 10.86
-4 -5 -8 489.56 14.09
5 -9 5 243.56 8.34
-5 9 -5 258.57 7.53
-4 -5 -5 241.04 12.71
-9 4 5 245.08 8.73
-4 -5 -5 232.9 6.84
-9 4 5 247.32 7.71
5 -9 2 750.2 10.04
-4 -5 -2 829.56 11.68
-9 4 2 803.71 13.92
5 -9 -1 18.42 3.43
-4 -5 1 18.88 3.41
4 5 -1 16.22 3
-9 4 -1 13.31 5.39
5 -9 -4 1893.82 28.1
-4 -5 4 1939.48 23.75
4 5 -4 1942.3 21.21
-9 4 -4 2036.1 23.45
5 -9 -7 35.92 4.13
-4 -5 7 30.96 3.07
-9 4 -7 26.9 3.95
4 5 -7 34.59 3.63
-4 -5 10 98.41 8.14
5 -9 -10 92.51 9.82
-4 -5 10 101.66 8.41
-9 4 -10 88.16 8.57
5 -9 -13 13.89 3.46
-9 4 -13 15.5 2.91
5 -9 -13 18.12 3.54
5 -9 -16 290.54 9.58
-9 4 -16 293.26 13.43
5 -9 -16 294.24 19.23
5 -9 -19 8.27 1.76
-9 4 -19 2.75 2.26
5 -9 -19 2 2.73
5 -9 -22 34.69 12.14
9 -3 -21 5.92 3.36
-3 -6 -21 1.63 2.68
-3 -6 -18 146.98 15.45
9 -3 -18 169.15 7.96
-3 -6 -18 162.05 12.83
-3 -6 -15 100.81 15.69
-6 9 -15 101.79 6.9
-9 3 15 111.3 3.81
9 -3 -15 99.92 14.51
-3 -6 -15 107.74 7.09
-6 9 -12 180.95 8.83
-3 -6 -12 189.18 7.74
-6 9 -12 180.73 6.38
-9 3 12 182.24 6.21
9 -3 -12 200.86 9.63
-3 -6 -12 172.05 9.19
-3 -6 -9 305.49 9.57
-6 9 -9 322.63 8.95
-9 3 9 336.19 11.84
9 -3 -9 330.65 9.51
6 -9 6 87.68 5.72
-6 9 -6 86.67 4.12
-3 -6 -6 82.14 9.14
-9 3 6 85.57 6.67
-3 -6 -6 82.72 4.29
6 -9 3 36.78 6.46
-6 9 -3 27.29 3.85
-3 -6 -3 40.71 5.6
-9 3 3 43.24 5.3
-9 3 3 42.59 2.29
3 6 3 45.2 3.28
6 -9 0 678.55 9.35
-3 -6 0 721.09 12.12
-9 3 0 734.51 11.71
6 -9 -3 1071.19 13.56
-3 -6 3 1153.65 15.29
3 6 -3 1116.88 14.09
-9 3 -3 1138.4 15.41
6 -9 -6 18.92 4.74
-3 -6 6 21.16 3.09
3 6 -6 19.05 2.75
-9 3 -6 24.89 5.56
6 -9 -9 215.4 10.49
-3 -6 9 230.89 5.09
-9 3 -9 208.88 18.89
3 6 -9 213.53 17.77
6 -9 -12 55.7 8.45
-9 3 -12 68.69 8.38
6 -9 -12 53.59 12.96
6 -9 -15 360.05 11.97
-9 3 -15 364.92 12.42
6 -9 -15 340.2 11.81
6 -9 -18 11.76 3.14
-9 3 -18 4.4 2.32
6 -9 -18 9.78 3.4
6 -9 -21 50.22 8.31
-2 -7 -22 4.19 2.03
-2 -7 -22 6.55 1.78
9 -2 -22 5.09 2.18
-2 -7 -19 43.41 10.81
-2 -7 -19 62.03 9.19
9 -2 -19 70.37 9.72
-2 -7 -16 157.02 11.9
-7 9 -16 150.63 8.13
-2 -7 -16 161.98 16.18
9 -2 -16 162.09 7.06
-9 2 13 22.55 3.48
-2 -7 -13 31.64 5.78
-7 9 -13 24.65 3.3
-9 2 13 26.45 4.92
-2 -7 -13 30.38 5.66
9 -2 -13 30.35 5.83
-9 2 10 12.48 1.97
-2 -7 -10 12.66 5.17
-7 9 -10 19.89 3.62
-9 2 10 18.35 3.07
-2 -7 -10 21.32 4.27
9 -2 -10 18.15 2.89
-9 2 7 57.17 5.35
-2 -7 -7 44.96 6.34
-9 2 7 46.81 4.61
-7 9 -7 54.87 6.11
9 -2 -7 47.25 4.15
-2 -7 -7 46.78 8.3
7 -9 4 41 6.16
-2 -7 -4 42.34 4.06
-9 2 4 42.41 2.51
2 7 4 50.2 2.27
7 -9 1 269.49 9.7
-2 -7 -1 258.86 10.55
-9 2 1 263.9 10.2
7 -9 -2 1003.82 13.7
-2 -7 2 987.42 12.86
2 7 -2 983.43 11.88
-9 2 -2 994.56 16.58
7 -9 -5 2.71 1.85
-2 -7 5 1.23 0.7
2 7 -5 -0.11 0.85
-9 2 -5 4.03 1.88
7 -9 -8 453.16 11.39
-2 -7 8 471.24 9.93
-9 2 -8 444.06 10.42
2 7 -8 461.31 9.55
7 -9 -11 145.16 7.93
-9 2 -11 141.3 11.38
7 -9 -14 38.75 4.83
-9 2 -14 31.26 4.5
7 -9 -14 33.48 6.14
7 -9 -17 16.51 2.68
-9 2 -17 18.78 4.6
7 -9 -17 30.02 6.64
7 -9 -20 35.96 4.5
-9 2 -20 33.3 4.91
7 -9 -20 30.3 7.4
7 -9 -23 3.5 1.9
-1 -8 -23 87.9 9.96
9 -1 -23 51.42 10.15
-1 -8 -20 1.23 2.47
-1 -8 -20 3.74 2.71
9 -1 -20 1.16 1.41
-1 -8 -17 34.92 6.99
-8 9 -17 30.02 4.53
-1 -8 -17 35.66 6.68
9 -1 -17 35.49 6.87
-1 -8 -14 70.99 11.09
-8 9 -14 61.21 7.82
-9 1 14 71.46 5.18
-1 -8 -14 86.62 14.07
9 -1 -14 68.54 6.01
-9 1 11 223.16 6.16
-1 -8 -11 239.17 7.84
-8 9 -11 227.17 10.96
-9 1 11 228.82 6.25
-1 -8 -11 222.01 12.89
9 -1 -11 231.41 7.48
-9 1 8 8.51 1.56
-1 -8 -8 6.36 2.88
-9 1 8 0.67 0.82
-8 9 -8 16.79 3.34
-1 -8 -8 6.32 2.2
9 -1 -8 6.06 1.58
8 -9 5 766.44 12.62
-1 -8 -5 690.79 13.53
-9 1 5 749.38 12.46
8 -9 2 96.14 4.43
-1 -8 -2 89.66 4.17
-9 1 2 93.41 5.66
1 8 2 102.79 5.49
8 -9 -1 553.8 13.27
-1 -8 1 554.08 11.07
-9 1 -1 563.24 11.64
8 -9 -4 20.84 4.14
-1 -8 4 23.29 3.8
1 8 -4 16.22 2.13
-9 1 -4 17.54 4.49
8 -9 -7 71.5 5.22
-1 -8 7 66.24 3.54
1 8 -7 57.09 3.85
-9 1 -7 70.39 6.15
8 -9 -10 305.99 9.29
-9 1 -10 287.76 12.16
1 8 -10 286.74 6.02
8 -9 -13 117.56 7.24
-9 1 -13 134.4 13.02
8 -9 -13 129.1 8.51
8 -9 -16 38.94 6.3
-9 1 -16 27.48 6.45
8 -9 -16 25.78 6.25
8 -9 -19 74 9.37
-9 1 -19 84.59 11.23
8 -9 -19 74.11 12.71
8 -9 -22 32.1 6.52
0 -9 -21 36.39 9.76
0 -9 -21 46.3 9.27
9 0 -21 37.78 8.61
0 -9 -18 230.13 11.05
0 -9 -18 245.87 19.12
9 0 -18 211.29 16.84
0 -9 -15 1.9 2.79
-9 9 -15 4.17 2.69
0 -9 -15 17.45 3.5
-9 0 12 795.44 20.29
0 -9 -12 753.47 23.29
-9 0 12 847.86 22.11
-9 9 -12 837.91 27.61
0 -9 -12 857.02 25.65
9 0 -12 829.56 22.89
-9 0 9 34.06 4.02
0 -9 -9 37.92 8.13
-9 0 9 27.77 4.08
-9 9 -9 27.42 4.92
9 0 -9 25.24 5.86
0 -9 -6 1305.66 26.46
-9 0 6 1359.86 27.96
-9 9 -6 1294.33 27.55
9 0 -6 1304.97 25.14
9 -9 3 19.24 3.2
0 -9 -3 22.71 3.88
-9 0 3 14.97 2.63
9 -9 0 2062.66 31.71
0 -9 0 1930.18 28.97
-9 0 0 2085.32 32.34
9 -9 -3 12.78 2.35
0 -9 3 11.41 2.3
0 9 -3 12.53 2.2
-9 0 -3 20.36 3.03
9 -9 -6 804.17 19.6
0 -9 6 849.16 17.63
0 9 -6 797.74 16.98
-9 0 -6 811.11 19.11
9 -9 -9 323.66 10.93
0 -9 9 328.29 7.72
0 9 -9 299.32 7.24
-9 0 -9 303.97 9.77
9 -9 -12 655.83 21.44
-9 0 -12 694.83 20.75
9 -9 -15 48.58 5.17
-9 0 -15 35.16 6.78
9 -9 -15 26.7 7.14
9 -9 -18 231.11 10.02
-9 0 -18 215.04 11.25
9 -9 -18 209.29 16.72
9 -9 -21 8.3 7.03
10 -9 -23 209.16 17.57
-9 -1 -20 4.47 3.41
10 -9 -20 2.79 2.8
10 -9 -17 200.49 11.84
-9 -1 -17 219.62 15.07
10 -9 -17 200.94 8.05
10 -9 -14 43.46 6.18
-9 -1 -14 42.47 7.94
10 -9 -11 893.12 25.54
-1 10 -11 875.34 22.15
-9 -1 -11 896.79 26.09
10 -9 -8 7.17 3.56
1 -10 8 1.77 0.88
-1 10 -8 5.79 1.26
-9 -1 -8 9.05 3.46
10 -9 -5 1062.72 24.38
1 -10 5 1110.21 24.19
-9 -1 -5 1025.52 25.38
10 -9 -2 538.78 13.38
1 -10 2 553.36 11.62
-9 -1 -2 537.89 11.28
10 -9 1 1534.07 24.96
1 -10 -1 1544.45 24.9
-9 -1 1 1615.43 24.84
1 -10 -4 333.69 9.47
-9 -1 4 311.64 8.95
-10 9 -4 305.17 9.46
1 -10 -7 322.39 8.76
-9 -1 7 323.2 8.8
-10 9 -7 313.8 10.78
9 1 -7 329.87 8.14
-9 -1 10 310.73 8.03
1 -10 -10 278.44 8.82
-9 -1 10 284.23 8.26
-10 9 -10 289.97 12.42
1 -10 -13 651.82 17.52
-9 -1 13 665.9 12.72
-10 9 -13 651.67 22.62
1 -10 -13 681.22 24.01
1 -10 -16 263.35 20.11
-10 9 -16 224.99 10.27
1 -10 -16 241.43 16.77
1 -10 -19 36.58 8.08
1 -10 -19 66.26 9.65
1 -10 -22 76.62 15.91
1 -10 -22 84.48 13.27
9 1 -22 83.34 13.81
-8 -2 -21 57.27 11.97
10 -8 -21 61.63 15.75
10 -8 -18 337.55 14.92
-8 -2 -18 359.12 12.89
10 -8 -18 327.86 12.11
10 -8 -15 53.03 6.9
-8 -2 -15 37.91 6.4
10 -8 -15 31.84 5.35
10 -8 -12 1176.18 35.93
-2 10 -12 1215.12 30.3
-8 -2 -12 1063.67 29.68
2 -10 9 -0.02 0.74
10 -8 -9 3.37 1.81
-2 10 -9 0.6 0.81
-8 -2 -9 2.08 2.15
10 -8 -6 1241.04 25.89
2 -10 6 1241.95 25.07
-2 10 -6 1195.37 23.88
-8 -2 -6 1206.17 27.85
10 -8 -3 148.93 5.92
2 -10 3 157.57 5.6
-8 -2 -3 145.5 5.75
-8 -2 -3 145.47 5.24
10 -8 0 4405.37 62.84
2 -10 0 4310.71 60.61
-8 -2 0 4436.44 63.06
2 -10 -3 35.72 6.15
-8 -2 3 48.81 6.31
-10 8 -3 51.09 9.41
2 -10 -6 1778.7 35.85
-8 -2 6 1851.93 36.56
-10 8 -6 1885.14 37.92
8 2 -6 1810.45 34.89
-8 -2 9 98.91 9.32
2 -10 -9 104.02 11.47
-8 -2 9 94.49 8.37
-10 8 -9 93.54 11.79
2 -10 -12 513.24 17.17
-8 -2 12 521.94 14.09
-10 8 -12 514.91 16.92
2 -10 -12 531.34 21.09
2 -10 -15 69.04 10.47
-10 8 -15 48.73 6.83
2 -10 -15 59.34 9.57
2 -10 -18 268.8 20.06
-10 8 -18 293.98 10.59
2 -10 -18 295.87 12.03
2 -10 -21 28.93 6.27
2 -10 -21 18.11 4.42
-7 -3 -22 133.84 15.62
10 -7 -22 115.93 21.6
-7 -3 -19 17.88 4
10 -7 -19 30.87 5.27
10 -7 -16 182.74 14.57
-7 -3 -16 174.15 10.03
10 -7 -16 155.65 7.07
10 -7 -13 267.56 10.88
-7 -3 -13 268.88 10.18
10 -7 -13 264.56 10.1
10 -7 -10 121.15 5.04
-3 10 -10 115.11 4.45
-7 -3 -10 112.83 9.21
10 -7 -7 291.85 7.61
3 -10 7 290.33 7.65
-3 10 -7 281.32 7.93
-7 -3 -7 302.14 9.53
10 -7 -4 240.14 7.97
3 -10 4 242.62 8.21
-3 10 -4 246.68 7.27
-7 -3 -4 234.79 8.44
-7 -3 -4 231.92 8.35
10 -7 -1 817.98 14.87
3 -10 1 848.16 14.17
-7 -3 -1 797 17.84
3 -10 -2 802.76 17.5
-7 -3 2 761.37 14.3
-10 7 -2 795.03 14.98
3 -10 -5 821.09 16.28
-7 -3 5 790.66 16.4
7 3 -5 771.45 14.14
-10 7 -5 789.98 15.21
3 -10 -8 219.34 7.67
-7 -3 8 201.57 5.13
-10 7 -8 205.34 7.51
7 3 -8 208.81 6.14
-7 -3 11 495.38 9.8
3 -10 -11 451.54 19.29
-7 -3 11 455.04 9.93
-10 7 -11 445.62 11.68
3 -10 -14 2.16 1.5
-10 7 -14 4.49 1.64
3 -10 -14 3.62 1.92
3 -10 -17 177.3 12.19
-10 7 -17 174.34 7.57
3 -10 -17 178.04 11.35
3 -10 -20 2.88 2.12
3 -10 -20 4.87 2.31
3 -10 -23 74.04 16.29
-6 -4 -23 36.97 7.35
-6 -4 -20 11.65 6.2
10 -6 -20 16.57 4.78
10 -6 -17 1.11 1.13
-6 -4 -17 1.22 1.99
10 -6 -17 1.68 1.32
10 -6 -14 13.64 3.02
-6 -4 -14 12.5 2.6
10 -6 -14 17.06 2.71
10 -6 -11 64.15 5.21
-4 10 -11 58.31 5.13
-6 -4 -11 73.41 11.61
-4 10 -11 64.56 3.96
10 -6 -11 62.66 7.34
10 -6 -8 225.51 7.62
4 -10 8 205.53 17.57
-4 10 -8 220.46 7.18
-6 -4 -8 210.88 18.58
-6 -4 -8 213.57 19.39
10 -6 -5 77.16 5.96
4 -10 5 63.93 4.68
-4 10 -5 65.55 3.05
-6 -4 -5 56.14 3.89
-10 6 5 58.88 5.02
-6 -4 -5 63.24 4.01
4 -10 2 3.36 1.7
-6 -4 -2 4.57 2.75
-10 6 2 4.22 2.67
4 -10 -1 765.05 13.32
-6 -4 1 736.03 12.29
-10 6 -1 749.65 12.84
6 4 -1 690.75 10.33
4 -10 -4 29.9 5.5
-6 -4 4 31.16 5.91
6 4 -4 22.36 4.05
-10 6 -4 30.49 5.86
4 -10 -7 32.01 4.27
-6 -4 7 22.83 3.28
-10 6 -7 24.25 5.1
6 4 -7 17.67 3.93
4 -10 -10 11.34 2.47
-6 -4 10 14.61 2.65
-10 6 -10 18.51 3.75
4 -10 -13 28.92 7.5
-10 6 -13 31.99 6.85
4 -10 -13 30.27 4.81
4 -10 -16 101.88 11.18
-10 6 -16 111.94 11.76
4 -10 -16 117.98 9.82
4 -10 -19 54.72 11.07
-10 6 -19 65.98 10.76
4 -10 -19 54.34 16.8
4 -10 -22 4.85 3.83
-5 -5 -21 65.7 12.5
10 -5 -21 82.3 13.7
-5 -5 -21 97.26 13.47
-5 -5 -18 198.12 18.57
10 -5 -18 207.91 16.99
-5 -5 -18 227.79 10.42
10 -5 -15 203.04 14.51
-5 -5 -15 199.42 25.89
10 -5 -15 207.73 12.71
-5 -5 -15 216.72 13.07
10 -5 -12 15.46 2.54
-5 10 -12 7.41 1.07
-5 -5 -12 8.59 3.07
-5 10 -12 6.08 1.73
10 -5 -12 4.29 1.26
-5 -5 -12 4.85 2.78
10 -5 -9 405.68 10.14
-5 10 -9 417.42 12.31
-5 -5 -9 421.25 13.93
-5 -5 -9 413.53 12.01
5 -10 6 363.15 8.46
-5 10 -6 358.5 11.35
-5 -5 -6 343.02 10.45
-5 -5 -6 347.07 11.48
5 -10 3 717.67 11.65
-5 -5 -3 746.56 12.56
-10 5 3 771.28 15.7
5 -10 0 637.47 13.38
-5 -5 0 651.23 15.12
-10 5 0 677.41 11.45
5 5 0 667.69 10.41
5 -10 -3 2848.51 44.08
-5 -5 3 2861.23 40.96
5 5 -3 2777.62 39.98
-10 5 -3 3061.52 43.78
5 -10 -6 25.26 5.23
-5 -5 6 28.86 4.42
5 5 -6 32.52 3.86
-10 5 -6 28.86 7.97
5 -10 -9 248.08 7.58
-5 -5 9 237.66 5.93
-10 5 -9 231.04 8.28
5 5 -9 242.25 5.76
5 -10 -12 11.24 2.32
-10 5 -12 23.86 4.73
5 -10 -15 378.05 13
-10 5 -15 418.83 10.77
5 -10 -15 418.89 16.07
5 -10 -18 7.85 2.52
-10 5 -18 10.49 3.25
5 -10 -18 14.06 3.22
5 -10 -21 132.15 13.54
5 -10 -21 149.09 10.97
-4 -6 -22 1.84 2.36
10 -4 -22 3.13 1.58
-4 -6 -22 2.55 1.79
-4 -6 -19 403.78 10.47
10 -4 -19 375.56 10.62
-4 -6 -19 387.54 12.99
-4 -6 -16 1.77 1.91
-10 4 16 1.12 1.26
10 -4 -16 3.52 2.46
-4 -6 -16 2.09 1.54
-4 -6 -13 685.52 15.9
-6 10 -13 697.04 12.8
-10 4 13 713.26 15.75
10 -4 -13 680.74 16.93
-4 -6 -13 691.39 15.76
-6 10 -10 41.79 5.55
-4 -6 -10 60.72 12.14
-6 10 -10 72.21 4.87
-10 4 10 61.29 4.96
10 -4 -10 68.91 6.34
-4 -6 -10 62.99 4.25
6 -10 7 1682.58 33.13
-4 -6 -7 1642.85 34.39
-10 4 7 1670.89 33.8
-4 -6 -7 1669.5 33.37
6 -10 4 547.02 9.48
-4 -6 -4 575.19 12.46
-10 4 4 583.58 14.18
-10 4 4 603.03 9.73
6 -10 1 2070.18 30.07
-4 -6 -1 2127.29 31.93
-10 4 1 2187.55 32.75
4 6 1 2200.09 30.92
6 -10 -2 304.36 10.79
-4 -6 2 280.35 8.53
4 6 -2 261.27 7.71
-10 4 -2 247.32 8.19
6 -10 -5 1226.68 26.43
-4 -6 5 1332.94 21.12
4 6 -5 1331.14 19.56
-10 4 -5 1355.92 21.58
6 -10 -8 85.08 9.54
-4 -6 8 73.85 4.14
-10 4 -8 76.12 4.91
4 6 -8 68.37 4.98
6 -10 -11 650.55 17.52
-10 4 -11 720.52 21.99
6 -10 -14 600.87 24.9
-10 4 -14 578.71 17.79
6 -10 -14 566.77 18.75
6 -10 -17 120.25 10.62
-10 4 -17 132.54 12.86
6 -10 -17 155.95 10.42
6 -10 -20 222.38 19.01
-10 4 -20 193.35 20.05
6 -10 -20 231.81 18.45
6 -10 -23 47.2 8.1
10 -3 -23 18.48 6.54
-3 -7 -23 22.33 5.55
10 -3 -20 166.81 12.2
-3 -7 -20 204.83 24.97
-3 -7 -17 0.49 1.99
10 -3 -17 4.72 2.29
-3 -7 -17 7.02 2.4
-3 -7 -14 372.88 14.41
-7 10 -14 406.24 12.01
-10 3 14 400.66 12.3
10 -3 -14 398.79 15.15
-3 -7 -14 407.18 15.16
-3 -7 -11 86.54 7.01
-7 10 -11 71.9 6.12
-10 3 11 76.92 7.03
10 -3 -11 69.4 7
-3 -7 -11 78.72 10.57
-3 -7 -8 989.68 27.3
-10 3 8 966.34 23.89
-7 10 -8 1022 22.9
-3 -7 -8 977.54 23.54
7 -10 5 8.18 1.66
-3 -7 -5 6.17 2.62
-10 3 5 9.45 1.71
7 -10 2 1511.09 22.59
-3 -7 -2 1563.45 24.06
-10 3 2 1641.24 27.39
3 7 2 1571.89 24.05
7 -10 -1 1.43 1.57
-3 -7 1 2.61 1.62
-10 3 -1 -1.25 2.41
7 -10 -4 1077.03 17.88
-3 -7 4 1102.68 17.62
3 7 -4 1073.08 17.65
7 -10 -7 172.62 7.96
-3 -7 7 152.53 6.49
3 7 -7 139.46 5.84
-10 3 -7 132.15 6.87
7 -10 -10 398.69 14.09
-3 -7 10 363.86 7.11
-10 3 -10 392.05 13.99
3 7 -10 382.18 7.46
7 -10 -13 59.11 8.13
-10 3 -13 34.18 4.41
7 -10 -16 440.59 19.78
-10 3 -16 506.86 19.87
7 -10 -16 510.44 23.44
7 -10 -19 62.23 9.72
-10 3 -19 45.64 7.38
7 -10 -19 41.82 7.8
7 -10 -22 88.43 18.1
-2 -8 -21 18.67 7.79
-2 -8 -21 33.78 7.13
10 -2 -21 20.17 3.76
-2 -8 -18 23.31 5.01
-2 -8 -18 23.83 4.07
10 -2 -18 16.12 4.37
-2 -8 -15 188.9 13.55
-8 10 -15 167.48 8.63
-10 2 15 181.96 5.8
-2 -8 -15 184.54 12.53
10 -2 -15 180.1 7
-2 -8 -12 68.39 12.89
-8 10 -12 57.03 6.53
-10 2 12 58.72 5.95
-2 -8 -12 61.62 9.7
10 -2 -12 55.11 9.35
-2 -8 -9 310.58 9.8
-10 2 9 301.16 8
-8 10 -9 317.58 9.14
-2 -8 -9 307.24 9.23
10 -2 -9 297.04 9.89
8 -10 6 33.86 6.62
-2 -8 -6 30.42 5.98
-10 2 6 29.84 6.12
8 -10 3 389.27 8.67
-2 -8 -3 386.58 8.14
-10 2 3 377.72 10.33
8 -10 0 44 8.05
-2 -8 0 38.16 5.19
-10 2 0 39.16 3.28
8 -10 -3 610.72 10.77
-2 -8 3 617.33 11.63
-10 2 -3 574.5 14.31
8 -10 -6 7.77 3.9
-2 -8 6 8.11 1.59
2 8 -6 5.91 1.17
-10 2 -6 9.65 2.26
8 -10 -9 212.64 11.4
-2 -8 9 236.67 6.6
-10 2 -9 238.12 9.25
2 8 -9 236.65 6.33
8 -10 -12 0.61 2.34
-10 2 -12 7.8 3.48
8 -10 -15 241.23 7.63
-10 2 -15 239.69 10.75
8 -10 -18 20.9 3.96
-10 2 -18 8.21 4.14
8 -10 -18 7.77 3.55
-10 2 -21 16.06 4.71
8 -10 -21 24.22 3.48
-1 -9 -22 15.3 7.84
-1 -9 -22 55.35 8.93
10 -1 -22 45.75 7.02
-1 -9 -19 37.15 8.27
-1 -9 -19 55.41 7.81
10 -1 -19 46.56 6.44
-1 -9 -16 1.86 2.57
-9 10 -16 1.15 0.93
-1 -9 -16 0.82 3.11
10 -1 -16 0.87 1.56
-1 -9 -13 5.07 3.32
-9 10 -13 5.02 1.77
-10 1 13 1.08 0.72
-1 -9 -13 2.98 1.99
10 -1 -13 2.84 2.13
-1 -9 -10 28.68 4.95
-10 1 10 27.25 4.39
-9 10 -10 27.04 4.58
-1 -9 -10 23.6 4.98
10 -1 -10 28.95 4.22
-1 -9 -7 41.34 8.34
-10 1 7 36.03 5.12
-9 10 -7 28.82 4.5
9 -10 4 327.47 9.67
-1 -9 -4 300.98 9.99
-10 1 4 299.21 7.47
9 -10 1 460.63 8.76
-1 -9 -1 460.97 13.73
-10 1 1 470.07 11.14
9 -10 -2 68.84 12.13
-1 -9 2 71 4.96
-10 1 -2 65.88 7.7
9 -10 -5 257.89 7.99
-1 -9 5 257.1 7.1
1 9 -5 242.58 7.72
-10 1 -5 251.07 7.9
9 -10 -8 61.23 6.95
-1 -9 8 55.21 5.92
1 9 -8 51.12 7.14
-10 1 -8 71 9.29
-1 -9 11 1.8 0.54
9 -10 -11 3.9 2.04
-10 1 -11 1.74 2.24
9 -10 -14 74.87 7.74
-10 1 -14 83.03 9.77
9 -10 -17 26.31 4
-10 1 -17 22.86 4.88
9 -10 -20 6.37 2.51
-10 1 -20 4.9 2.2
9 -10 -20 3.74 2.39
9 -10 -23 40.88 12.33
0 -10 -20 4.09 3.22
0 -10 -20 17.33 3.82
10 0 -20 15.52 2.64
0 -10 -17 21.89 4.88
-10 10 -17 11.51 3.37
0 -10 -17 22.95 3.74
10 0 -17 18.79 3.23
0 -10 -14 33.69 7.65
-10 0 14 21.89 4.74
-10 10 -14 34.01 4.95
0 -10 -14 33.14 5.66
10 0 -14 31.15 4.07
0 -10 -11 552.55 18.83
-10 0 11 540.53 15.68
-10 10 -11 546.69 19.14
10 0 -11 526.6 15.48
0 -10 -8 49.07 10.57
-10 0 8 42.8 5.95
-10 10 -8 45.31 9.78
10 0 -8 38.68 5.13
0 -10 -5 252.12 7.94
-10 0 5 220.13 6.25
-10 10 -5 238.49 7.2
10 -10 2 980.05 25.38
0 -10 -2 959.24 21.99
-10 0 2 981.63 22.61
10 -10 -1 46.73 8.63
0 -10 1 52.63 5.16
-10 0 -1 42.98 3.63
10 -10 -4 123.94 7.54
0 -10 4 124.89 6.65
-10 0 -4 123.76 9.18
10 -10 -7 11.12 2.85
0 -10 7 9.57 2.85
0 10 -7 9.05 2.1
-10 0 -7 8.92 3.84
0 -10 10 124.92 3.76
10 -10 -10 126.63 4.83
0 10 -10 130.18 2.87
-10 0 -10 143.18 10.36
10 -10 -13 199.78 11.13
-10 0 -13 179.61 11.65
10 -10 -16 67.88 7.23
-10 0 -16 68.52 11.6
10 -10 -19 2.04 2.12
-10 0 -19 3.04 2.62
-10 -1 -21 25.4 5.83
11 -10 -18 18.61 2.97
-10 -1 -18 14.4 5.73
11 -10 -15 25.18 4.29
-10 -1 -15 21.88 4.49
11 -10 -12 80.57 9.99
-10 -1 -12 84.47 14.28
11 -10 -9 121.1 7.77
1 -11 9 123.69 6.34
-1 11 -9 106.31 4.99
-10 -1 -9 130.81 11.37
11 -10 -6 -0.53 1.86
1 -11 6 0.55 0.59
-10 -1 -6 5.33 1.75
11 -10 -3 8.72 2.65
1 -11 3 14.15 2.9
-10 -1 -3 9.87 4.91
11 -10 0 321.57 9.59
1 -11 0 327.59 9.46
-10 -1 0 323.82 11.63
1 -11 -3 38.06 7.72
-10 -1 3 35.75 5.31
1 -11 -6 2.94 1.47
-10 -1 6 0.49 1.98
-11 10 -6 0.35 1.35
1 -11 -9 61.04 9.33
-10 -1 9 60.98 6.36
-11 10 -9 57.44 8.74
10 1 -9 57.13 3.87
1 -11 -12 281.58 17.38
-10 -1 12 260.16 7.48
-11 10 -12 244.25 8.54
10 1 -12 251.76 9.41
1 -11 -15 22.41 5.47
-11 10 -15 31.29 7.33
1 -11 -15 50.31 7.21
10 1 -15 36.84 7.35
1 -11 -18 50.23 10.81
1 -11 -18 57.77 9.66
10 1 -18 42.35 10.64
1 -11 -21 4.85 2.26
1 -11 -21 4.6 3.28
10 1 -21 2.26 2.04
-9 -2 -22 63.77 13.78
11 -9 -22 49.09 13.9
-9 -2 -19 80.19 16
11 -9 -16 2.94 1.84
-9 -2 -16 -0.2 1.62
11 -9 -13 170.4 8.64
-9 -2 -13 162.1 6.29
2 -11 10 168.16 6.6
11 -9 -10 162.9 9.65
-2 11 -10 141.41 5.57
-9 -2 -10 151.61 8.08
11 -9 -7 44.36 5.21
2 -11 7 44.31 7.26
-2 11 -7 38.44 4.88
-9 -2 -7 49.9 11.78
11 -9 -4 414.91 10.2
2 -11 4 452.02 11.73
-9 -2 -4 381.26 12.76
11 -9 -1 1011.35 21.46
2 -11 1 1001.41 21.16
-9 -2 -1 951.52 19.88
2 -11 -2 307.05 8.1
-9 -2 2 299.85 8.27
-11 9 -2 293.06 9.86
2 -11 -5 570.95 15.63
-9 -2 5 534.91 13.77
-11 9 -5 564.17 14.48
2 -11 -8 318.63 15.17
-9 -2 8 308.53 8.07
-11 9 -8 309.65 10.8
-9 -2 11 28.75 3.04
2 -11 -11 33.94 6.09
-9 -2 11 24.16 3.86
-11 9 -11 29.67 4.6
2 -11 -14 115.38 14.39
-11 9 -14 105.72 9.18
2 -11 -14 113.95 9.83
2 -11 -17 174.05 13.55
-11 9 -17 189.58 8.2
2 -11 -17 194.88 26.02
2 -11 -20 2.56 1.3
2 -11 -20 1.66 1.6
-8 -3 -20 1.88 2.55
11 -8 -20 6.91 3.34
11 -8 -17 61.73 7.28
-8 -3 -17 53.18 10.31
11 -8 -17 47.07 8.9
11 -8 -14 34.95 5.37
-8 -3 -14 31.97 6.94
11 -8 -11 386.87 15.12
-3 11 -11 363.35 10.92
-8 -3 -11 359.69 14.99
11 -8 -8 142.74 5.47
3 -11 8 130.09 6.29
-3 11 -8 130.11 4.62
-8 -3 -8 140.72 6.44
11 -8 -5 212.67 18.46
3 -11 5 197.7 8.57
-8 -3 -5 165.17 8.3
-8 -3 -5 174.58 7.79
11 -8 -2 60.15 9.15
3 -11 2 55.45 4.72
-8 -3 -2 54.28 5.44
3 -11 -1 773.91 12.71
-8 -3 1 691.43 11.77
-11 8 -1 699.25 14.96
3 -11 -4 314.84 10.69
-8 -3 4 309.95 7.94
-11 8 -4 305.1 9.32
3 -11 -7 5.14 2.61
-8 -3 7 9.73 2.01
-11 8 -7 11.04 2.82
8 3 -7 8.1 1.47
-8 -3 10 83.71 4.5
3 -11 -10 93.99 15
-8 -3 10 79.71 6.89
-11 8 -10 76.72 5.5
3 -11 -13 39.83 6.2
-11 8 -13 41.1 8.73
3 -11 -16 162.29 16.35
-11 8 -16 140.74 13.96
3 -11 -16 150.67 10.83
3 -11 -19 3.56 1.89
3 -11 -19 7.49 3.95
3 -11 -22 29.12 6.82
-7 -4 -21 15.49 3.76
11 -7 -21 9.65 4.15
-7 -4 -21 13.36 2.73
-7 -4 -18 10.66 2.61
11 -7 -18 11.69 3.58
11 -7 -15 0.93 1.78
-7 -4 -15 4.77 2.26
11 -7 -15 -0.83 1.99
11 -7 -12 20.12 3.11
-4 11 -12 13.38 2.19
-7 -4 -12 18.93 4.7
-4 11 -12 28.83 2.58
11 -7 -9 69.32 5.21
4 -11 9 63.57 3.5
-4 11 -9 62 4.23
-7 -4 -9 69.34 12.95
-7 -4 -9 62.54 4
11 -7 -6 6.43 2.63
4 -11 6 1.68 2.1
-7 -4 -6 11.58 2.59
-7 -4 -6 13.48 2.49
11 -7 -3 48.17 7.12
4 -11 3 50.1 5.16
-7 -4 -3 43.07 3.41
4 -11 0 370.85 14.99
-7 -4 0 345.75 10.9
-11 7 0 337.04 10.62
4 -11 -3 288.59 10.08
-7 -4 3 296.47 9.53
-11 7 -3 288.28 14.12
4 -11 -6 4.4 2.11
-7 -4 6 6.6 2.02
-11 7 -6 3.96 1.7
7 4 -6 2 1.11
4 -11 -9 22.66 3.78
-7 -4 9 19.41 2.37
-11 7 -9 22.1 3.77
4 -11 -12 31.41 6.04
-7 -4 12 12.39 2.24
-11 7 -12 25.21 5.3
4 -11 -15 94.75 9.42
-11 7 -15 78.1 10.72
4 -11 -15 99.29 13.86
4 -11 -18 49.34 7.97
-11 7 -18 29.16 6.93
4 -11 -18 39.09 10.14
4 -11 -21 3.81 3.07
4 -11 -21 8.87 4.58
-6 -5 -22 4.35 3.31
11 -6 -22 16.79 4.25
-6 -5 -22 16.94 4.44
-6 -5 -19 100.06 16.1
11 -6 -19 108.41 8.96
-6 -5 -19 94.99 13.72
11 -6 -16 1.64 1.68
-6 -5 -16 1.32 2.19
11 -6 -16 -0.48 2.13
-6 -5 -16 0.59 2.48
11 -6 -13 195.78 5.44
-6 -5 -13 184.78 13.61
-5 11 -13 185.42 11.14
11 -6 -13 196.17 8.56
-6 -5 -13 204.37 14.54
11 -6 -10 274.8 11.01
-5 11 -10 253.55 8.01
-6 -5 -10 271.39 9.14
-6 -5 -10 258.72 11.3
11 -6 -7 536.32 12.62
5 -11 7 533.34 13.34
-6 -5 -7 528.75 14.33
-6 -5 -7 541.94 13.27
5 -11 4 108.64 6.45
-6 -5 -4 121.22 7.99
-11 6 4 114.46 5.66
-11 6 4 123.84 6.61
5 -11 1 285.18 8.57
-6 -5 -1 290.35 9.17
-11 6 1 312.38 10.09
5 -11 -2 161.99 6.48
-6 -5 2 166.74 9.7
-11 6 -2 152.85 5.66
5 -11 -5 558.07 14.65
-6 -5 5 587.9 12.87
6 5 -5 596.01 12.67
-11 6 -5 601.35 17.52
5 -11 -8 311.34 9.82
-6 -5 8 302.55 8.6
-11 6 -8 315.17 11.38
6 5 -8 294.48 7.1
-6 -5 11 65.5 4.06
5 -11 -11 82.91 11.5
-6 -5 11 67.82 3.69
-11 6 -11 81.38 8.91
5 -11 -14 253.35 16.08
-11 6 -14 213.83 12.49
5 -11 -17 69.04 9.78
-11 6 -17 86.36 12.11
5 -11 -17 112.78 14.72
5 -11 -20 56.01 11.08
5 -11 -20 67.61 11.42
5 -11 -23 14.56 4.3
11 -5 -23 25.55 8.11
-5 -6 -23 33.3 6.61
-5 -6 -20 362.7 10.07
11 -5 -20 372.71 14.51
-5 -6 -20 343.35 20.11
-5 -6 -17 150.01 12.24
11 -5 -17 146.28 6.31
-5 -6 -17 168.57 14.99
-5 -6 -14 887.53 25.42
-6 11 -14 896.75 21.1
-11 5 14 907.66 23.86
11 -5 -14 867.11 25.16
-5 -6 -14 862.74 26.29
-6 11 -11 4.59 0.98
-5 -6 -11 14.11 4.14
-6 11 -11 9.75 1.77
-11 5 11 15.24 2.33
-5 -6 -11 16.21 4.02
6 -11 8 1325.26 29.53
-5 -6 -8 1361.96 35.7
-11 5 8 1317.59 32.74
-5 -6 -8 1378.86 29.26
6 -11 5 2.78 2.2
-5 -6 -5 7.4 3.36
-11 5 5 -0.18 1.83
-11 5 5 1.32 1.24
6 -11 2 2333.79 34.35
-5 -6 -2 2358.43 35.04
-11 5 2 2390.42 35.35
6 -11 -1 84.22 6.04
-5 -6 1 87.52 6.3
-11 5 -1 90.05 7.85
6 -11 -4 3740.42 73.07
-5 -6 4 4053.43 333.29
-11 5 -4 3941.45 75.47
6 -11 -7 -0.24 2.79
-5 -6 7 2.35 1.58
-11 5 -7 2.21 1.5
5 6 -7 2.4 1.31
6 -11 -10 1155.13 27.55
-5 -6 10 1192.76 22.54
-11 5 -10 1170.08 27.51
5 6 -10 1198.49 22.63
6 -11 -13 205.44 10.87
-11 5 -13 157.23 14.46
6 -11 -16 250.71 11.99
-11 5 -16 263.84 14.57
6 -11 -16 249.11 11.7
6 -11 -19 34.99 4.88
-11 5 -19 20.97 3.68
6 -11 -19 18.09 4.23
6 -11 -22 159.71 22.61
11 -4 -21 76.94 14.81
-4 -7 -21 106.88 15.45
-4 -7 -18 245.11 11.65
11 -4 -18 216.23 15.64
-4 -7 -18 248.29 11.15
-4 -7 -15 237.93 18.75
-7 11 -15 227.82 11.75
-11 4 15 251.02 9.54
11 -4 -15 271.56 12.44
-4 -7 -15 248.03 11.84
-4 -7 -12 736.31 20.04
-7 11 -12 737.83 15.52
-11 4 12 708.6 15.54
11 -4 -12 682.5 17.69
-4 -7 -12 707.41 17.11
-4 -7 -9 643.77 17.72
-11 4 9 649.01 15.67
-7 11 -9 639.47 15.02
-4 -7 -9 638.84 14.66
7 -11 6 1024.09 21.55
-4 -7 -6 1005.07 21.5
-11 4 6 978.54 25.33
7 -11 3 2554.08 37.8
-4 -7 -3 2697.74 41.11
-11 4 3 2509.6 37.11
-11 4 3 2609.8 36.33
4 7 3 2586.17 36.69
7 -11 0 692.23 11.57
-4 -7 0 705.55 13.96
-11 4 0 690.11 11.74
4 7 0 706.4 11.35
7 -11 -3 1534.1 23.91
-4 -7 3 1515.06 24.33
-11 4 -3 1514.8 28.27
-4 -7 6 377.69 8.56
4 7 -6 374.05 8.32
-11 4 -6 371.08 11.25
7 -11 -9 955.01 21.93
-4 -7 9 983.41 19.43
-11 4 -9 943.14 22.41
4 7 -9 963.28 18.9
7 -11 -12 136.65 10.37
-11 4 -12 185.75 11.77
7 -11 -15 820.22 33.61
-11 4 -15 885.73 33.44
7 -11 -18 23.58 3.43
-11 4 -18 48.6 6.3
7 -11 -18 46.37 9.41
7 -11 -21 339.84 21.46
7 -11 -21 333.07 17.42
-3 -8 -22 1.42 2.78
11 -3 -22 1.02 1.76
-3 -8 -22 -0.17 2.29
-3 -8 -19 214.19 18.45
11 -3 -19 218 8.7
-3 -8 -19 238.65 13.27
-3 -8 -16 32.26 4.91
11 -3 -16 28.28 4.54
-3 -8 -16 36.31 5.77
-3 -8 -13 1224.71 31.84
-8 11 -13 1231.17 29.69
-11 3 13 1204.96 32.45
11 -3 -13 1128.74 30.26
-3 -8 -13 1238.47 38.34
-3 -8 -10 291.78 9.83
-11 3 10 311.14 8.61
-8 11 -10 296.73 9.63
11 -3 -10 317.84 10.24
-3 -8 -10 308.81 9.51
8 -11 7 535.58 14.34
-3 -8 -7 524 14.77
-11 3 7 524.84 12.83
8 -11 4 88.62 5.16
-3 -8 -4 92.11 6.4
-11 3 4 89.72 6.13
8 -11 1 1065.42 18.53
-3 -8 -1 1047.69 19.46
-11 3 1 1019.93 18.65
3 8 1 1048.44 16.99
8 -11 -2 54.43 9.89
-3 -8 2 50.16 3.88
-11 3 -2 55.6 10.46
8 -11 -5 1470.91 30.5
-3 -8 5 1511.92 30.93
3 8 -5 1473.61 29.21
-11 3 -5 1542.54 31.89
8 -11 -8 940.26 25.68
-3 -8 8 971.66 20.39
-11 3 -8 900.4 26.38
3 8 -8 936.46 19.54
8 -11 -11 489.05 14.93
-11 3 -11 532.5 16.21
3 8 -11 498.32 12.48
8 -11 -14 520.67 13.41
-11 3 -14 502.31 12.44
8 -11 -17 106.67 11.92
-11 3 -17 100.71 19.66
8 -11 -20 48.13 6.75
-11 3 -20 25.19 6.72
8 -11 -20 27.46 6.17
-2 -9 -20 8.82 4.55
-2 -9 -20 19.88 4.27
11 -2 -20 10.36 3.82
-2 -9 -17 15.63 3.71
-2 -9 -17 10.09 3.82
11 -2 -17 10.82 3.37
-2 -9 -14 165.03 19.09
-9 11 -14 146.5 7.48
-11 2 14 152.62 5.13
-2 -9 -14 159.9 14.7
11 -2 -14 145.49 5.31
-2 -9 -11 5.23 3.38
-11 2 11 -0.6 1.46
-9 11 -11 -0.7 1.57
-2 -9 -11 4.66 1.6
11 -2 -11 4.17 2.02
-2 -9 -8 32.55 5.36
-11 2 8 29.96 5.47
-9 11 -8 34.2 6.3
9 -11 5 170.79 7.51
-2 -9 -5 182.4 8.31
-11 2 5 182.77 8.36
9 -11 2 200.21 9.34
-2 -9 -2 183.55 10.9
-11 2 2 187.62 8.7
-11 2 2 190.45 7.57
9 -11 -1 17.99 3.54
-2 -9 1 23.84 4.45
-11 2 -1 21.97 4.2
9 -11 -4 271.63 7.81
-2 -9 4 244.37 7.2
-11 2 -4 266.35 13.6
9 -11 -7 1.71 2.69
-2 -9 7 1.31 1.14
2 9 -7 1.54 0.86
-11 2 -7 1.78 1.76
9 -11 -10 211.85 7.66
-2 -9 10 211.77 6.58
-11 2 -10 195.62 15.21
2 9 -10 197.02 5.87
9 -11 -13 35.84 5.03
-11 2 -13 23.64 4.84
9 -11 -16 62.06 8.23
-11 2 -16 36.38 7.52
9 -11 -19 -0.54 2.22
-11 2 -19 2.55 2.05
-1 -10 -21 0.88 2.24
-1 -10 -21 1.79 3.08
11 -1 -21 3.82 2.35
-1 -10 -18 9.38 3.12
-1 -10 -18 16.64 3.2
11 -1 -18 12.58 5.21
-1 -10 -15 71.23 13.82
-10 11 -15 76.04 11.24
-1 -10 -15 87.96 14.02
11 -1 -15 84 7.18
-1 -10 -12 56.64 6.6
-11 1 12 34.62 6.02
-10 11 -12 43.01 7.63
-1 -10 -12 50.88 9.67
11 -1 -12 41.35 6.94
-1 -10 -9 373.79 15.87
-11 1 9 400.97 11.19
-10 11 -9 395.92 14.33
11 -1 -9 401.03 9.34
-1 -10 -6 96.13 9.43
-11 1 6 103.29 10.6
-10 11 -6 97.27 8.8
10 -11 3 202.95 11.49
-1 -10 -3 206.61 22.87
-11 1 3 203.15 8.6
10 -11 0 31.08 6.68
-1 -10 0 38.41 7.64
-11 1 0 35.15 7.13
10 -11 -3 15.32 3.75
-1 -10 3 19.13 3.43
-11 1 -3 25.93 5.18
10 -11 -6 73.29 7.99
-1 -10 6 69.27 6.59
1 10 -6 57.36 6.86
-11 1 -6 66.88 7.36
10 -11 -9 125.93 11.2
-1 -10 9 113.28 5.21
1 10 -9 145.47 5.88
-11 1 -9 161.53 7.8
10 -11 -12 1.49 1.14
-11 1 -12 1.05 1.78
10 -11 -15 35.09 6.18
-11 1 -15 44.82 9.27
10 -11 -18 26.3 3.34
-11 1 -18 28.64 6.09
-11 1 -21 12.21 3.49
0 -11 -22 4.18 3.32
0 -11 -22 3.77 2.14
0 -11 -19 44.7 8.81
0 -11 -19 49.17 8.23
11 0 -19 40.64 8.39
0 -11 -16 211.52 17.01
-11 11 -16 257.49 11.63
0 -11 -16 275.48 19.57
11 0 -16 264.97 16.01
0 -11 -13 35.05 6.08
-11 0 13 21.64 4.25
-11 11 -13 32.32 5.37
11 0 -13 24.28 4.31
0 -11 -10 51.83 9.3
-11 0 10 57.68 6.46
-11 11 -10 64.02 9.65
11 0 -10 57.74 6.19
0 -11 -7 13.55 3.78
-11 0 7 8.48 2.57
-11 11 -7 3.06 1.3
11 -11 4 413.75 14.33
0 -11 -4 430.56 19.3
-11 0 4 447.95 12.79
11 -11 1 447.79 13.52
0 -11 -1 413.78 14.11
-11 0 1 434.6 14.18
11 -11 -2 128.57 6.5
0 -11 2 123.61 9.89
-11 0 -2 127.26 9.24
11 -11 -5 26.87 5.99
0 -11 5 29.51 5.92
-11 0 -5 28.94 6.32
11 -11 -8 493.09 12.77
0 -11 8 502.23 12.14
0 11 -8 488.66 11.07
-11 0 -8 513.06 15.15
0 -11 11 0.67 0.39
11 -11 -11 3.3 1.51
-11 0 -11 -0.68 2.95
11 -11 -14 58.59 7.46
-11 0 -14 46.3 9.42
-11 0 -17 6.96 3.07
-11 0 -20 72.87 12.73
12 -11 -19 42.35 5.8
-11 -1 -19 36.89 5.82
12 -11 -16 50.76 7.29
-11 -1 -16 50.02 8.2
12 -11 -13 98.38 11.34
-11 -1 -13 94.04 15.99
12 -11 -10 247.49 12.34
1 -12 10 233.33 5.75
-11 -1 -10 235.35 14.5
12 -11 -7 204.58 7.05
1 -12 7 184.53 7.12
-11 -1 -7 200.8 6.99
12 -11 -4 4.6 1.76
1 -12 4 7.34 2.2
-11 -1 -4 7.78 2.64
12 -11 -1 2.37 2.18
1 -12 1 5.28 1.81
-11 -1 -1 3.49 2.11
12 -11 2 92.52 8.73
1 -12 -2 91.01 8.71
-11 -1 2 78.74 8.2
1 -12 -5 457.28 19.86
-11 -1 5 483.92 14.99
-12 11 -5 450.98 14.34
1 -12 -8 -3.35 2.61
-11 -1 8 1.06 1.37
-12 11 -8 0.56 1.05
1 -12 -11 11.22 3.88
-11 -1 11 14.85 2.13
-12 11 -11 13.57 3.02
11 1 -11 14.86 2.38
1 -12 -14 195.97 13.45
-12 11 -14 201.44 12.45
11 1 -14 195.17 11.13
1 -12 -17 20.81 4.85
-12 11 -17 20.31 4.57
11 1 -17 16.21 6.55
1 -12 -20 4.3 2.55
1 -12 -20 -0.14 2.73
11 1 -20 6.28 2.25
-10 -2 -20 1.04 2.39
12 -10 -17 2.98 1.44
-10 -2 -17 2.84 2.16
12 -10 -14 151.84 12.91
-10 -2 -14 134.32 18.79
2 -12 11 31.95 5.17
12 -10 -11 36.66 5.93
-10 -2 -11 37.16 5.67
12 -10 -8 -2.6 2.33
2 -12 8 1.49 1.25
-10 -2 -8 7.96 3.44
12 -10 -5 109.48 16.78
2 -12 5 95.61 9.3
-10 -2 -5 101.28 10.53
12 -10 -2 77.05 6.26
2 -12 2 84.51 5.02
-10 -2 -2 73.05 5.36
12 -10 1 114.04 8.92
2 -12 -1 96.4 6.48
-10 -2 1 98.6 10.18
2 -12 -4 114.91 14.85
-10 -2 4 91.6 10.31
-12 10 -4 86.71 8.32
2 -12 -7 299.05 9.33
-10 -2 7 304.18 8.31
-12 10 -7 317.63 10.84
2 -12 -10 16.08 4.9
-10 -2 10 16.66 2.85
-12 10 -10 19.66 3.28
10 2 -10 14.36 2.64
2 -12 -13 99.9 7.21
-12 10 -13 83.12 8.12
2 -12 -16 2.88 2.8
-12 10 -16 3.32 2.94
2 -12 -19 5.05 2.91
2 -12 -19 -0.11 2.72
10 2 -19 11.03 3.13
2 -12 -22 13.95 4.15
-9 -3 -21 14.14 4.63
12 -9 -18 19.24 2.74
-9 -3 -18 5.92 3.37
12 -9 -15 227.06 12.25
-9 -3 -15 231.35 10.78
12 -9 -12 1.48 2.3
-9 -3 -12 5.99 2.55
-3 12 -12 6.21 1.47
12 -9 -9 94.82 9.48
3 -12 9 76.22 4.97
-3 12 -9 83.54 5.2
-9 -3 -9 105.88 15.36
12 -9 -6 6.04 2.38
3 -12 6 5.69 2.7
-9 -3 -6 2.48 2.39
-9 -3 -6 3.41 1.49
12 -9 -3 338.78 14.94
3 -12 3 336.52 8.42
-9 -3 -3 375.25 9.97
-9 -3 -3 394.57 8.68
3 -12 0 18 3.85
-9 -3 0 4.43 2.88
-12 9 0 10.75 3.94
3 -12 -3 284.63 13.76
-9 -3 3 281.69 7.65
-12 9 -3 275.31 14.95
3 -12 -6 71.81 8.23
-9 -3 6 67.24 10.33
-12 9 -6 59.26 7.65
-9 -3 9 204.21 6.53
3 -12 -9 240.75 8.95
-9 -3 9 231.47 8.03
-12 9 -9 247.55 10.99
3 -12 -12 12.82 3.44
-9 -3 12 7.48 1.96
-12 9 -12 13.11 2.65
3 -12 -15 79.79 9.92
-12 9 -15 98.45 8.37
3 -12 -18 6.81 3.53
-12 9 -18 12.72 3.3
3 -12 -18 8.49 4.57
3 -12 -21 48.45 10.86
3 -12 -21 67.66 12.96
-8 -4 -22 8.32 4.37
12 -8 -22 12.85 4.26
-8 -4 -22 12.75 4.81
-8 -4 -19 2.69 2.46
-8 -4 -19 16.05 3.86
12 -8 -16 47.57 7.63
-8 -4 -16 67.12 8.92
12 -8 -13 7.1 2.13
-8 -4 -13 3.99 2.57
-4 12 -13 3.22 0.98
4 -12 10 7.09 1.62
12 -8 -10 7.44 2.42
-4 12 -10 9.59 1.79
-8 -4 -10 18.83 3.37
-8 -4 -10 13.72 2.49
12 -8 -7 3.99 2.05
4 -12 7 9.28 1.8
-8 -4 -7 4.85 3.8
-8 -4 -7 3.66 2.66
12 -8 -4 226.15 7.98
4 -12 4 210.84 19.13
-8 -4 -4 234.02 12.18
-8 -4 -4 231.87 6.69
4 -12 1 5.2 2.06
-8 -4 -1 0.3 1
-12 8 1 2.19 1.91
4 -12 -2 817.25 19.23
-8 -4 2 833.61 18.04
-12 8 -2 867.71 20.23
4 -12 -5 30.79 6.72
-8 -4 5 31.24 6.08
-12 8 -5 16.9 6.49
4 -12 -8 74.93 10.37
-8 -4 8 67.6 3.89
-12 8 -8 63.53 5.73
8 4 -8 51.26 5.85
4 -12 -11 10.11 3.14
-8 -4 11 18.31 3.22
-12 8 -11 16.14 3.75
4 -12 -14 24.01 6.02
-12 8 -14 34.56 6.01
4 -12 -17 1.07 3.61
-12 8 -17 4.05 1.8
4 -12 -20 52.3 10.57
4 -12 -20 64.07 12.86
-7 -5 -20 11.61 4.79
12 -7 -20 23.64 5.01
-7 -5 -20 20.72 6.41
12 -7 -17 0.97 1.42
-7 -5 -17 5.83 3.04
12 -7 -17 5.16 3.54
-7 -5 -17 7.62 2.51
12 -7 -14 1.32 1.23
-7 -5 -14 4.01 3.41
-5 12 -14 4.78 0.98
-7 -5 -14 8.69 2.65
12 -7 -11 21.32 3.78
-5 12 -11 11.59 1.84
-7 -5 -11 14.76 3.86
-5 12 -11 10.88 2.05
-7 -5 -11 19.97 4.52
12 -7 -8 182.49 12.24
5 -12 8 178.91 7.11
-7 -5 -8 169.36 11.2
-7 -5 -8 177.94 6.81
5 -12 5 320.62 8.04
-7 -5 -5 323.3 15.16
-12 7 5 316.35 10.81
-7 -5 -5 328.77 7.77
5 -12 2 295.39 9.99
-7 -5 -2 279.05 7.83
-12 7 2 289.92 8.21
5 -12 -1 84.93 8.31
-7 -5 1 93.73 7.74
-12 7 -1 89.65 6.67
5 -12 -4 153.8 7.57
-7 -5 4 140.51 6.41
-12 7 -4 153.09 11.78
5 -12 -7 25.36 4.68
-7 -5 7 17.27 2.92
-12 7 -7 16.1 4.04
7 5 -7 11.47 2.93
-7 -5 10 1.67 0.85
5 -12 -10 4.62 2.87
-7 -5 10 2.52 0.94
-12 7 -10 4.99 2.52
5 -12 -13 4.32 2.76
-12 7 -13 6.6 1.65
5 -12 -16 144.78 11.36
-12 7 -16 134.09 14.54
5 -12 -19 5.65 3.17
-12 7 -19 0.4 1.48
5 -12 -22 54.89 8.06
5 -12 -22 44.46 10.85
-6 -6 -21 52.37 9.93
12 -6 -21 52.19 13.15
-6 -6 -21 75.98 12.17
-6 -6 -18 199.9 19.28
12 -6 -18 172.36 14.36
-6 -6 -18 186.32 11.82
-6 -6 -15 111.66 16.21
-12 6 15 98.07 9.42
12 -6 -15 89.64 4.33
-6 -6 -15 113.36 9.34
-6 -6 -12 378.01 14.36
-6 12 -12 370.24 9.23
-12 6 12 350.65 11.04
-6 -6 -12 394.68 10.3
6 -12 9 579.68 14.14
-6 -6 -9 598.54 17.07
-12 6 9 589.62 15.96
-6 -6 -9 582.38 15.38
6 -12 6 347.67 10.31
-6 -6 -6 313.22 10.55
-12 6 6 337.75 9.68
-6 -6 -6 332.08 8.82
6 -12 3 430.7 9.89
-6 -6 -3 405.72 11.9
-12 6 3 414.59 9.72
6 -12 0 256.03 11.53
-6 -6 0 243 7.26
-12 6 0 256.76 7.43
6 6 0 237 6.13
6 -12 -3 1169.16 27.45
-6 -6 3 1113.74 23.01
-12 6 -3 1070.56 23.05
6 -12 -6 400.59 10.36
-6 -6 6 428.31 13.06
-12 6 -6 415.87 12.09
6 -12 -9 771.22 23.38
-6 -6 9 790.52 17.07
-12 6 -9 779.96 18.52
6 6 -9 766.79 15.58
6 -12 -12 27.67 4.3
-12 6 -12 48.87 7.92
6 -12 -15 159.72 17.87
-12 6 -15 143.01 7.42
6 -12 -18 67.07 8.82
-12 6 -18 55.53 9.39
6 -12 -21 65.81 14.24
-5 -7 -22 2.24 1.8
12 -5 -22 4.31 2.99
-5 -7 -22 5.79 2.92
-5 -7 -19 454.18 22.92
12 -5 -19 427.85 24.01
-5 -7 -19 448.53 20.57
-5 -7 -16 21.6 4.3
-12 5 16 26.14 5.93
12 -5 -16 21.94 4.84
-5 -7 -16 29.45 4.73
-5 -7 -13 750.86 26.36
-7 12 -13 753.53 19.54
-12 5 13 795.06 20.67
-5 -7 -13 769.92 21.83
-5 -7 -10 209.52 17.41
-12 5 10 212.84 9.11
-7 12 -10 203.8 7.89
-5 -7 -10 204.08 12.14
7 -12 7 850.74 19.89
-5 -7 -7 867.37 20.26
-12 5 7 835.04 21.95
-5 -7 -7 861.84 20.37
7 -12 4 131.52 7.62
-5 -7 -4 130.25 11.43
-12 5 4 135.97 6.4
-12 5 4 135.6 5.93
7 -12 1 1293.09 28.25
-5 -7 -1 1287.26 26.39
-12 5 1 1252.83 29.54
5 7 1 1319.17 25.6
7 -12 -2 1151.32 24.9
-5 -7 2 1164.05 26.09
-12 5 -2 1127.09 23.4
7 -12 -5 1148.57 26.31
-5 -7 5 1115.86 25.29
-12 5 -5 1146.11 25.67
7 -12 -8 547.66 13.95
-5 -7 8 487.64 12.2
-12 5 -8 480.21 13.34
5 7 -8 464.1 10.08
7 -12 -11 551.89 13.2
-5 -7 11 605.61 9.64
-12 5 -11 638.13 14.2
7 -12 -14 383.57 16.95
-12 5 -14 362.48 9.76
7 -12 -17 221.78 23.68
-12 5 -17 222.44 19.21
7 -12 -20 169.88 16.64
-12 5 -20 144.03 10.37
12 -4 -20 177.26 15.78
-4 -8 -20 215.9 10.05
-4 -8 -17 13.73 4.06
12 -4 -17 6.15 3.65
-4 -8 -17 4.98 2.27
-4 -8 -14 425.11 14.53
-8 12 -14 421.68 9.94
-12 4 14 452.97 7.53
12 -4 -14 437.99 14.35
-4 -8 -14 450.92 14.78
-4 -8 -11 3.68 2.97
-8 12 -11 2.67 1.81
-12 4 11 1.63 0.95
-4 -8 -11 1.1 1.84
8 -12 8 863.07 19.45
-4 -8 -8 832.79 23.04
-12 4 8 812.98 20.11
-4 -8 -8 864.7 23.31
8 -12 5 172.38 5.98
-4 -8 -5 179.83 11.4
-12 4 5 153.52 5.36
8 -12 2 1623.08 34.68
-4 -8 -2 1641.99 33.75
-12 4 2 1503.19 31.09
4 8 2 1534 30.59
8 -12 -1 76.64 6.88
-4 -8 1 66.95 5.59
-12 4 -1 83.06 7.71
8 -12 -4 1143.95 23.97
-4 -8 4 1065.97 23.34
-12 4 -4 1067.76 26.08
8 -12 -7 138.75 8.33
-4 -8 7 98.03 9.51
4 8 -7 86.3 8.44
-12 4 -7 95.06 9.65
8 -12 -10 724.97 21.68
-4 -8 10 776.09 19.72
-12 4 -10 723.27 23.6
4 8 -10 724.34 18.49
8 -12 -13 187.46 10.53
-12 4 -13 158.38 7.12
8 -12 -16 408.52 18.44
-12 4 -16 412.22 18.12
8 -12 -19 4.79 3.07
-12 4 -19 0.7 1.84
-3 -9 -21 18.59 10.76
12 -3 -21 2.77 1.95
-3 -9 -21 2.69 2.07
-3 -9 -18 59.01 10.05
12 -3 -18 62.67 12.15
-3 -9 -18 74.8 25.46
-3 -9 -15 2.79 2.06
-9 12 -15 -0.64 1.36
-12 3 15 0.94 1.12
12 -3 -15 1.28 2.23
-3 -9 -15 0.41 1.32
-3 -9 -12 196.22 12.54
-9 12 -12 187.47 7.69
-12 3 12 177.31 7.41
12 -3 -12 173.14 8.22
-3 -9 -12 183.77 9.5
-3 -9 -9 206.74 15.18
-12 3 9 191.62 8.37
-9 12 -9 197 8.45
9 -12 6 233.13 8.07
-3 -9 -6 264.73 14.77
-12 3 6 214.32 7.42
9 -12 3 183.52 10.99
-3 -9 -3 170.83 10.75
-12 3 3 169.54 12.35
-12 3 3 169.35 7.14
9 -12 0 37.76 7.74
-3 -9 0 46.65 7.62
-12 3 0 52.54 9.93
9 -12 -3 1.5 1.74
-3 -9 3 3.78 2.18
-12 3 -3 2.2 1.81
9 -12 -6 396.19 12.05
-3 -9 6 434.22 10.65
-12 3 -6 430.18 14.16
9 -12 -9 128.61 10
-3 -9 9 111.63 6.34
-12 3 -9 88.8 7.96
3 9 -9 81.91 7.38
9 -12 -12 22.88 3.69
-12 3 -12 25.75 6.56
9 -12 -15 169.04 18.22
-12 3 -15 124.35 12.13
9 -12 -18 19.76 3.72
-12 3 -18 9.75 4.05
-12 3 -21 6.44 3.03
-2 -10 -22 31.2 7.59
12 -2 -22 19.01 5.28
-2 -10 -19 1.21 2.13
-2 -10 -19 3.13 2.52
12 -2 -19 4.33 2.83
-2 -10 -16 190.75 19.2
-10 12 -16 188.21 11.71
-2 -10 -16 218.86 9.4
12 -2 -16 198.6 12.56
-2 -10 -13 6.93 2.87
-12 2 13 6.56 1.9
-10 12 -13 7.26 1.89
-2 -10 -13 9.95 3.93
12 -2 -13 2.02 1.61
-2 -10 -10 169.26 14.74
-12 2 10 189.01 10.76
-10 12 -10 180.38 10.99
-2 -10 -7 28.02 5.18
-12 2 7 32.7 5.38
-10 12 -7 33.94 6.67
10 -12 4 545.89 14.71
-2 -10 -4 550.93 14.05
-12 2 4 553.77 14.53
10 -12 1 69.54 8.43
-2 -10 -1 69.89 4.73
-12 2 1 70.72 5.44
-12 2 1 71.33 3.47
10 -12 -2 112.18 7.77
-2 -10 2 127.17 8.01
-12 2 -2 131.59 7.88
10 -12 -5 34.59 7.32
-2 -10 5 33.09 5.94
-12 2 -5 28.24 5.31
10 -12 -8 445.65 13.46
-2 -10 8 482.29 11.71
2 10 -8 500.12 11.88
-12 2 -8 521.54 15.11
-2 -10 11 16.86 3.31
10 -12 -11 37.42 4.93
-12 2 -11 27.48 5.3
10 -12 -14 122.53 13.24
-12 2 -14 142.3 14.44
10 -12 -17 41.67 5.94
-12 2 -17 38.7 7.59
10 -12 -20 11.7 4.27
-12 2 -20 12.13 3.96
-1 -11 -20 123.22 10.94
-1 -11 -20 106.13 18.21
12 -1 -20 97.09 10.6
-1 -11 -17 154.46 12.27
-1 -11 -17 206.59 9.47
12 -1 -17 177.82 14.18
-1 -11 -14 230.3 17.12
-11 12 -14 227.56 11.41
-1 -11 -14 242.96 11.55
12 -1 -14 235.75 10.53
-1 -11 -11 298.7 20.47
-12 1 11 309.85 14.79
-11 12 -11 300.51 15.31
12 -1 -11 315.79 8.74
-1 -11 -8 545.9 19.91
-12 1 8 516.23 16.13
-11 12 -8 514.9 18.09
11 -12 5 606.71 17.6
-1 -11 -5 629.88 15.07
-12 1 5 640.24 16.86
11 -12 2 444.23 13.37
-1 -11 -2 433.42 17.2
-12 1 2 444.38 13.12
11 -12 -1 126.66 9.14
-1 -11 1 125.32 6.24
-12 1 -1 127.79 6.93
11 -12 -4 415.85 11.75
-1 -11 4 419.56 13.17
-12 1 -4 440.31 13.58
11 -12 -7 1171.16 29.41
-1 -11 7 1255.8 24.65
-12 1 -7 1195.91 30.84
11 -12 -10 7.29 2.31
-1 -11 10 1.42 1.18
-12 1 -10 8.74 4.36
1 11 -10 6.97 1.75
11 -12 -13 389.59 11.97
-12 1 -13 386.94 13.53
11 -12 -16 3.03 2.27
-12 1 -16 9.98 4.25
11 -12 -19 141.62 16.98
-12 1 -19 127.68 20.75
0 -12 -21 45.32 11.6
0 -12 -21 89.2 16.82
0 -12 -18 11.83 5.67
0 -12 -18 18.66 4.16
12 0 -18 17.4 5.74
0 -12 -15 586.25 17.59
-12 12 -15 619.35 19.38
12 0 -15 605.23 13.08
0 -12 -12 107.82 12.74
-12 0 12 117.88 5.04
-12 12 -12 105.93 5.7
12 0 -12 121.81 7.64
0 -12 -9 768.66 18.76
-12 0 9 792.39 17.35
-12 12 -9 827.72 18.5
0 -12 -6 300.94 17.06
-12 0 6 297.11 8.66
-12 12 -6 298.45 8.89
12 -12 3 1158.79 26.07
0 -12 -3 1164.23 31.16
-12 0 3 1184.03 25.86
12 -12 0 5.69 2.61
0 -12 0 10.74 2.32
-12 0 0 9.68 2.67
12 -12 -3 785.16 19.21
0 -12 3 764.22 16.47
-12 0 -3 819.65 18.59
12 -12 -6 609.5 17.05
0 -12 6 651.56 16.92
-12 0 -6 628.18 17.15
12 -12 -9 619.5 14.02
0 -12 9 607.15 12.47
-12 0 -9 639.96 20.31
12 -12 -12 432 9.54
-12 0 -12 399.43 22.52
12 -12 -15 111.97 12.1
-12 0 -15 119.06 14.61
12 -12 -18 135.16 17.32
-12 0 -18 149.87 12.41
-12 0 -21 107.25 15.98
-12 -1 -20 58.63 17.85
13 -12 -17 52.23 6.18
-12 -1 -17 41.92 8.15
13 -12 -14 131.12 13.05
-12 -1 -14 129.25 17.38
13 -12 -11 35.7 5.83
1 -13 11 22.33 4.16
-12 -1 -11 31.02 6.44
13 -12 -8 612.2 14.5
1 -13 8 612.76 13.42
-12 -1 -8 604.64 21.12
13 -12 -5 223.6 12.57
1 -13 5 223.56 10.67
-12 -1 -5 209.2 12.09
13 -12 -2 434.73 16.42
1 -13 2 419.56 11.51
-12 -1 -2 403.92 16.83
13 -12 1 8.07 2.74
1 -13 -1 9.14 3.32
-12 -1 1 9.68 2.42
1 -13 -4 696.85 15.72
-12 -1 4 655.65 17.14
-13 12 -4 631.25 18.5
1 -13 -7 21.71 6.2
-12 -1 7 22.95 4.01
-13 12 -7 33.5 6.04
1 -13 -10 192.96 13.12
-12 -1 10 191.41 9.94
-13 12 -10 202.14 15.24
12 1 -10 197.12 5.84
1 -13 -13 16.99 5.98
-13 12 -13 19.07 4.31
12 1 -13 11.33 2.95
1 -13 -16 130.22 18.82
-13 12 -16 140.75 11.72
1 -13 -19 4.49 1.74
-11 -2 -21 2.23 2.52
13 -11 -18 12.13 4.79
-11 -2 -18 9.9 5.57
13 -11 -15 150.86 14.93
-11 -2 -15 129.01 11.57
13 -11 -12 7.64 2.46
-11 -2 -12 10.87 4.93
13 -11 -9 5.04 2.79
2 -13 9 1.07 0.89
-11 -2 -9 2.85 2.17
13 -11 -6 194.56 7.12
2 -13 6 169.29 8.61
-11 -2 -6 182.54 11.8
13 -11 -3 76.71 11.08
2 -13 3 90.39 7.8
-11 -2 -3 72.37 4.99
-11 -2 -3 70.25 3.61
13 -11 0 1.2 1.17
2 -13 0 2.87 1.51
-11 -2 0 6.48 3.42
2 -13 -3 1.46 1.58
-11 -2 3 1.53 2.42
-13 11 -3 1.67 1.68
2 -13 -6 62.58 5.88
-11 -2 6 61.08 6.3
-13 11 -6 57.33 5.73
2 -13 -9 176.06 12.4
-11 -2 9 184.93 11.48
-13 11 -9 208.44 9.04
11 2 -9 185.59 9.84
2 -13 -12 8.32 4.68
-11 -2 12 7.76 1.51
-13 11 -12 11.93 3.07
11 2 -12 11.6 2.2
2 -13 -15 4.12 3.79
-13 11 -15 3.37 2.56
11 2 -15 3.04 1.49
2 -13 -18 37.93 7.1
2 -13 -21 0.17 2.63
-10 -3 -19 5.04 4.07
13 -10 -16 159.28 13.18
-10 -3 -16 178.86 15.19
13 -10 -13 72.09 7.06
-10 -3 -13 65.4 10.77
13 -10 -10 371.83 10.46
3 -13 10 381.55 7.72
-10 -3 -10 393.7 22.58
13 -10 -7 32.87 5.88
3 -13 7 36.56 5.2
-10 -3 -7 37.27 6.2
-10 -3 -7 31.47 5.42
13 -10 -4 1370.14 32.91
3 -13 4 1370.94 28.7
-10 -3 -4 1406.97 37.02
-10 -3 -4 1417.25 28.39
13 -10 -1 16.23 3.04
3 -13 1 8.73 2.56
-10 -3 -1 16.19 3.76
3 -13 -2 72.34 7.28
-10 -3 2 78.1 9.25
-13 10 -2 77.34 7.55
3 -13 -5 42.97 9.63
-10 -3 5 59.98 5.27
-13 10 -5 55.46 9.78
3 -13 -8 710.71 22.4
-10 -3 8 749.14 20.84
-13 10 -8 714.51 24.52
10 3 -8 751.38 19.06
3 -13 -11 38.04 7.08
-10 -3 11 22.05 3.76
-13 10 -11 23.71 4.02
3 -13 -14 178.65 14.98
-13 10 -14 170.86 10.97
3 -13 -17 54.92 8.38
-13 10 -17 55.13 10.91
3 -13 -20 52.38 12.64
-9 -4 -20 136.41 18.1
-9 -4 -20 113.97 21.12
13 -9 -17 83.63 13.36
-9 -4 -17 109.99 10.93
-9 -4 -17 112.63 10.11
13 -9 -14 439.79 16.88
-9 -4 -14 377.26 26.16
-9 -4 -14 366.33 19.95
4 -13 11 766.92 19.05
13 -9 -11 788.94 24.16
-9 -4 -11 867.25 27.42
-9 -4 -11 825.11 26.56
13 -9 -8 185.92 7.48
4 -13 8 193.93 7.39
-9 -4 -8 172.93 7.89
-9 -4 -8 169.08 6.77
13 -9 -5 404.21 12.31
4 -13 5 373.9 11.48
-9 -4 -5 418.44 14.16
-9 -4 -5 411.38 10.04
4 -13 2 460.46 15.06
-9 -4 -2 455.47 13.54
-13 9 2 463.35 13.36
4 -13 -1 756.15 17.31
-9 -4 1 754.56 20.45
-13 9 -1 815.45 18.47
4 -13 -4 404.92 12.43
-9 -4 4 422.7 10.79
-13 9 -4 434.97 16.46
4 -13 -7 1041.28 28.36
-9 -4 7 1003.68 23.98
-13 9 -7 999.79 23
4 -13 -10 117.2 8.98
-9 -4 10 115.43 7.14
-13 9 -10 126.35 12.41
4 -13 -13 521.94 23.33
-13 9 -13 611 14.6
4 -13 -16 1.38 2.64
-13 9 -16 2.61 1.55
4 -13 -19 185.5 13.71
-8 -5 -21 67.38 13.73
-8 -5 -21 82.44 11.52
-8 -5 -18 8.25 3.13
-8 -5 -18 5.49 2.02
13 -8 -15 163.24 12.57
-8 -5 -15 171.38 12.95
-8 -5 -15 166.59 8.77
13 -8 -12 31.56 3.88
-8 -5 -12 34.04 5.81
-5 13 -12 22.73 4.1
-8 -5 -12 30.99 5.5
13 -8 -9 197.41 13.38
5 -13 9 203.96 7.61
-8 -5 -9 192.74 12.31
-8 -5 -9 189.76 7.74
5 -13 6 94.62 7.02
-8 -5 -6 95.71 8.06
-8 -5 -6 84.83 4.8
5 -13 3 216.86 6.38
-8 -5 -3 238.87 11.87
-13 8 3 235 8.62
5 -13 0 196.95 6.8
-8 -5 0 219.28 7.37
-13 8 0 216.21 12.46
5 -13 -3 437.15 13.47
-8 -5 3 411.1 10.8
-13 8 -3 442.88 13.36
5 -13 -6 153.74 10.63
-8 -5 6 155.99 6.08
-13 8 -6 175.78 9.18
5 -13 -9 281.37 11.83
-8 -5 9 307.8 10.97
-13 8 -9 282.68 15.2
5 -13 -12 147.35 7.38
-13 8 -12 148.56 8.95
5 -13 -15 5.07 3.35
-13 8 -15 7.74 2.96
5 -13 -18 56.37 8.82
-13 8 -18 48.38 8.32
5 -13 -21 1.63 2.18
-7 -6 -19 29.21 6.97
-7 -6 -19 33.77 6.63
-7 -6 -16 24.24 7.25
-13 7 16 15.51 4.65
-7 -6 -16 27.67 4.04
-7 -6 -13 45.32 8.46
-6 13 -13 37.15 5.12
-13 7 13 42.78 8.71
-7 -6 -13 38.46 7.63
6 -13 10 37.59 6.58
-7 -6 -10 41.71 7
-13 7 10 44.97 7.95
-7 -6 -10 33.38 6.23
6 -13 7 276.98 9.93
-7 -6 -7 254.9 9.14
-13 7 7 269.38 7.88
-7 -6 -7 267.28 7.42
6 -13 4 34.3 7.52
-7 -6 -4 48.55 8.42
-13 7 4 43.76 9.13
6 -13 1 5.39 3.09
-7 -6 -1 2.72 2.16
-13 7 1 8.02 3.99
6 -13 -2 62.69 13.56
-7 -6 2 75.75 9.85
-13 7 -2 74.96 8.45
7 6 -2 68.32 6.01
6 -13 -5 382.74 10.06
-7 -6 5 414.67 14.5
-13 7 -5 376.24 12.15
6 -13 -8 1.43 2.39
-7 -6 8 7.2 2.84
-13 7 -8 6.79 3.78
7 6 -8 6.47 1.89
6 -13 -11 170.13 11.18
-7 -6 11 165.46 9.08
-13 7 -11 167.85 11.26
6 -13 -14 3.77 1.94
-13 7 -14 1.35 1.55
6 -13 -17 108.9 14.09
-13 7 -17 96.07 15.39
6 -13 -20 3.11 2.14
-6 -7 -20 82.78 10.3
13 -6 -20 91.82 13.09
-6 -7 -20 93.37 12.92
-6 -7 -17 46.69 10.51
-6 -7 -17 49.75 9.2
-6 -7 -14 123.16 17.33
-7 13 -14 110.55 9.79
-13 6 14 126.68 6.6
-6 -7 -14 131.24 12.55
-6 -7 -11 62.92 7.11
-7 13 -11 52.31 5.78
-13 6 11 57.39 5.33
-6 -7 -11 61.27 9.83
7 -13 8 511.99 15.8
-6 -7 -8 503.64 24.06
-13 6 8 484.34 14.68
-6 -7 -8 488.28 17.04
7 -13 5 3.46 0.79
-6 -7 -5 5.52 2.1
-13 6 5 6.73 2.78
-13 6 5 3.9 1.22
7 -13 2 32.43 7.74
-6 -7 -2 26.41 5.67
-13 6 2 30.63 6.04
7 -13 -1 119 11.39
-6 -7 1 108.82 6.59
-13 6 -1 112.64 6.91
6 7 -1 108.35 5.07
7 -13 -4 413.99 11.21
-6 -7 4 403.07 12.4
-13 6 -4 402.48 13.9
7 -13 -7 75.98 10.13
-6 -7 7 90.55 4.45
-13 6 -7 98.48 10.51
7 -13 -10 794.55 19.82
-6 -7 10 802.11 14.39
-13 6 -10 753.88 15.72
6 7 -10 739.73 12.59
7 -13 -13 48.08 6.13
-13 6 -13 37.1 5.68
7 -13 -16 110.01 11.37
-13 6 -16 91.6 13.54
7 -13 -19 4.21 2.61
-13 6 -19 1.92 2.68
-5 -8 -21 36.74 6.33
13 -5 -21 27.31 8.17
-5 -8 -21 43.71 8.92
-5 -8 -18 125.34 20.89
13 -5 -18 122.9 13.61
-5 -8 -18 132 9.97
-5 -8 -15 204.21 14.65
-13 5 15 224.65 10.41
-5 -8 -15 209.46 16.2
-5 -8 -12 6.99 1.99
-8 13 -12 3 0.97
-13 5 12 3.18 3.02
-5 -8 -12 8.29 2.73
-5 -8 -9 625.26 21.19
-13 5 9 585.22 19.39
-5 -8 -9 618.86 19.14
8 -13 6 48 7.86
-5 -8 -6 41.43 9.29
-13 5 6 38.09 9.07
8 -13 3 64.6 7.73
-5 -8 -3 64.52 7.26
-13 5 3 69.56 7.85
-13 5 3 61.78 6.96
8 -13 0 10.11 2.62
-5 -8 0 19.69 3.25
-13 5 0 8.84 3.08
5 8 0 5.69 1.11
8 -13 -3 709.74 18.17
-5 -8 3 675.86 17.79
-13 5 -3 690.93 18.12
8 -13 -6 129.88 8.33
-5 -8 6 131.5 5.93
-13 5 -6 125.94 13.65
8 -13 -9 941.91 27.72
-5 -8 9 944.8 24.48
-13 5 -9 923.89 27.11
5 8 -9 867.36 22.98
8 -13 -12 148.45 6.99
-13 5 -12 131.32 6.27
8 -13 -15 244.81 16.97
-13 5 -15 220.21 9.77
8 -13 -18 4.96 3.49
-13 5 -18 1.97 3.05
8 -13 -21 48.81 8.85
-4 -9 -19 44.44 7.25
13 -4 -19 32.6 7.78
-4 -9 -19 39.97 9.63
-4 -9 -16 4.63 2.64
13 -4 -16 1.22 2.18
-4 -9 -16 1.31 1.97
-9 13 -13 14.55 2.76
-13 4 13 9.67 1.57
-4 -9 -13 6.76 2.34
-4 -9 -10 75.3 14.16
-13 4 10 63.81 6.52
-9 13 -10 59.63 9.05
-4 -9 -10 62.6 6.25
9 -13 7 360.63 9.88
-4 -9 -7 329.87 10.52
-13 4 7 353.53 9.38
9 -13 4 1.88 1.4
-4 -9 -4 1.03 1.71
-13 4 4 7.28 2.3
9 -13 1 72.29 7.94
-4 -9 -1 80.94 9.99
-13 4 1 72.58 8.51
4 9 1 72.21 6.62
9 -13 -2 57.88 6.21
-4 -9 2 54.7 6.25
-13 4 -2 63.36 12.39
9 -13 -5 220.19 12.52
-4 -9 5 216.18 8.3
-13 4 -5 200.91 7.58
9 -13 -8 7.56 1.87
-4 -9 8 1.59 1.28
-13 4 -8 2.25 2.24
4 9 -8 1.6 1.18
9 -13 -11 0.67 1.44
-4 -9 11 0.28 0.54
-13 4 -11 1.5 1.82
9 -13 -14 109.49 11.66
-13 4 -14 86.33 15.44
9 -13 -17 17.76 3.27
-13 4 -17 8.03 3.21
9 -13 -20 2.23 2.55
-13 4 -20 -0.6 1.02
13 -3 -20 9.09 3.24
-3 -10 -20 5.44 1.95
-3 -10 -17 140.22 19.93
13 -3 -17 185.14 8.81
-3 -10 -17 164.16 7.83
-3 -10 -14 63.53 10.5
-10 13 -14 67.69 8.86
-13 3 14 65.34 8.72
13 -3 -14 73.69 11.64
-3 -10 -14 80.59 11.08
-3 -10 -11 95.39 16.48
-13 3 11 100.41 5.28
-10 13 -11 104.67 7.18
-3 -10 -8 17.23 3.61
-13 3 8 13.14 2.47
-10 13 -8 18.69 3.16
10 -13 5 106.24 6.37
-3 -10 -5 97.27 5.55
-13 3 5 108.04 8.45
10 -13 2 7.26 4.06
-3 -10 -2 15.28 5.11
-13 3 2 13.83 5.14
-13 3 2 11.38 1.77
10 -13 -1 206.31 13.4
-3 -10 1 249.39 13.35
-13 3 -1 234.33 8.14
10 -13 -4 2.08 1.85
-3 -10 4 3.63 1.4
-13 3 -4 6.96 2.7
10 -13 -7 759.32 22.71
-3 -10 7 767.24 21.86
-13 3 -7 773.07 24.14
10 -13 -10 9.72 3.48
-3 -10 10 5.31 1.74
-13 3 -10 17.11 2.99
10 -13 -13 94.96 9.73
-13 3 -13 84.29 9.99
10 -13 -16 1.35 2.39
-13 3 -16 -3.21 2.45
10 -13 -19 30.83 4.95
-13 3 -19 28.36 6.79
-2 -11 -21 160.49 17.82
-2 -11 -21 169.69 14.89
-2 -11 -18 44.76 10.65
-2 -11 -18 62.2 13.57
13 -2 -18 56.45 10.22
-2 -11 -15 309.96 13.04
-11 13 -15 289.3 9.03
-2 -11 -15 297.37 13.04
13 -2 -15 294.79 7.96
-2 -11 -12 48.46 7.75
-13 2 12 52.39 8.48
-11 13 -12 59.2 10.18
-2 -11 -9 212.44 14.45
-13 2 9 184.59 10.8
-11 13 -9 186.38 10.83
11 -13 6 17.47 4.12
-2 -11 -6 20.38 3.57
-13 2 6 23.75 3.5
11 -13 3 1035.53 23.48
-2 -11 -3 1042.26 28.36
-13 2 3 1040.49 25.81
11 -13 0 648.87 18.21
-2 -11 0 644.36 16.64
-13 2 0 641.09 18.18
11 -13 -3 519.81 15.45
-2 -11 3 536.56 13.65
-13 2 -3 537.86 24.68
11 -13 -6 888.04 26.34
-2 -11 6 878.62 22.51
-13 2 -6 838.88 20.6
11 -13 -9 173.41 10.75
-2 -11 9 165.97 10.11
-13 2 -9 201.4 12.34
11 -13 -12 217.23 14.26
-13 2 -12 187.44 8.21
11 -13 -15 161.39 14.75
-13 2 -15 173.31 13.99
11 -13 -18 136.88 13.17
-13 2 -18 115.72 13.98
-13 2 -21 48.92 13.07
-1 -12 -19 30.51 7.3
-1 -12 -19 21.89 8.34
-1 -12 -16 298.82 11.21
-12 13 -16 324.48 10.57
-1 -12 -13 47.08 9.13
-13 1 13 35.34 6.8
-12 13 -13 43.4 8.45
13 -1 -13 37.64 7.15
-1 -12 -10 926.25 28.87
-13 1 10 941.67 24.11
-12 13 -10 893.59 26.92
-1 -12 -7 29.71 6.01
-13 1 7 30.74 4.65
-12 13 -7 30.61 5.61
12 -13 4 1753.48 69.96
-1 -12 -4 1757.07 69.71
-13 1 4 1739.66 36.78
12 -13 1 8.87 1.89
-1 -12 -1 7.96 2.35
-13 1 1 10.08 3.46
12 -13 -2 1368.14 28.59
-1 -12 2 1340.93 28.54
-13 1 -2 1342.37 27.56
12 -13 -5 3.12 1.89
-1 -12 5 4.19 1.57
-13 1 -5 4.52 4.3
12 -13 -8 1077.47 26.32
-1 -12 8 1161.2 19.95
-13 1 -8 1175.46 24.97
12 -13 -11 103.24 12.72
-13 1 -11 79.27 12.53
12 -13 -14 485.35 11.64
-13 1 -14 489.06 15.79
12 -13 -17 46.45 7.12
-13 1 -17 25.4 5.6
-13 1 -20 331.47 16.07
0 -13 -20 116.84 13.36
0 -13 -17 120.38 19.2
0 -13 -14 275.42 8.82
-13 13 -14 262.42 15.98
0 -13 -11 298.68 12.68
-13 0 11 304.58 8.05
-13 13 -11 297.65 8.83
0 -13 -8 598.12 17.46
-13 0 8 593.56 21.21
-13 13 -8 584.73 13.08
0 -13 -5 755.02 29.39
-13 0 5 764.9 21.87
-13 13 -5 759.38 24.32
13 -13 2 310.31 11.06
0 -13 -2 306.62 14.68
-13 0 2 282.35 16.04
13 -13 -1 842.01 23.48
0 -13 1 825.74 21.12
-13 0 -1 841.35 25.54
13 -13 -4 221.52 10.93
0 -13 4 229.62 9.72
-13 0 -4 272.77 10.83
13 -13 -7 1227.79 33.23
0 -13 7 1230.03 23.63
-13 0 -7 1184.45 28.05
13 -13 -10 53.94 6.88
0 -13 10 27.59 5.23
-13 0 -10 47.59 9.13
13 -13 -13 290.69 15.17
-13 0 -13 262.96 11.87
13 -13 -16 87.78 10
-13 0 -16 84.57 14.33
13 -13 -19 425.16 14.48
-13 0 -19 426.39 17.54
14 -13 -18 108.77 12.81
-13 -1 -18 74.73 17.89
14 -13 -15 139.52 11.99
-13 -1 -15 108.48 18.61
14 -13 -12 18.63 2.83
-13 -1 -12 9.44 4.09
14 -13 -9 86.1 9.3
1 -14 9 66.92 6.83
-13 -1 -9 71.8 11.76
14 -13 -6 253.61 13.13
1 -14 6 263.35 7.5
-13 -1 -6 215.67 9.05
14 -13 -3 167.89 9.62
1 -14 3 145.83 6.49
-13 -1 -3 153.31 9.21
-13 -1 -3 138.43 2.26
14 -13 0 98.93 8.16
1 -14 0 104.8 7.38
-13 -1 0 89.9 6.83
1 -14 -3 101.95 13.15
-13 -1 3 103.19 10.1
-14 13 -3 90.26 6.47
1 -14 -6 47.39 9.68
-13 -1 6 40.47 7.26
-14 13 -6 49.62 7.69
1 -14 -9 254.89 14.99
-13 -1 9 239.1 12.04
-14 13 -9 243.43 11.79
1 -14 -12 1.39 1.3
-13 -1 12 0.43 0.64
-14 13 -12 2.3 1.61
1 -14 -15 106.49 15.8
-14 13 -15 78.73 9.83
1 -14 -18 6.22 3.39
-12 -2 -19 2.13 1.22
14 -12 -16 159.55 13.3
-12 -2 -16 127.99 20.13
14 -12 -13 9.52 2.51
-12 -2 -13 6.59 2.99
14 -12 -10 135.58 9.43
2 -14 10 128.08 5.72
-12 -2 -10 133.42 10.76
14 -12 -7 257 8.66
2 -14 7 240.77 7.33
-12 -2 -7 247.55 18.08
14 -12 -4 29.02 5.63
2 -14 4 32.09 5.79
-12 -2 -4 25.38 5.11
-12 -2 -4 17.55 3.13
14 -12 -1 7.36 3
2 -14 1 4 2.35
-12 -2 -1 0.59 2.97
2 -14 -2 170.93 8.27
-12 -2 2 177 11.09
-14 12 -2 181.35 11.84
2 -14 -5 17.94 3.7
-12 -2 5 7.02 3.4
-14 12 -5 10.75 5.4
2 -14 -8 399.8 10.88
-12 -2 8 404.22 9.37
-14 12 -8 405.49 13.9
2 -14 -11 100.83 13.06
-12 -2 11 70.32 5.88
-14 12 -11 88.68 9.29
12 2 -11 64.9 4.79
2 -14 -14 -4.57 3.03
-14 12 -14 -0.36 2.4
2 -14 -17 2.2 2.83
-14 12 -17 9.37 3.96
2 -14 -20 6.17 4
-11 -3 -20 33.62 10.35
-11 -3 -20 38.83 8.5
14 -11 -17 121.61 14.54
-11 -3 -17 121.66 11.48
14 -11 -14 95.66 12.45
-11 -3 -14 77.15 14.58
14 -11 -11 232.99 7.23
3 -14 11 217.92 4.53
-11 -3 -11 228.1 14.92
14 -11 -8 133.6 11.61
3 -14 8 148.98 9.54
-11 -3 -8 142 10.95
-11 -3 -8 126.05 7.49
14 -11 -5 538.89 17.34
3 -14 5 533.19 16.92
-11 -3 -5 560.72 18.22
-11 -3 -5 561.38 15.35
14 -11 -2 131.85 11.09
3 -14 2 151.78 7.48
-11 -3 -2 127.23 7.92
3 -14 -1 374.82 19.71
-11 -3 1 345.84 9.47
-14 11 -1 364.55 10.75
3 -14 -4 121.99 9.6
-11 -3 4 116.15 11.1
-14 11 -4 111.8 6.43
3 -14 -7 648 19.68
-11 -3 7 564.23 14.74
-14 11 -7 602.69 13.1
3 -14 -10 3.43 1.76
-11 -3 10 10.81 1.89
-14 11 -10 14.02 5.94
11 3 -10 10.33 2.51
3 -14 -13 243.92 13.41
-14 11 -13 222.91 9.8
11 3 -13 224.25 6.24
3 -14 -16 1.83 2.4
-14 11 -16 -0.05 2.01
3 -14 -19 107.02 19.65
-10 -4 -21 203.3 16.98
-10 -4 -21 200.23 19.67
-10 -4 -18 33.63 7.89
-10 -4 -18 34.89 8.83
14 -10 -15 389.23 15.14
-10 -4 -15 382.77 14.08
-10 -4 -15 375.79 16.29
14 -10 -12 203.95 16.02
-10 -4 -12 263.13 14.04
-10 -4 -12 224.71 14.15
14 -10 -9 923.52 20.31
4 -14 9 913.97 19.33
-10 -4 -9 925.61 28.41
-10 -4 -9 909.86 17.49
14 -10 -6 110.4 8.74
4 -14 6 94.64 10.07
-10 -4 -6 112.67 9.26
-10 -4 -6 117.32 6.82
4 -14 3 1634.28 33.41
-10 -4 -3 1581.45 33.03
4 -14 0 321.65 11.56
-10 -4 0 349 10.42
-14 10 0 333.57 9.86
4 -14 -3 899.27 22.7
-10 -4 3 920.81 23.12
-14 10 -3 959.48 20.46
4 -14 -6 697.46 22.02
-10 -4 6 660.23 19.4
-14 10 -6 670.29 21.76
4 -14 -9 311.44 13.38
-10 -4 9 345.76 9.31
-14 10 -9 355.12 9
4 -14 -12 644.2 23.66
-14 10 -12 616.53 23.72
4 -14 -15 120.12 9.54
-14 10 -15 149.38 9.22
4 -14 -18 208.95 13.22
-14 10 -18 158.5 20.28
-9 -5 -19 34.06 7.07
-9 -5 -19 39.19 5.97
14 -9 -16 346.46 12.66
-9 -5 -16 401.69 16.56
-9 -5 -16 344.23 15.27
14 -9 -13 179.77 14.27
-9 -5 -13 187.13 14.32
-9 -5 -13 157.18 8.1
14 -9 -10 1439.76 36.64
5 -14 10 1434.99 36.01
-9 -5 -10 1451.12 31.72
-9 -5 -10 1458.36 17.79
14 -9 -7 11.49 2.61
5 -14 7 6.11 2.33
-9 -5 -7 6.69 3.23
-9 -5 -7 3.31 1.35
5 -14 4 760.82 16.42
-9 -5 -4 740.06 21.12
-14 9 4 784.02 19.92
5 -14 1 53.42 9.79
-9 -5 -1 41.55 5.54
-14 9 1 59.32 10.19
5 -14 -2 1359.48 32.76
-9 -5 2 1405.83 29.15
-14 9 -2 1376.3 28.56
5 -14 -5 22.69 3.96
-9 -5 5 14.58 2.8
-14 9 -5 14.39 3.86
5 -14 -8 1298.42 26.23
-9 -5 8 1303.92 23.2
-14 9 -8 1320.1 27.69
5 -14 -11 31.3 4.33
-9 -5 11 16.7 2.85
-14 9 -11 20.28 3.51
5 -14 -14 445.93 16.29
-14 9 -14 504.25 12.57
5 -14 -17 20.16 6.07
-14 9 -17 15.83 5.61
5 -14 -20 187.02 16.77
-8 -6 -20 42.32 9.8
-8 -6 -20 52.07 7.83
-8 -6 -17 96.91 19.94
-8 -6 -17 113.64 7.39
-8 -6 -14 71.65 13.04
-14 8 14 56.87 8.73
-8 -6 -14 74.6 10.94
-8 -6 -11 23.19 4.06
-14 8 11 23.08 3.96
-8 -6 -11 19.31 3.8
6 -14 8 26.48 4.37
-8 -6 -8 29.16 4.59
-14 8 8 20.26 3.53
-8 -6 -8 17.06 3.02
6 -14 5 45.91 7.26
-8 -6 -5 48.27 10.28
-14 8 5 48.16 4.64
6 -14 2 603.14 15.25
-8 -6 -2 632.02 16.28
-14 8 2 666.46 18.86
6 -14 -1 1152.19 24.79
-8 -6 1 1158.63 26.52
-14 8 -1 1248.04 27.21
6 -14 -4 60.89 11.57
-8 -6 4 62.06 4.37
-14 8 -4 60.89 7.42
6 -14 -7 374.48 21.74
-8 -6 7 343.97 11.71
-14 8 -7 336.86 14.12
6 -14 -10 9.33 2.95
-8 -6 10 12.01 2.68
-14 8 -10 18.07 4.34
6 -14 -13 54.99 8.46
-14 8 -13 37.16 7.62
6 -14 -16 7.22 4.55
-14 8 -16 3.08 1.63
6 -14 -19 139.67 12.1
-14 8 -19 106.42 18.19
-7 -7 -21 2.14 2.16
-7 -7 -21 4.35 2.18
-7 -7 -18 7.65 3.71
-7 -7 -18 8.73 4.16
-7 -7 -15 9.94 4.31
-14 7 15 5.65 1.64
-7 -7 -15 7.67 2.3
-7 -7 -12 6.81 4.45
-7 14 -12 8.11 2.4
-14 7 12 15.39 3.08
-7 -7 -12 9.34 3.6
7 -14 9 1.14 1.13
-7 -7 -9 10.84 4.29
-14 7 9 6.89 2.93
-7 -7 -9 4.53 2.98
7 -14 6 48.5 7.65
-7 -7 -6 50.18 9.77
-14 7 6 44.73 7.99
7 -14 3 102.71 5.3
-7 -7 -3 96.47 6.75
-14 7 3 111.34 6.76
7 -14 0 1.52 1.66
-7 -7 0 -0.29 2.76
-14 7 0 2.17 1.46
7 -14 -3 47.74 7.89
-7 -7 3 36.13 2.98
-14 7 -3 44.05 9.82
7 -14 -6 99.83 11.57
-7 -7 6 92.04 4.8
-14 7 -6 90.26 9.54
7 -14 -9 4.37 2.1
-7 -7 9 1.28 1.13
-14 7 -9 2.35 1.49
7 -14 -12 22.74 4.91
-14 7 -12 13.53 4.3
7 -14 -15 18.12 4.54
-14 7 -15 22.64 4.4
7 -14 -18 53.28 8.04
-14 7 -18 45.75 10.03
7 -14 -21 3.04 2.13
-6 -8 -19 4.38 3.28
-6 -8 -19 17.57 5.24
-6 -8 -16 10.02 3.31
-6 -8 -16 6.52 3.16
-6 -8 -13 6.46 3
-8 14 -13 4.03 2.07
-14 6 13 2.34 1.57
-6 -8 -13 3.41 2.46
-6 -8 -10 238.99 19.43
-14 6 10 232.04 8.91
-6 -8 -10 251.2 10.48
8 -14 7 2.71 1.31
-6 -8 -7 0.17 3.44
-14 6 7 2.06 1.49
8 -14 4 26.22 6.95
-6 -8 -4 32.78 5.67
-14 6 4 36.14 6.3
-14 6 4 21.44 3.55
8 -14 1 45.3 5.76
-6 -8 -1 63.32 11.52
-14 6 1 49.51 5.21
6 8 1 51.99 5.02
8 -14 -2 311.74 10.38
-6 -8 2 321.31 9.27
-14 6 -2 338.9 10.52
8 -14 -5 35.54 6.19
-6 -8 5 30.81 3.71
-14 6 -5 34.75 5.2
8 -14 -8 108.78 9.98
-6 -8 8 98.09 6.1
-14 6 -8 103.13 6.93
8 -14 -11 162.53 9.03
-6 -8 11 155.13 3.21
-14 6 -11 154.65 11.26
8 -14 -14 54.25 5.52
-14 6 -14 49.27 7.43
8 -14 -17 3.19 2.49
-14 6 -17 1.07 1.61
8 -14 -20 8.69 3.68
-14 6 -20 3.62 1.75
-5 -9 -20 7.19 3.32
-5 -9 -20 10.3 2.98
-5 -9 -17 2.53 2.09
-5 -9 -17 3.43 1.82
-5 -9 -14 52.5 7.8
-9 14 -14 31.25 5.59
-14 5 14 34.86 6.17
-5 -9 -14 47.31 6.62
-5 -9 -11 224.36 12.74
-14 5 11 228.87 9.42
-9 14 -11 227.1 8.9
-5 -9 -11 233.6 12.3
9 -14 8 256.72 10.03
-5 -9 -8 238.74 7.53
-14 5 8 237.85 7.78
9 -14 5 192.78 8.92
-5 -9 -5 244.58 15.01
-14 5 5 219.57 8.21
9 -14 2 48.74 11.37
-5 -9 -2 63.75 5.09
-14 5 2 67.55 10.77
9 -14 -1 101.67 10.25
-5 -9 1 104.52 11.43
-14 5 -1 123.85 9.81
9 -14 -4 116.42 7.66
-5 -9 4 112.56 10.01
-14 5 -4 105.82 10
9 -14 -7 3 2.41
-5 -9 7 4.47 2.22
-14 5 -7 3.54 3.32
9 -14 -10 -1.56 2.77
-5 -9 10 3.58 1.41
-14 5 -10 4.85 2.91
9 -14 -13 180.03 13.23
-14 5 -13 186.67 9.73
9 -14 -16 8.18 2.77
-14 5 -16 3.23 1.28
9 -14 -19 1.82 1.67
-14 5 -19 2.66 2.84
-4 -10 -21 3.16 2.17
-4 -10 -21 8.96 5.01
-4 -10 -18 3.72 3.2
-4 -10 -18 4.69 3.14
-4 -10 -15 2.18 2.05
-10 14 -15 1.1 1.33
-4 -10 -15 2.41 2.04
-4 -10 -12 81.5 6.33
-14 4 12 91.77 8.34
-10 14 -12 83.88 7.13
-4 -10 -9 3.53 2.59
-14 4 9 12 3.08
-10 14 -9 8.5 3.02
10 -14 6 7.28 2.57
-4 -10 -6 24.1 4.99
-14 4 6 10.91 3.38
10 -14 3 223.36 9.91
-4 -10 -3 266.38 11.97
-14 4 3 272.85 8.34
-14 4 3 269.02 6.84
10 -14 0 3.56 1.5
-4 -10 0 6.24 2.43
-14 4 0 -0.25 2.37
10 -14 -3 126.66 7.36
-4 -10 3 118.42 8.68
-14 4 -3 118.08 13.76
10 -14 -6 6.33 2.84
-4 -10 6 2.21 1.72
-14 4 -6 7.83 4.22
10 -14 -9 52.84 7.99
-4 -10 9 45.73 5.91
-14 4 -9 54.14 12.7
10 -14 -12 14.94 4.7
-14 4 -12 21.56 5.3
10 -14 -15 28.22 4.77
-14 4 -15 37.47 6.13
10 -14 -18 4.96 2.25
10 -14 -21 19.96 4.54
-14 4 -21 21.76 5.73
-3 -11 -19 2.82 2.08
-3 -11 -19 5.88 2.26
-3 -11 -16 106.57 15.87
-3 -11 -16 155.08 11.81
-3 -11 -13 46.01 9.26
-14 3 13 28.83 6.17
-11 14 -13 37.35 6.7
-3 -11 -10 153.6 16.37
-14 3 10 159.37 7.36
-11 14 -10 161.21 7.02
11 -14 7 4.49 1.95
-3 -11 -7 6.54 3.36
-14 3 7 5.33 3.02
11 -14 4 329.05 13.59
-3 -11 -4 312.52 9.24
-14 3 4 353.71 10.69
11 -14 1 42.6 6.66
-3 -11 -1 38.96 3.61
-14 3 1 41.8 3.25
-14 3 1 40.04 3.14
11 -14 -2 352.42 14.06
-3 -11 2 359.5 10.29
-14 3 -2 376.79 11.26
11 -14 -5 34.44 6.12
-3 -11 5 23.34 5.72
-14 3 -5 20.83 3.98
11 -14 -8 123.58 9.05
-3 -11 8 128.98 7.91
-14 3 -8 133.81 11.88
11 -14 -11 13.53 4.14
-14 3 -11 20.1 6.15
11 -14 -14 200 10.97
-14 3 -14 182.92 16.95
11 -14 -17 7.6 4.15
-14 3 -17 2.17 2.42
11 -14 -20 75.03 9.72
-14 3 -20 50.08 13.73
-2 -12 -20 111.2 10.02
-2 -12 -20 106.32 10.82
-2 -12 -17 45.22 10.99
-2 -12 -14 241.62 15.96
-12 14 -14 230.24 14.57
-2 -12 -11 339.86 23.47
-14 2 11 359.42 9.73
-12 14 -11 338.15 13.82
-2 -12 -8 87.88 7.62
-14 2 8 85.43 6.11
-12 14 -8 81.79 8.22
12 -14 5 1051.49 30.86
-2 -12 -5 1014.47 37.29
-14 2 5 1085.24 29.98
12 -14 2 163.44 7.34
-2 -12 -2 163.03 13.13
-14 2 2 161.11 11.35
12 -14 -1 1301.24 27.91
-2 -12 1 1342.92 29.37
-14 2 -1 1322.88 32.39
12 -14 -4 237.55 12.11
-2 -12 4 272.53 9.46
-14 2 -4 265.26 15.65
12 -14 -7 374.9 15.8
-2 -12 7 398.87 11.68
-14 2 -7 373.67 17.12
12 -14 -10 137.25 7.85
-2 -12 10 124.89 5.37
-14 2 -10 178.48 13.36
12 -14 -13 490.56 11
-14 2 -13 453.1 12.96
12 -14 -16 3.46 1.58
-14 2 -16 4.85 2.42
12 -14 -19 331.68 24.9
-14 2 -19 353.45 10.98
-1 -13 -18 3.91 3.11
-1 -13 -15 281.68 20.21
-13 14 -15 300.25 11.42
-1 -13 -12 6.68 2.37
-14 1 12 10.53 3.43
-13 14 -12 12.79 2.5
-1 -13 -9 730.57 23.16
-14 1 9 724.88 24.58
-13 14 -9 677.98 24.45
-1 -13 -6 405.17 12.05
-14 1 6 404.32 12.43
-13 14 -6 409.3 16.51
13 -14 3 580.15 17.66
-1 -13 -3 558.17 16.76
-14 1 3 532.88 16.01
13 -14 0 271.92 10.96
-1 -13 0 246.84 9.55
-14 1 0 235.78 9.17
13 -14 -3 1016.49 33.28
-1 -13 3 1035.72 28.02
-14 1 -3 1020.94 27.97
13 -14 -6 154.49 12.28
-1 -13 6 146.98 9.13
-14 1 -6 123.07 11.56
13 -14 -9 584.59 26.5
-1 -13 9 626.01 16.39
-14 1 -9 609.96 20.11
13 -14 -12 239.16 13.44
-14 1 -12 217.68 9.02
13 -14 -15 154.16 15.63
-14 1 -15 131.27 20.33
13 -14 -18 300.77 25.62
-14 1 -18 269.92 17.46
0 -14 -19 17.92 6.89
0 -14 -16 155.23 23.26
-14 14 -16 150.86 16.84
0 -14 -13 71.41 5.92
-14 14 -13 70.05 10.14
0 -14 -10 325.16 15.4
-14 0 10 334.72 12.95
-14 14 -10 308.63 18.24
0 -14 -7 28.32 5.52
-14 0 7 23.48 4.77
-14 14 -7 27.44 4.39
0 -14 -4 97.5 11.53
-14 0 4 83.13 11.13
-14 14 -4 69.22 5.33
14 -14 1 79.42 13.21
0 -14 -1 87.65 13.15
-14 0 1 80.82 5.8
14 -14 -2 412.38 12.41
0 -14 2 424.18 12.05
-14 0 -2 412.64 10.32
14 -14 -5 5.9 1.72
0 -14 5 15.09 2.85
-14 0 -5 24.78 6.18
14 -14 -8 601.2 28.99
0 -14 8 663.1 16.88
-14 0 -8 594.47 19.31
14 -14 -11 11.97 5.07
-14 0 -11 8.42 3.73
14 -14 -14 121.89 24.69
-14 0 -14 99.44 18.91
14 -14 -17 8.63 3.4
-14 0 -17 -1.45 3.38
15 -14 -19 7.56 2.48
-14 -1 -19 7.23 4.96
15 -14 -16 67.01 9.45
-14 -1 -16 52.53 10.73
15 -14 -13 3.35 2.94
-14 -1 -13 3.76 3.59
15 -14 -10 93.83 12.6
1 -15 10 69.61 7.92
-14 -1 -10 78.16 6.41
15 -14 -7 1.69 3
1 -15 7 5.01 2.95
-14 -1 -7 2.64 5.88
15 -14 -4 119.16 5.53
1 -15 4 116.4 10.52
-14 -1 -4 116.51 8.59
-14 -1 -4 104.31 2.39
15 -14 -1 -0.06 3.2
1 -15 1 1.45 1.27
-14 -1 -1 1.73 3.13
1 -15 -2 161.42 15.49
-14 -1 2 162.55 11.27
1 -15 -5 -2.9 2.57
-14 -1 5 1.49 1.31
-15 14 -5 1.95 1.66
1 -15 -8 310.38 16.86
-14 -1 8 283.27 16.42
-15 14 -8 263.07 13.82
-14 -1 11 6.68 2.01
-15 14 -11 9.71 3.03
1 -15 -14 39.77 5.91
-15 14 -14 27.2 4.33
1 -15 -17 2.16 2.57
15 -13 -17 14.41 2.93
-13 -2 -17 1.96 3.43
15 -13 -14 7.39 2.51
-13 -2 -14 2.18 2.62
15 -13 -11 13.72 3.31
-13 -2 -11 5.2 2.36
15 -13 -8 7.36 2.04
2 -15 8 5.6 1.66
-13 -2 -8 1.3 2.51
-13 -2 -8 7.89 1.88
15 -13 -5 55.69 8.65
2 -15 5 50.58 7.26
-13 -2 -5 65.8 11.55
-13 -2 -5 55.68 5.08
15 -13 -2 49.28 8.5
2 -15 2 54.61 8.87
-13 -2 -2 67.54 12.33
2 -15 -1 19.18 3.39
-13 -2 1 20.64 3.68
-15 13 -1 8.95 3.16
2 -15 -4 1.51 2.27
-13 -2 4 0.51 1.56
-15 13 -4 2.43 3.22
2 -15 -7 4.33 3.6
-13 -2 7 0.46 1.03
-15 13 -7 2.95 2.44
2 -15 -10 2.96 3.22
-13 -2 10 3.13 2
-15 13 -10 4.1 2.44
2 -15 -13 5.2 1.59
-15 13 -13 1.67 2.54
2 -15 -16 23.54 3.66
-15 13 -16 7.61 4.78
2 -15 -19 1.47 1.93
15 -12 -18 2.89 1.93
-12 -3 -18 2.14 3.71
-12 -3 -18 1.91 1.93
15 -12 -15 152.73 16.01
-12 -3 -15 139.94 13.27
-12 -3 -15 131.83 8.89
15 -12 -12 14.54 2.92
-12 -3 -12 5.87 2.78
-12 -3 -12 10.75 2.76
15 -12 -9 388.1 10.12
3 -15 9 388.7 7.98
-12 -3 -9 408.6 11.53
-12 -3 -9 386.65 9.13
15 -12 -6 67 9.71
3 -15 6 58.94 6.56
-12 -3 -6 57.8 11.85
-12 -3 -6 48.11 7.97
15 -12 -3 137.27 7.15
3 -15 3 142.94 9.94
-12 -3 -3 149.51 16.14
3 -15 0 74.9 5.69
-12 -3 0 70.53 9.24
-15 12 0 76.59 13.57
3 -15 -3 124.34 9
-12 -3 3 93.39 6.62
-15 12 -3 98.24 9.36
3 -15 -6 22.66 3.97
-12 -3 6 15.78 2.66
-15 12 -6 20.41 3.13
3 -15 -9 282.86 10.18
-12 -3 9 270.63 10.39
-15 12 -9 278.6 9.12
3 -15 -12 27.67 4.23
-15 12 -12 17.37 4.67
3 -15 -15 116.5 14.63
-15 12 -15 110.35 13.46
3 -15 -18 26.6 8.27
-11 -4 -19 12.67 3.58
-11 -4 -19 22.52 4.46
15 -11 -16 267.04 13.26
-11 -4 -16 269.25 13.35
-11 -4 -16 271.74 16.53
15 -11 -13 2.61 2.54
-11 -4 -13 6.74 4.35
-11 -4 -13 8.75 7.38
15 -11 -10 472.03 10.88
4 -15 10 461.06 10.47
-11 -4 -10 465.78 13.64
-11 -4 -10 456.9 10.42
15 -11 -7 32.06 5.91
4 -15 7 36.48 6.19
-11 -4 -7 30.75 5.76
-11 -4 -7 20.07 3.87
15 -11 -4 1009.4 27.34
4 -15 4 1031.39 30.42
-11 -4 -4 957.92 28.16
4 -15 1 5 2.29
-11 -4 -1 6.37 3.21
-15 11 1 14.15 4.14
4 -15 -2 1263.88 14.8
-11 -4 2 1258.01 34.18
-15 11 -2 1261.03 19.41
4 -15 -5 77.73 6.28
-11 -4 5 70.69 5.44
-15 11 -5 71.13 10.99
4 -15 -8 377.13 19.3
-11 -4 8 368.61 13.89
-15 11 -8 352.5 13.51
4 -15 -11 26.44 7.65
-11 -4 11 10.01 2.32
-15 11 -11 5.58 3.31
11 4 -11 5.16 1.8
4 -15 -14 407.61 22.82
-15 11 -14 427.1 22.15
4 -15 -17 52.45 6.41
-15 11 -17 21.55 7.17
4 -15 -20 150.98 16.93
-10 -5 -20 91.64 16.39
-10 -5 -20 104.35 17.49
-10 -5 -17 123.38 13.05
-10 -5 -17 138.93 11.1
15 -10 -14 411.84 17.07
-10 -5 -14 412.01 13.94
-10 -5 -14 379.82 12.12
15 -10 -11 703.08 28.69
5 -15 11 735.17 24.98
-10 -5 -11 769.78 28.13
-10 -5 -11 738.67 28.05
15 -10 -8 547.17 19.63
5 -15 8 548.75 14.52
-10 -5 -8 522.02 19.52
-10 -5 -8 510.23 16.5
5 -15 5 1036.51 27.89
-10 -5 -5 1034.95 29.02
-15 10 5 1041.11 32.95
5 -15 2 457.66 18.15
-10 -5 -2 395.61 14.13
-15 10 2 390.13 14.24
5 -15 -1 855.28 18.46
-10 -5 1 796.93 24.46
-15 10 -1 804.13 21.13
5 -15 -4 190.59 8.14
-10 -5 4 207.94 8.54
-15 10 -4 219.28 8.96
5 -15 -7 874.21 26.58
-10 -5 7 815.66 16.62
-15 10 -7 813.45 22.48
5 -15 -10 177.68 12.4
-10 -5 10 214.78 7.17
-15 10 -10 229.03 9.82
5 -15 -13 909.19 34.64
-15 10 -13 923.13 28.85
5 -15 -16 2.12 1.91
-15 10 -16 13.78 4.06
5 -15 -19 316.21 24.57
-9 -6 -18 11.34 7.28
-9 -6 -18 14.84 3.43
-9 -6 -15 247.92 12.95
-15 9 15 273.92 12.94
-9 -6 -15 276.83 21.18
-9 -6 -12 19.77 7.27
-6 15 -12 13.27 3.33
-15 9 12 14.92 3.14
-9 -6 -12 17.36 3.67
6 -15 9 588.6 19.7
-15 9 9 558.92 18.94
-9 -6 -9 555.86 17.37
6 -15 6 145.84 7.8
-9 -6 -6 154.3 15.85
-15 9 6 145.11 10.18
6 -15 3 666.3 18.61
-9 -6 -3 668.2 22.39
-15 9 3 658.64 23.97
6 -15 0 287.93 10.82
-9 -6 0 281.48 9.26
-15 9 0 262.07 9.63
6 -15 -3 175.38 10.69
-9 -6 3 187.32 7.24
-15 9 -3 199.23 7.93
6 -15 -6 243.91 13.91
-9 -6 6 216.7 9.08
-15 9 -6 231.01 10.33
6 -15 -9 462.68 22.46
-9 -6 9 508.39 13.63
-15 9 -9 486.38 16.19
6 -15 -12 61.67 13.63
-15 9 -12 52.37 9.84
6 -15 -15 119.91 22.78
-15 9 -15 105.04 12.08
6 -15 -18 131.73 21.19
-15 9 -18 153.56 10.22
-8 -7 -19 19.63 5.62
-8 -7 -19 18.22 4.57
-8 -7 -16 69.22 12.33
-15 8 16 85.77 8.37
-8 -7 -16 80.64 14.01
-8 -7 -13 49.51 7.99
-7 15 -13 35.27 5.7
-15 8 13 41.7 5.98
-8 -7 -13 39.88 5.68
7 -15 10 1.16 1.3
-8 -7 -10 2.34 3.3
-15 8 10 -0.3 1.78
-8 -7 -10 1.41 1.74
7 -15 7 28.46 5.05
-8 -7 -7 33.95 6.11
-15 8 7 28.5 4.18
7 -15 4 30.69 5.48
-8 -7 -4 33.04 6.26
-15 8 4 52.31 9.51
7 -15 1 128.64 5.69
-8 -7 -1 134.01 7.14
-15 8 1 136.82 6.65
7 -15 -2 104.14 8.29
-8 -7 2 107.55 7.72
-15 8 -2 100.34 7.75
8 7 -2 85.72 3.39
7 -15 -5 9.53 3.5
-8 -7 5 1.56 2.17
-15 8 -5 2.61 1.57
7 -15 -8 249.56 8.74
-8 -7 8 232.51 10.74
-15 8 -8 238.14 14.09
7 -15 -11 21.8 3.53
-15 8 -11 25.75 4.93
7 -15 -14 10.29 4
-15 8 -14 1.96 3.53
7 -15 -17 17.66 3.7
-15 8 -17 6.15 4.09
7 -15 -20 33.36 5.86
-7 -8 -20 0.51 2.62
-7 -8 -20 2.8 1.46
-7 -8 -17 34.49 6.53
-7 -8 -17 30.85 8.86
-7 -8 -14 26.13 6.43
-15 7 14 21.91 5.31
-7 -8 -14 21.14 4.9
-7 -8 -11 597.61 17.06
-15 7 11 595.62 17.57
-8 15 -11 602.93 14.53
-7 -8 -11 593.09 16.36
8 -15 8 165.38 10.2
-7 -8 -8 184.38 11.55
-15 7 8 193.06 11.91
8 -15 5 5.58 3.14
-7 -8 -5 5.48 3
-15 7 5 14.3 3.31
8 -15 2 56.99 10.91
-7 -8 -2 60.87 5.23
-15 7 2 69.93 5.57
8 -15 -1 317.05 10.06
-7 -8 1 375.14 12.97
-15 7 -1 385.21 12.72
7 8 -1 351.37 8.37
8 -15 -4 22.39 5.02
-7 -8 4 17.58 3.03
-15 7 -4 29.1 4.08
8 -15 -7 114.35 9.12
-7 -8 7 121.14 8.37
-15 7 -7 136.95 12.41
8 -15 -10 431.16 15.53
-7 -8 10 418.21 7.93
-15 7 -10 408.28 14.92
8 -15 -13 90.95 10.13
-15 7 -13 101.02 7.13
8 -15 -16 51.65 6.04
-15 7 -16 42.78 6.41
8 -15 -19 6.66 2.01
-15 7 -19 0.87 1.5
-6 -9 -18 83.62 14.78
-6 -9 -18 73.67 15.39
-6 -9 -15 18.3 3.79
-15 6 15 12.32 3.65
-6 -9 -15 16.22 5.27
-6 -9 -12 317.7 24.28
-15 6 12 342.77 14.26
-9 15 -12 349.02 14.7
-6 -9 -12 363.88 16.38
9 -15 9 276.66 11.71
-6 -9 -9 270.74 16.19
-15 6 9 265.2 12.46
9 -15 6 521.06 17.84
-6 -9 -6 506.42 19.21
-15 6 6 528.12 17.86
9 -15 3 80.09 11.18
-6 -9 -3 71.31 12.07
-15 6 3 65.93 6.29
-15 6 3 55.86 4.06
9 -15 0 939.03 23.9
-6 -9 0 991.61 27.58
-15 6 0 964.03 26.37
6 9 0 967.23 19.36
9 -15 -3 2.86 1.79
-6 -9 3 3.11 2.64
-15 6 -3 1.31 2.27
9 -15 -6 244.35 12.77
-6 -9 6 269.91 10.94
-15 6 -6 267.08 15.84
9 -15 -9 50.26 7.58
-6 -9 9 31.62 5.53
-15 6 -9 29.01 7.65
9 -15 -12 413.54 16.54
-15 6 -12 476.26 19.55
9 -15 -15 13.05 3.57
-15 6 -15 9.38 2.61
9 -15 -18 122.17 14.32
-15 6 -18 134.64 15.44
-5 -10 -19 20.05 4.56
-5 -10 -19 19.13 6.14
-5 -10 -16 67.21 8.79
-5 -10 -16 57.89 6.87
-5 -10 -13 108.22 15.91
-15 5 13 99.41 8.77
-10 15 -13 106.14 7.88
-5 -10 -13 108.97 12.2
-5 -10 -10 148.52 10.78
-15 5 10 135.17 5.92
-10 15 -10 140.95 7.51
10 -15 7 97.32 9.08
-5 -10 -7 129.01 11.22
-15 5 7 112.14 8.44
10 -15 4 159.78 12.34
-5 -10 -4 136.27 7.27
-15 5 4 125.62 8.11
-15 5 4 132.75 5.03
10 -15 1 589.56 13.46
-5 -10 -1 589.07 18.01
-15 5 1 591.91 18.91
10 -15 -2 118.04 6.54
-5 -10 2 107.53 6.63
-15 5 -2 117.96 9.47
10 -15 -5 163.37 12.86
-5 -10 5 191.98 7.44
-15 5 -5 209.11 8.3
10 -15 -8 34.95 6.33
-5 -10 8 32.9 6.06
-15 5 -8 52.86 10.83
10 -15 -11 291.01 16.12
-15 5 -11 295.09 13.75
10 -15 -14 4.37 4.13
-15 5 -14 10.14 4.31
10 -15 -17 80.58 10.35
-15 5 -17 68.75 14.32
10 -15 -20 0.87 1.71
-15 5 -20 1.13 2.52
-4 -11 -20 1.51 2.97
-4 -11 -20 3.44 2.76
-4 -11 -17 4.69 2.33
-4 -11 -14 48.47 7.78
-15 4 14 45.4 8.07
-11 15 -14 40.72 7.35
-4 -11 -11 48.34 10.26
-15 4 11 56.51 8.61
-11 15 -11 43.19 6.99
-4 -11 -8 126.08 9.56
-15 4 8 131.91 4.54
11 -15 5 306.98 12.03
-4 -11 -5 321.81 18.73
-15 4 5 309.08 9.2
11 -15 2 1061.04 28.75
-4 -11 -2 1038.68 31.14
-15 4 2 1056.12 32.59
-15 4 2 1035.99 26.09
11 -15 -1 3.83 2.88
-4 -11 1 10.11 3
-15 4 -1 5.43 2.27
11 -15 -4 2.65 2.68
-4 -11 4 6.55 2.52
-15 4 -4 3.26 2.77
11 -15 -7 186.49 16.55
-4 -11 7 209.81 6.19
-15 4 -7 220.62 13.16
11 -15 -10 188.43 10.32
-4 -11 10 182.75 6.63
-15 4 -10 196.17 27.08
11 -15 -13 9.44 3.87
-15 4 -13 0.33 2.62
11 -15 -16 56.47 9.61
-15 4 -16 62.99 12.13
11 -15 -19 5.77 1.45
-15 4 -19 2.05 2.56
-3 -12 -18 3.89 3.03
-3 -12 -15 222.97 14.87
-3 -12 -12 7.53 2.77
-15 3 12 15.78 3
-12 15 -12 21.4 4.28
-3 -12 -9 124.54 15.78
-15 3 9 131.65 6.55
-12 15 -9 117.6 5.94
12 -15 6 18.27 3.04
-3 -12 -6 29.74 5.94
-15 3 6 31.22 5.68
12 -15 3 223.67 9.98
-3 -12 -3 214.8 11.55
-15 3 3 222.22 16.32
12 -15 0 -2.98 2.59
-3 -12 0 3.57 2.43
-15 3 0 -1.4 2.87
12 -15 -3 426.49 15.43
-3 -12 3 428.64 16.85
-15 3 -3 456.11 24.51
12 -15 -6 5.79 2.41
-3 -12 6 3.57 1.85
-15 3 -6 3.37 3.15
12 -15 -9 270.41 17.66
-3 -12 9 275.29 6.53
-15 3 -9 269.81 8.81
12 -15 -12 73.92 8.1
-15 3 -12 58.68 10.69
12 -15 -15 44.78 6.54
-15 3 -15 32.88 5.67
12 -15 -18 19.42 2.82
-15 3 -18 5.2 3.52
-2 -13 -19 -0.53 2.96
-2 -13 -16 124.79 13.57
-2 -13 -13 5.17 2.62
-15 2 13 1.03 1.23
-13 15 -13 0.88 1.3
-2 -13 -10 235.49 13.34
-15 2 10 223.49 13.62
-13 15 -10 215.25 11.41
-2 -13 -7 7.36 2.69
-15 2 7 -0.17 1.9
-13 15 -7 2.49 1.69
13 -15 4 1167.97 24.54
-2 -13 -4 1234.73 24.32
-15 2 4 1191.58 24.24
13 -15 1 -0.53 3.13
-2 -13 -1 4.09 2.08
-15 2 1 0.96 2.25
13 -15 -2 1270.01 28.5
-2 -13 2 1245.78 24.74
-15 2 -2 1211.32 29.44
13 -15 -5 56.48 6.07
-2 -13 5 59.39 6.99
-15 2 -5 43.62 10.12
13 -15 -8 343.62 15.45
-2 -13 8 337.18 7.46
-15 2 -8 315.86 8.91
13 -15 -11 6.4 2.66
-15 2 -11 4.42 3.17
13 -15 -14 149.27 17.36
-15 2 -14 132.92 14.68
13 -15 -17 30.09 3.88
-15 2 -17 21.63 9.56
-1 -14 -17 48.3 12.9
-1 -14 -14 51.55 11
-14 15 -14 43.06 8.41
-1 -14 -11 63.61 13.83
-15 1 11 67.17 9.99
-14 15 -11 81.48 8.9
-1 -14 -8 63.76 13.1
-15 1 8 53.49 8.16
-14 15 -8 45.55 10.9
-1 -14 -5 457.77 21.89
-15 1 5 459.17 15.96
-14 15 -5 447.28 16.02
14 -15 2 37.63 6.81
-1 -14 -2 32.76 5.49
-15 1 2 33.35 7.37
14 -15 -1 87.58 7.15
-1 -14 1 91.96 7.04
-15 1 -1 77.63 12.45
14 -15 -4 16.52 3.34
-1 -14 4 13.05 2.44
-15 1 -4 6.36 3.05
14 -15 -7 337.88 15.89
-1 -14 7 325.58 9.05
-15 1 -7 319.83 10.42
14 -15 -10 8.18 3.73
-15 1 -10 9.7 3.47
14 -15 -13 81.89 9.06
-15 1 -13 58.97 13.85
14 -15 -16 4.36 2.99
-15 1 -16 -0.1 2.97
14 -15 -19 83.36 12.66
-15 1 -19 80.56 16.39
0 -15 -18 3.25 1.41
0 -15 -15 31.35 6.2
-15 15 -15 19.44 4.45
0 -15 -12 22.29 5.6
-15 15 -12 36.09 6.48
0 -15 -9 99.94 17.57
-15 0 9 90.55 12.25
-15 15 -9 104.15 10.67
0 -15 -6 20.32 5.13
-15 0 6 27.31 5.26
-15 15 -6 26.56 4.62
15 -15 3 28.04 4.18
0 -15 -3 20.7 5.66
-15 0 3 22.44 4.22
15 -15 0 40.71 5.78
0 -15 0 50.91 9.39
-15 0 0 52.9 12.09
15 -15 -3 22.49 5.73
0 -15 3 30.9 5
-15 0 -3 24.92 3.89
15 -15 -6 12.28 2.72
0 -15 6 10.14 2.68
-15 0 -6 5.4 2.91
15 -15 -9 64.47 6.91
0 -15 9 59.46 7.24
-15 0 -9 45.96 11.5
15 -15 -12 10.03 5.06
-15 0 -12 -0.08 3.17
15 -15 -15 32.59 5.68
-15 0 -15 29.31 7.69
-15 0 -18 6.53 4.69
16 -15 -17 80.98 9.31
-15 -1 -17 62.86 11.26
16 -15 -14 2.61 2.02
-15 -1 -14 5.17 3.36
16 -15 -11 223.52 14.6
-15 -1 -11 229.7 17.26
16 -15 -8 38.61 6.41
1 -16 8 24.33 4
-15 -1 -8 38.49 11.45
16 -15 -5 122.01 7.79
1 -16 5 118.32 10.1
-15 -1 -5 136.71 16.47
16 -15 -2 4.13 2.71
1 -16 2 3.09 2.01
-15 -1 -2 3.22 1.19
16 -15 1 501.15 18.94
1 -16 -1 500.99 16.91
-15 -1 1 534.78 19.31
1 -16 -4 27.35 5.74
-15 -1 4 24.8 5.19
-16 15 -4 23.77 6.08
1 -16 -7 222.47 10.94
-15 -1 7 225.61 9.95
-16 15 -7 229.64 17.75
1 -16 -10 61.27 11.46
-15 -1 10 50.72 9.66
-16 15 -10 61.24 6.15
1 -16 -13 49.57 10.87
-16 15 -13 46.98 10.54
1 -16 -16 27.83 6.27
-16 15 -16 25.53 5.57
16 -14 -18 45.6 6.6
-14 -2 -18 50.53 11.16
-14 -2 -18 34.85 8.95
16 -14 -15 20.27 4.17
-14 -2 -15 5.03 2.62
16 -14 -12 110.7 13.32
-14 -2 -12 96.67 16.7
16 -14 -9 55.47 7.84
2 -16 9 37.67 7.55
-14 -2 -9 47.22 12
-14 -2 -9 41.85 4.85
16 -14 -6 388.56 9.74
2 -16 6 375.54 9.12
-14 -2 -6 408.92 12.44
-14 -2 -6 390.51 7.06
16 -14 -3 3.06 3.13
2 -16 3 -0.28 2.05
-14 -2 -3 4.08 3.76
2 -16 0 397.92 14.58
-14 -2 0 411.8 21.8
2 -16 -3 8.58 3.28
-14 -2 3 5.3 2.06
-16 14 -3 2.55 1.46
2 -16 -6 169.47 8.95
-14 -2 6 198.26 23.34
-16 14 -6 190.4 23.44
2 -16 -9 2.9 2.16
-14 -2 9 0.97 1.84
-16 14 -9 3.22 2.78
2 -16 -12 111.54 7.76
-16 14 -12 139.03 8
2 -16 -15 9.27 4.33
-16 14 -15 8.49 3.3
2 -16 -18 58.3 11.39
-13 -3 -19 11.51 4.69
-13 -3 -19 10.46 4.09
16 -13 -16 0.47 1.37
-13 -3 -16 0.34 2.93
-13 -3 -16 0.65 1.77
16 -13 -13 166.74 17.43
-13 -3 -13 134.92 11.7
-13 -3 -13 138.19 11.02
16 -13 -10 1.85 1.66
3 -16 10 3.5 2.6
-13 -3 -10 9.56 4.47
-13 -3 -10 2.89 2.4
16 -13 -7 118.16 8.09
3 -16 7 113.22 7.77
-13 -3 -7 119.32 12.99
-13 -3 -7 103.61 5.73
16 -13 -4 14.48 2.76
3 -16 4 4.34 1.33
-13 -3 -4 14.44 3.05
3 -16 1 146.23 12
-13 -3 -1 153.03 10.31
-16 13 1 157 9.86
3 -16 -2 24.65 5.94
-13 -3 2 34.84 6.65
-16 13 -2 32.83 5.65
3 -16 -5 141.35 8.4
-13 -3 5 149.58 8.16
-16 13 -5 140.91 8.73
3 -16 -8 26.11 5.97
-13 -3 8 25.86 5.11
-16 13 -8 32.48 7.57
3 -16 -11 189.64 8.86
-13 -3 11 170.02 9.59
-16 13 -11 177.52 9.1
3 -16 -14 31.02 6.95
-16 13 -14 30.59 8.68
3 -16 -17 7.37 2.4
-16 13 -17 5.34 1.96
16 -12 -17 1.17 1.51
-12 -4 -17 6.57 4.56
-12 -4 -17 3.6 2.34
16 -12 -14 139.65 10.63
-12 -4 -14 109.22 22.97
-12 -4 -14 122.67 14.19
16 -12 -11 1.29 2.02
-12 -4 -11 8.02 3.14
-12 -4 -11 1.82 1.8
16 -12 -8 171.58 14.11
4 -16 8 170.16 7.49
-12 -4 -8 154.71 7.73
-12 -4 -8 138.48 5.07
16 -12 -5 121.03 7.43
4 -16 5 129.08 11.4
-12 -4 -5 116.18 10.02
4 -16 2 86.67 7.02
-12 -4 -2 108.27 8.38
-16 12 2 84.03 11.11
4 -16 -1 128.32 10.13
-12 -4 1 112.55 8.72
-16 12 -1 105 8.64
4 -16 -4 33.54 7.05
-12 -4 4 36.76 5.1
-16 12 -4 49.32 9.82
4 -16 -7 42.8 10.75
-12 -4 7 37.32 6.06
-16 12 -7 38.31 6.62
4 -16 -10 243.14 15.58
-12 -4 10 258.76 14.6
-16 12 -10 257.28 12.31
4 -16 -13 83.25 6.3
-16 12 -13 65.4 13.17
4 -16 -16 2.08 2.9
-16 12 -16 10.59 3.4
4 -16 -19 19.97 6.57
-11 -5 -18 2.78 1.44
-11 -5 -18 5.72 2.67
16 -11 -15 313.82 15.59
-11 -5 -15 335.74 24.17
-11 -5 -15 319.39 13.93
16 -11 -12 100.47 7.85
-11 -5 -12 97.91 10.57
-11 -5 -12 95.95 11.63
16 -11 -9 277.85 8.88
5 -16 9 292.37 6.44
-11 -5 -9 259.55 16.66
-11 -5 -9 263.91 6.88
5 -16 6 234.5 12.95
-11 -5 -6 268.44 15.86
-16 11 6 249.74 9.69
5 -16 3 370.28 13.97
-11 -5 -3 340.19 18.82
-16 11 3 314.9 13.6
-11 -5 0 20.34 3.61
-16 11 0 21.03 3.58
5 -16 -3 780.57 20.19
-11 -5 3 749.19 21.92
-16 11 -3 769.01 19.23
5 -16 -6 219.88 18.48
-11 -5 6 188.79 10.39
-16 11 -6 199.72 8.76
5 -16 -9 376.44 18.13
-11 -5 9 379.88 7.93
-16 11 -9 389.69 14.12
5 -16 -12 258.14 13.23
-16 11 -12 229.2 12.22
5 -16 -15 30.36 6.4
-16 11 -15 27.86 4.87
5 -16 -18 64.89 10.2
-16 11 -18 57.62 14.33
-10 -6 -19 3.97 1.58
-10 -6 -19 3.5 1.79
-10 -6 -16 113.99 12.02
-16 10 16 106.84 12.15
-10 -6 -16 132.15 9.44
-10 -6 -13 51.65 10.84
-16 10 13 58.48 5.6
-10 -6 -13 45.2 7.7
6 -16 10 358.94 13.85
-10 -6 -10 363.9 27.32
-16 10 10 349.75 15.23
-10 -6 -10 353.7 14.45
6 -16 7 11.8 4.49
-10 -6 -7 11.55 5.03
-16 10 7 11.73 2.87
6 -16 4 910.98 17.52
-10 -6 -4 824.67 24.51
-16 10 4 841.96 20.53
6 -16 1 3.2 2.02
-10 -6 -1 9 2.14
-16 10 1 4.69 3.06
6 -16 -2 391.18 19.84
-10 -6 2 358.32 10.91
-16 10 -2 386.46 11.45
6 -16 -5 24.09 5.04
-10 -6 5 21.87 3.76
-16 10 -5 19.04 4.67
6 -16 -8 382.65 13.3
-10 -6 8 357.3 13.2
-16 10 -8 340.13 22.38
6 -16 -11 1.49 1.77
-16 10 -11 -1.49 2.4
6 -16 -14 168.04 12.62
-16 10 -14 165.63 9.01
6 -16 -17 34.07 6.59
-16 10 -17 24.99 6.7
-9 -7 -17 26.59 6.31
-9 -7 -17 22.66 5.52
-9 -7 -14 72.92 15.46
-16 9 14 71.02 6.36
-9 -7 -14 89.74 6.39
7 -16 11 1.97 2.07
-9 -7 -11 6.66 4.13
-16 9 11 2.14 1.7
-9 -7 -11 3.08 2.46
7 -16 8 0.88 1.81
-9 -7 -8 2.44 2.55
-16 9 8 3.89 1.99
7 -16 5 36.07 6.61
-9 -7 -5 40.9 6.77
-16 9 5 36.24 5.18
7 -16 2 105.34 9.81
-9 -7 -2 93.3 7.03
-16 9 2 106.12 11.25
7 -16 -1 8.12 2.62
-9 -7 1 1.75 1.46
-16 9 -1 0.94 1.45
7 -16 -4 95.2 7.74
-9 -7 4 101.27 7.68
-16 9 -4 102.78 8.97
9 7 -4 85.62 4.32
7 -16 -7 318.56 17.68
-9 -7 7 317.01 11.79
-16 9 -7 299.94 11.02
7 -16 -10 14.1 4.51
-9 -7 10 9.3 2.96
-16 9 -10 12.82 3.6
7 -16 -13 2.2 2.49
-16 9 -13 -0.87 2.67
7 -16 -16 -0.9 2.69
-16 9 -16 1.97 1.86
7 -16 -19 29.73 5.53
-16 9 -19 5.78 3.02
-8 -8 -18 18.92 5.37
-8 -8 -18 38.62 9.56
-8 -8 -15 11.79 3.62
-16 8 15 9.18 3.46
-8 -8 -15 10.65 4.02
-8 -8 -12 136.05 15.1
-16 8 12 131.81 6.06
-8 16 -12 120.24 9.96
-8 -8 -12 131.05 8.42
8 -16 9 1.88 2.15
-8 -8 -9 1.76 2.65
-16 8 9 2.22 1.28
8 -16 6 102.77 8.61
-8 -8 -6 107.8 9.59
-16 8 6 113.71 10.73
8 -16 3 47.08 7.9
-8 -8 -3 60.17 13.36
-16 8 3 47.44 6.19
8 -16 0 618.97 27.95
-8 -8 0 636.5 20.84
-16 8 0 667.99 19.29
8 -16 -3 70.09 12.24
-8 -8 3 66.09 7.84
-16 8 -3 63.23 5.07
8 8 -3 49.56 3.72
8 -16 -6 84.59 13.17
-8 -8 6 92.61 6.14
-16 8 -6 84.18 7.95
8 -16 -9 76.88 7.97
-8 -8 9 53.38 7.03
-16 8 -9 56.81 5.78
8 -16 -12 113.82 13.71
-16 8 -12 131.94 7.24
8 -16 -15 8.91 3.52
-16 8 -15 5.72 3.4
8 -16 -18 28.67 6.14
-16 8 -18 32.67 6.96
-7 -9 -19 38.9 12.53
-7 -9 -19 61.24 14.87
-7 -9 -16 121.49 19.64
-7 -9 -16 126.52 9.71
-7 -9 -13 117.11 8.33
-16 7 13 117.8 11.22
-9 16 -13 109.77 7.67
-7 -9 -13 135.15 7.21
9 -16 10 954.58 14.28
-7 -9 -10 916.63 31.27
-16 7 10 864.11 36.34
9 -16 7 1315.75 34.64
-7 -9 -7 1301.41 37.21
-16 7 7 1339.71 38.18
9 -16 4 59.88 9.2
-7 -9 -4 68.84 13.17
-16 7 4 70.35 11.23
9 -16 1 1059.98 29.42
-7 -9 -1 1053.49 32.21
-16 7 1 1092.99 36.85
9 -16 -2 53.18 7.6
-7 -9 2 79.34 11.97
-16 7 -2 71.02 13.73
7 9 -2 56.74 4.64
9 -16 -5 278.73 13
-7 -9 5 306.17 8.93
-16 7 -5 312.34 10.11
9 -16 -8 230.1 11.14
-7 -9 8 232.39 10.03
-16 7 -8 232.37 15.23
9 -16 -11 609.36 32.98
-16 7 -11 614.35 28.2
9 -16 -14 127.08 17.43
-16 7 -14 124.62 24.86
9 -16 -17 394.81 25.38
-16 7 -17 400.83 18.4
-6 -10 -17 422.09 14.46
-6 -10 -17 452.55 14.55
-6 -10 -14 43.71 7.82
-16 6 14 35.06 9.46
-6 -10 -14 53.63 8.75
-6 -10 -11 556.33 25.89
-16 6 11 548.3 21.24
-10 16 -11 562.77 22.34
10 -16 8 17.7 5.04
-6 -10 -8 38.05 7.74
-16 6 8 27.09 4.11
10 -16 5 459.02 11.18
-6 -10 -5 479.35 22.06
-16 6 5 451.59 14.07
10 -16 2 98.76 8.02
-6 -10 -2 122.79 10.74
-16 6 2 125.53 12.75
-16 6 2 110.21 8.23
10 -16 -1 697.13 23.15
-6 -10 1 716.49 30.27
-16 6 -1 735.07 23.31
10 -16 -4 343.48 10.34
-6 -10 4 372.19 11.67
-16 6 -4 372.25 10.35
10 -16 -7 697.34 21.86
-6 -10 7 772.28 20.05
-16 6 -7 754.83 22.76
10 -16 -10 533.01 20.57
-16 6 -10 472.5 23.81
10 -16 -13 360.63 21.91
-16 6 -13 341.1 13.27
10 -16 -16 172.09 16.18
-16 6 -16 122.17 22.79
10 -16 -19 41.57 10.97
-16 6 -19 39.66 10.3
-5 -11 -18 71.91 12.3
-5 -11 -18 90.73 14.68
-5 -11 -15 8.65 3.73
-5 -11 -12 195.17 13.85
-16 5 12 192.39 12.12
-11 16 -12 202.91 8.65
-5 -11 -9 24.91 5.23
-16 5 9 30.59 4.94
11 -16 6 746.52 19.96
-5 -11 -6 730.64 25.78
-16 5 6 704.14 21.92
11 -16 3 128.38 11.21
-5 -11 -3 141.66 10.81
-16 5 3 135.49 9.26
11 -16 0 347.46 13.11
-5 -11 0 354.51 10.69
-16 5 0 358.79 10.79
11 -16 -3 5.96 1.72
-5 -11 3 5.64 2
-16 5 -3 8.55 3.3
11 -16 -6 686.58 20.22
-5 -11 6 652.73 18.95
-16 5 -6 663.14 20.57
11 -16 -9 29.01 4.34
-5 -11 9 15.65 2.98
-16 5 -9 15.35 5.4
11 -16 -12 440.13 21.4
-16 5 -12 446.39 15.62
11 -16 -15 82.71 7.31
-16 5 -15 61.9 11.27
11 -16 -18 81.3 8.91
-16 5 -18 74.84 14.46
-4 -12 -19 4.01 3.51
-4 -12 -16 3.82 2.52
-4 -12 -13 19.54 5.5
-16 4 13 10.28 3.05
-12 16 -13 13.83 2.88
-4 -12 -10 3.75 2.54
-16 4 10 10.07 3.75
-12 16 -10 8.77 2.87
12 -16 7 45.4 7.98
-4 -12 -7 49.74 8.59
-16 4 7 44.41 5.72
12 -16 4 137.72 9.4
-4 -12 -4 159.31 17.92
-16 4 4 138.95 8.58
12 -16 1 197.53 12.66
-4 -12 -1 163.76 11.1
-16 4 1 185.12 18.01
12 -16 -2 -2.01 2.63
-4 -12 2 2.47 1.81
-16 4 -2 6.36 2.14
12 -16 -5 21.5 5.8
-4 -12 5 14.23 3.86
-16 4 -5 15.17 3.36
12 -16 -8 5.7 2.85
-4 -12 8 1.84 1.33
-16 4 -8 5.88 1.86
12 -16 -11 55.97 8.48
-16 4 -11 44.28 8.69
12 -16 -14 6.61 2.22
-16 4 -14 2.31 2.72
12 -16 -17 23.7 3.28
-16 4 -17 14.75 4.48
-3 -13 -17 24.39 7.16
-3 -13 -14 8.66 5.11
-13 16 -14 8.53 3.33
-3 -13 -11 5.3 2.84
-16 3 11 8.27 2.81
-13 16 -11 8.03 3.14
-3 -13 -8 5.5 3.49
-16 3 8 3.47 1.98
-13 16 -8 2.19 2.07
13 -16 5 169.61 12.94
-3 -13 -5 166.57 17.68
-16 3 5 164.03 8.69
13 -16 2 12.02 3.27
-3 -13 -2 11.73 2.94
-16 3 2 9.85 3.22
13 -16 -1 109.78 10.37
-3 -13 1 103.18 8.65
-16 3 -1 91.89 7.64
13 -16 -4 115.85 9.32
-3 -13 4 130.23 10.17
-16 3 -4 125.83 8.89
13 -16 -7 19.9 3.97
-3 -13 7 23.42 4.8
-16 3 -7 25.1 3.75
13 -16 -10 21.36 4.47
-16 3 -10 16.56 4.35
13 -16 -13 43.99 5.31
-16 3 -13 36.31 7.47
13 -16 -16 4.48 3.19
-16 3 -16 0.04 2.34
13 -16 -19 4.42 3.22
-16 3 -19 7.52 4.76
-2 -14 -18 107.54 12.07
-2 -14 -15 7.5 4.5
-14 16 -15 5.48 2.73
-2 -14 -12 22.25 8.4
-16 2 12 27.76 8.27
-14 16 -12 24.33 5.58
-2 -14 -9 2.66 1.84
-16 2 9 2.69 2.23
-14 16 -9 2.05 2.1
-2 -14 -6 107.61 10.83
-16 2 6 114.17 4.11
-14 16 -6 103.28 5.13
14 -16 3 111.71 11.14
-2 -14 -3 118.21 10.8
-16 2 3 97.47 8.56
14 -16 0 27.56 4.55
-2 -14 0 18.95 3.75
-16 2 0 22.33 4.89
14 -16 -3 18.2 4.77
-2 -14 3 19.37 4.61
-16 2 -3 23.32 4.97
14 -16 -6 318.65 12.4
-2 -14 6 311.02 11.05
-16 2 -6 295.59 15.45
14 -16 -9 4.9 2.04
-2 -14 9 2.52 1.61
-16 2 -9 3.09 2.51
14 -16 -12 8.53 2.46
-16 2 -12 8.98 3.11
14 -16 -15 4.66 2.41
-16 2 -15 3.38 2.11
14 -16 -18 40.49 7.63
-16 2 -18 57.12 12.52
-1 -15 -16 4.18 2.03
-1 -15 -13 9.69 4.77
-15 16 -13 9.88 2.85
-1 -15 -10 15.98 3.42
-16 1 10 7.36 1.75
-15 16 -10 14.13 4.3
-1 -15 -7 76.25 14.83
-16 1 7 84.32 7.19
-15 16 -7 77.75 7.22
15 -16 4 153.78 12.89
-1 -15 -4 146.53 17.39
-16 1 4 157.5 11
15 -16 1 104.41 9.7
-1 -15 -1 114.1 7.35
-16 1 1 112.18 7.59
15 -16 -2 314.66 19.88
-1 -15 2 281.25 14.35
-16 1 -2 295.66 11.88
15 -16 -5 122.96 13.4
-1 -15 5 110.72 9.42
-16 1 -5 105.06 9.64
15 -16 -8 2.77 1.7
-1 -15 8 0.35 1.35
-16 1 -8 1.27 3.02
15 -16 -11 9.07 3.65
-16 1 -11 3.04 1.84
15 -16 -14 10.89 5.13
-16 1 -14 14.1 5.24
15 -16 -17 89.69 12.86
-16 1 -17 76.46 19.15
0 -16 -17 6.24 4.97
0 -16 -14 18.96 6.21
-16 16 -14 4.17 2.54
0 -16 -11 52.96 9.48
-16 0 11 55.19 8.61
-16 16 -11 53.53 8.27
0 -16 -8 2.16 2.71
-16 0 8 6.08 3.51
-16 16 -8 11.84 5.47
0 -16 -5 18.79 5.32
-16 0 5 14.15 3.88
-16 16 -5 12.12 5.14
16 -16 2 38.2 6.45
0 -16 -2 38.35 6.96
-16 0 2 38.87 7.74
16 -16 -1 95.81 14.32
0 -16 1 95.23 8.31
-16 0 -1 110.36 6.56
16 -16 -4 2.39 1.87
0 -16 4 2.46 1.79
-16 0 -4 1.73 2.07
16 -16 -7 70.52 8.83
0 -16 7 69.17 6.11
-16 0 -7 77.71 12.31
16 -16 -10 79.66 9.95
-16 0 -10 58.6 15.15
16 -16 -13 19.25 3.37
-16 0 -13 8.87 4.64
16 -16 -16 9.05 4.49
-16 0 -16 7.12 3.45
17 -16 -15 0.09 1.58
-16 -1 -15 5.97 5.57
17 -16 -12 229.13 14.04
-16 -1 -12 280.15 15.24
17 -16 -9 40.02 7.24
-16 -1 -9 38.1 7.54
17 -16 -6 827.11 24.23
1 -17 6 869.8 16.66
-16 -1 -6 829.87 16.91
17 -16 -3 6.18 3.55
1 -17 3 4.76 2.57
-16 -1 -3 5.25 3.08
17 -16 0 549.96 21.84
1 -17 0 618.75 33.29
-16 -1 0 575.39 22.1
1 -17 -3 -0.31 2.47
-16 -1 3 1.41 2.84
-17 16 -3 3.49 1.36
1 -17 -6 502.45 13.25
-16 -1 6 483.77 13.53
-17 16 -6 521.15 9.92
1 -17 -9 36.51 7.86
-16 -1 9 20.8 5.27
-17 16 -9 38.24 5.09
1 -17 -12 185.32 16.81
-17 16 -12 202.35 14.51
1 -17 -15 2.68 2.22
-17 16 -15 0.54 2.24
17 -15 -16 140.58 17.59
-15 -2 -16 106.52 25.51
17 -15 -13 143.11 16.91
-15 -2 -13 154.18 13.72
17 -15 -10 370.91 19.7
-15 -2 -10 347.33 25.95
17 -15 -7 561.32 13.28
17 -15 -4 22.21 4.54
2 -17 4 27.64 5.3
-15 -2 -4 23.47 6.15
17 -15 -1 505.44 18.57
2 -17 1 492.44 13.3
-15 -2 -1 535.6 24.95
2 -17 -2 87.95 15.89
-15 -2 2 105.95 6.8
-17 15 -2 94.64 9.71
2 -17 -5 553.33 23.82
-15 -2 5 503.68 21.93
-17 15 -5 509.08 21.45
2 -17 -8 58.79 10.34
-15 -2 8 59.08 9.89
-17 15 -8 72.45 8.52
2 -17 -11 381.15 21.21
-17 15 -11 382.08 15.51
2 -17 -14 45.79 8.18
-17 15 -14 48.08 11.72
2 -17 -17 269.39 24.37
17 -14 -17 103.37 19.52
-14 -3 -17 105.82 20.69
-14 -3 -17 102.68 17.05
17 -14 -14 89.32 9.41
-14 -3 -14 95.84 18.02
-14 -3 -14 81.81 13.43
17 -14 -11 218.54 21.71
-14 -3 -11 190.51 15.15
-14 -3 -11 188.32 8.37
3 -17 8 4.3 2.38
-14 -3 -8 4.16 2.44
17 -14 -5 298.6 17.35
3 -17 5 295.42 7.59
-14 -3 -5 268.86 20.38
3 -17 2 288.1 10.04
-14 -3 -2 283.99 8.56
3 -17 -1 564.09 23.82
-14 -3 1 553.76 21.69
-17 14 -1 591.89 15.97
3 -17 -4 176.63 10.78
-14 -3 4 178.58 6.82
-17 14 -4 161.05 15.01
3 -17 -7 107.96 18.45
-14 -3 7 145.93 8.78
-17 14 -7 135.74 11.38
3 -17 -10 369.22 19.89
-14 -3 10 341.51 10.17
-17 14 -10 367.16 10.51
3 -17 -13 132.31 12.3
-17 14 -13 127.36 7.16
3 -17 -16 39.17 12.37
-17 14 -16 52.75 11.54
-13 -4 -18 10.73 5.05
-13 -4 -18 10.88 2.92
17 -13 -15 15.84 3.08
-13 -4 -15 22.65 6.15
-13 -4 -15 15.75 2.49
17 -13 -12 128.37 12.11
-13 -4 -12 141.37 11.58
-13 -4 -12 139.03 7.68
17 -13 -9 9.4 3.85
4 -17 9 11.3 2.6
-13 -4 -9 12.35 7.22
-13 -4 -9 15.14 3.05
17 -13 -6 88.3 5.77
4 -17 6 65.18 6.59
-13 -4 -6 73.48 14.87
4 -17 3 117.45 8.88
-13 -4 -3 121.81 13.76
-17 13 3 108.33 8.36
4 -17 0 75.67 6.91
-13 -4 0 79.77 5.98
-17 13 0 84.18 8.27
4 -17 -3 9.08 3.58
-13 -4 3 8.46 2.86
-17 13 -3 7.06 2.62
4 -17 -6 6.95 3.13
-13 -4 6 3.56 2.97
-17 13 -6 11.49 3.67
4 -17 -9 81.02 13.35
-13 -4 9 75.45 6.09
-17 13 -9 78.29 7.62
4 -17 -12 116.18 9.57
-17 13 -12 147.08 8.52
4 -17 -15 20.08 4.43
-17 13 -15 13.65 5.61
4 -17 -18 3.16 2.63
-12 -5 -16 16.68 6.25
-12 -5 -16 15.91 3.45
17 -12 -13 3.12 1.66
-12 -5 -13 8.54 4.7
-12 -5 -13 2.39 1.6
17 -12 -10 7.63 2.11
5 -17 10 2.76 2.52
-12 -5 -10 8.25 4.16
-12 -5 -10 0.21 1.09
5 -17 7 31.37 6.29
-12 -5 -7 44.18 6.83
-17 12 7 39.92 8.14
5 -17 4 134.77 9.39
-12 -5 -4 119.31 10.05
-17 12 4 109.04 9.66
5 -17 1 8.22 2.85
-12 -5 -1 -0.71 2.95
-17 12 1 2.4 2.62
5 -17 -2 121.11 7.04
-12 -5 2 97.78 5.37
-17 12 -2 102.12 17.43
5 -17 -5 31.21 5.56
-12 -5 5 27.49 7.19
-17 12 -5 40.02 5.66
5 -17 -8 70.54 12.65
-12 -5 8 54.48 8.41
-17 12 -8 70.61 11.39
5 -17 -11 -0.43 3.15
-17 12 -11 1.92 2.51
5 -17 -14 3.42 2.46
-17 12 -14 2.2 2.06
5 -17 -17 12.97 3.77
-17 12 -17 5.21 3.64
-11 -6 -17 25.74 6.21
-11 -6 -17 16.96 5.29
-11 -6 -14 8.08 3.64
-17 11 14 2.56 2.14
-11 -6 -14 4.37 2.91
-11 -6 -11 79.9 16.49
-17 11 11 67.45 5.44
-11 -6 -11 59.22 7.49
6 -17 8 2.36 1.61
-11 -6 -8 0.54 3
-17 11 8 2.39 1.44
6 -17 5 391.74 13.01
-11 -6 -5 353.76 15.45
-17 11 5 335.97 19.13
6 -17 2 25.35 4.55
-11 -6 -2 33.03 7.64
-17 11 2 38.62 7.76
6 -17 -1 94.2 9.17
-11 -6 1 92.26 7.05
-17 11 -1 94.42 5.33
6 -17 -4 10.16 3.07
-11 -6 4 19.41 3.32
-17 11 -4 23.4 4.54
6 -17 -7 88.78 18.58
-11 -6 7 61.81 9.25
-17 11 -7 66.41 12.22
6 -17 -10 5.77 3.26
-11 -6 10 3.73 2.1
-17 11 -10 3.61 2.12
6 -17 -13 8.62 4.64
-17 11 -13 16.18 3.38
6 -17 -16 12.56 4.08
-17 11 -16 13.48 3.42
-10 -7 -18 30.83 9.6
-10 -7 -15 2.27 2.11
-17 10 15 0.9 1.36
-10 -7 -15 -0.13 1.85
-10 -7 -12 2.97 2.41
-17 10 12 6.72 1.77
-10 -7 -12 1.61 1.61
7 -17 9 0.59 1.4
-10 -7 -9 9.24 5.65
-17 10 9 9.44 3.7
7 -17 6 1.33 2.05
-10 -7 -6 0.72 2.97
-17 10 6 1.5 2.75
7 -17 3 64.95 9.26
-10 -7 -3 56.44 12.48
-17 10 3 52.98 12.18
7 -17 0 94.48 10.77
-10 -7 0 98.03 9.76
-17 10 0 100.79 11.3
7 -17 -3 3.76 2
-10 -7 3 10.03 2.9
-17 10 -3 7.1 4.83
7 -17 -6 114.17 9.02
-10 -7 6 124.92 7.37
-17 10 -6 117.87 13.27
7 -17 -9 16.94 4.26
-10 -7 9 15.05 4.84
-17 10 -9 23.55 5.11
7 -17 -12 1.93 1.93
-17 10 -12 2.56 2.53
7 -17 -15 0.67 3.38
-17 10 -15 1.46 1.42
7 -17 -18 3.88 3.3
-17 10 -18 5.84 2.66
-9 -8 -19 -1.15 2.9
-9 -8 -19 2.17 1.7
-9 -8 -16 3.48 2.53
-9 -8 -16 2.95 1.63
-9 -8 -13 20.99 9.46
-17 9 13 22.7 6.12
-9 -8 -13 26.77 7.32
8 -17 10 -0.13 1.69
-9 -8 -10 3.96 2.57
-17 9 10 1.21 1.76
8 -17 7 18.97 3.66
-9 -8 -7 12.2 5.21
-17 9 7 25.49 4.19
8 -17 4 15.86 2.82
-9 -8 -4 7.46 5
-17 9 4 11.4 3.84
8 -17 1 3.59 2.31
-9 -8 -1 0.28 1.99
-17 9 1 0.4 2.24
8 -17 -2 181.04 12.64
-9 -8 2 222.13 11.01
-17 9 -2 202.15 10.91
8 -17 -5 97.91 6.96
-9 -8 5 90.15 4.5
-17 9 -5 93.8 8.83
8 -17 -8 9.3 2.81
-9 -8 8 4.04 2.65
-17 9 -8 7.3 3.45
8 -17 -11 42.5 7.14
-17 9 -11 38.34 7.27
8 -17 -14 6.99 2.79
-17 9 -14 1.64 1.82
8 -17 -17 6.78 2.85
-17 9 -17 8.46 2.99
-8 -9 -17 69.78 17.35
-8 -9 -17 84.02 10.02
-8 -9 -14 6.98 3.97
-17 8 14 2.52 2.63
-8 -9 -14 2.08 2.58
-8 -9 -11 287.25 10.9
-17 8 11 267.83 8.52
9 -17 8 127.78 7.26
-8 -9 -8 143.62 15.43
-17 8 8 126.51 6.54
9 -17 5 294.98 13.14
-8 -9 -5 290.88 12.26
-17 8 5 304.37 11.5
9 -17 2 224.58 9.56
-8 -9 -2 207.48 9.64
-17 8 2 237.89 9.18
9 -17 -1 615.2 13.6
-8 -9 1 587.7 14.83
-17 8 -1 600.59 15.68
9 -17 -4 52.16 7.1
-8 -9 4 40.45 8.53
-17 8 -4 43.15 10.02
9 -17 -7 545.33 17.26
-8 -9 7 560.08 12.85
-17 8 -7 566.52 11.07
9 -17 -10 103.27 13.23
-17 8 -10 97.37 16.08
9 -17 -13 105.09 14.81
-17 8 -13 100.37 17.45
9 -17 -16 131.28 16.89
-17 8 -16 110.55 15.99
9 -17 -19 10.47 3.9
-17 8 -19 16.85 4.65
-7 -10 -18 259.63 10.83
-7 -10 -18 248.78 17.09
-7 -10 -15 21.8 5.92
-7 -10 -15 21.66 5.31
-7 -10 -12 432.73 25.83
-17 7 12 464.54 11.48
-10 17 -12 437.88 16.7
10 -17 9 100.77 5.84
-7 -10 -9 106.48 8.67
-17 7 9 81.91 9.43
10 -17 6 1055.59 120.72
-7 -10 -6 1034.51 24.93
-17 7 6 1024.41 25.17
10 -17 3 25.98 7.8
-7 -10 -3 29.34 5.7
-17 7 3 28.01 6.79
10 -17 0 1522.23 13.76
-7 -10 0 1479.66 28.02
-17 7 0 1512.82 18.33
10 -17 -3 18.01 4.02
-7 -10 3 11.58 1.84
-17 7 -3 17.74 4.67
10 -17 -6 1014.88 16.8
-7 -10 6 1060.2 120.59
-17 7 -6 1035.76 20.73
10 -17 -9 43.98 6.79
-7 -10 9 37.26 7.71
-17 7 -9 34.99 9.27
10 -17 -12 494.23 19.36
-17 7 -12 497.76 19.36
10 -17 -15 10.49 3.96
-17 7 -15 6.9 4.41
10 -17 -18 166.56 19.83
-17 7 -18 192.94 14.64
-6 -11 -16 191.79 16.01
-6 -11 -13 282.22 19.47
-17 6 13 300.23 10.18
-11 17 -13 290.33 12.23
-6 -11 -10 220.52 14
-17 6 10 194.79 13.33
-11 17 -10 181.16 10.24
11 -17 7 396.01 12.2
-6 -11 -7 401.19 11.2
-17 6 7 379.47 12.86
11 -17 4 68.34 9.21
-6 -11 -4 71.7 8.68
-17 6 4 57.78 5.05
11 -17 1 432.78 16.9
-6 -11 -1 444.29 14.16
-17 6 1 446.62 25.93
11 -17 -2 101.58 6.49
-6 -11 2 122.35 15.21
-17 6 -2 124.3 8.12
11 -17 -5 848.41 25.77
-6 -11 5 826.67 25.91
-17 6 -5 851.55 25.62
11 -17 -8 36.05 7.88
-6 -11 8 32.29 6.37
-17 6 -8 45.72 8.07
11 -17 -11 742 16.11
-17 6 -11 674.29 17.52
11 -17 -14 10.51 3.45
-17 6 -14 18.43 3.88
11 -17 -17 158.31 19.49
-17 6 -17 164.63 9.91
-5 -12 -17 53.39 11.2
-5 -12 -14 1.62 2.06
-5 -12 -11 67.21 12.41
-17 5 11 57.88 9.82
-12 17 -11 63.69 6.53
12 -17 8 7.86 3.21
-5 -12 -8 10.86 3.7
-17 5 8 11.93 3.82
12 -17 5 407.93 14.85
-5 -12 -5 407.91 17.41
-17 5 5 397.76 11.95
12 -17 2 136.24 11.56
-5 -12 -2 153.22 10.45
-17 5 2 116.13 9.07
12 -17 -1 146.81 6.95
-5 -12 1 163.67 6.34
-17 5 -1 167.78 12.32
12 -17 -4 43.03 7.41
-5 -12 4 37.06 6.01
-17 5 -4 34.07 8.15
12 -17 -7 52.77 7.21
-5 -12 7 43.46 7.3
-17 5 -7 39.27 11.79
12 -17 -10 17.1 3.39
-17 5 -10 8.22 3.41
12 -17 -13 86.41 11.13
-17 5 -13 88.75 16.48
12 -17 -16 35.42 6.37
-17 5 -16 17.97 6.9
-4 -13 -18 1.86 2.73
-4 -13 -15 26.81 5.8
-4 -13 -12 2.33 1.53
-17 4 12 0.77 1.34
-13 17 -12 0.32 1.13
-4 -13 -9 23.31 5.51
-17 4 9 25.59 4.56
-13 17 -9 19.67 4.52
13 -17 6 29.95 7.38
-4 -13 -6 40.6 10.19
-17 4 6 46.82 6.35
13 -17 3 149.47 11.08
-4 -13 -3 183.96 7.34
-17 4 3 168.19 8.9
13 -17 0 43.83 8.02
-4 -13 0 62.39 11.47
-17 4 0 70.21 10.07
13 -17 -3 566.26 24.27
-4 -13 3 545.83 18.51
-17 4 -3 603.35 19.07
13 -17 -6 3.07 1.69
-4 -13 6 4.49 3.23
-17 4 -6 9.79 3.77
13 -17 -9 6.32 2.76
-4 -13 9 8.79 1.84
-17 4 -9 11.81 3.28
13 -17 -12 0.24 2.15
-17 4 -12 4.4 2.14
13 -17 -15 9.33 4.03
-17 4 -15 9.31 6.02
13 -17 -18 0.75 2.14
-17 4 -18 1.29 2.35
-3 -14 -16 17.92 6.45
-3 -14 -13 51.4 12.35
-14 17 -13 38.31 13.75
-3 -14 -10 35.93 5.5
-17 3 10 32.52 5.78
-14 17 -10 28.36 10.06
-3 -14 -7 223.4 16.75
-17 3 7 235.62 11.32
-14 17 -7 241.85 11.47
14 -17 4 1.4 2.05
-3 -14 -4 2.53 1.57
-17 3 4 15.44 7.26
14 -17 1 209.76 11.77
-3 -14 -1 228.29 10.81
-17 3 1 209.55 14.58
14 -17 -2 214.65 15.38
-3 -14 2 210.52 9.68
-17 3 -2 219.76 10.04
14 -17 -5 144.31 8.52
-3 -14 5 149.37 9.5
-17 3 -5 135.48 8.59
14 -17 -8 1.87 1.31
-3 -14 8 2.11 1.11
-17 3 -8 3.15 1.74
14 -17 -11 57.89 10.35
-17 3 -11 45.7 11.23
14 -17 -14 78.2 9.24
-17 3 -14 68.94 13.7
14 -17 -17 74.21 8.79
-17 3 -17 59.21 15.78
-2 -15 -17 60.79 20.02
-2 -15 -14 46.89 10.12
-15 17 -14 39.09 10.64
-2 -15 -11 -0.71 3
-17 2 11 0.99 1.63
-15 17 -11 -1.48 2.08
-2 -15 -8 334.94 15.84
-17 2 8 325.9 14.14
-15 17 -8 328.58 11.78
15 -17 5 60.53 9.64
-2 -15 -5 65.17 9.41
-17 2 5 65.77 12.4
15 -17 2 315.64 10.36
-2 -15 -2 293.61 14.17
-17 2 2 298.33 17.9
15 -17 -1 253.24 7.69
-2 -15 1 257.96 14.3
-17 2 -1 256.3 19.39
15 -17 -4 271.27 16.21
-2 -15 4 274.14 17.19
-17 2 -4 254.69 15.59
15 -17 -7 64.01 10.12
-2 -15 7 47.69 8.7
-17 2 -7 59.84 6.86
15 -17 -10 94.88 9.73
-17 2 -10 86.35 17.64
15 -17 -13 11.47 4.33
-17 2 -13 3.16 3.8
15 -17 -16 248.51 26.06
-17 2 -16 306.96 12.91
-1 -16 -15 42.61 10.17
-1 -16 -12 10.69 4.75
-16 17 -12 6.94 3.39
-1 -16 -9 94.58 16.66
-17 1 9 114.9 5.76
-16 17 -9 106.74 11.83
-1 -16 -6 49.58 9
-17 1 6 42.45 8.74
-16 17 -6 38.83 8.31
16 -17 3 4.22 2.03
-1 -16 -3 -0.65 2.41
-17 1 3 5.02 1.83
16 -17 0 57.91 10.62
-1 -16 0 51.03 9.74
-17 1 0 54.99 11.79
16 -17 -3 389.98 20.29
-1 -16 3 391.74 16.18
-17 1 -3 425.41 18.16
16 -17 -6 44.02 7.65
-1 -16 6 39.12 9.14
-17 1 -6 39.5 5.38
16 -17 -9 52.93 7.64
-17 1 -9 50.53 12.54
16 -17 -12 16.51 2.71
-17 1 -12 7.52 3.67
16 -17 -15 128.25 14.58
-17 1 -15 113.12 16.36
0 -17 -16 28.21 7.55
0 -17 -13 30.39 8.69
-17 17 -13 27.88 6.74
0 -17 -10 55.85 9.74
-17 0 10 49.98 7.24
-17 17 -10 48.59 7.15
0 -17 -7 8.52 3.94
-17 0 7 1.09 2.08
-17 17 -7 4.16 2.8
0 -17 -4 114.84 8.62
-17 0 4 103.42 15.87
-17 17 -4 92.7 11.3
17 -17 1 82.24 9.07
0 -17 -1 81.73 5.45
-17 0 1 86.06 6.51
17 -17 -2 101.96 5.46
0 -17 2 99.32 7.53
-17 0 -2 94.16 16.21
17 -17 -5 144.97 9.69
0 -17 5 144.28 11.37
-17 0 -5 150.59 15.13
17 -17 -8 18.69 4.36
0 -17 8 24.89 4.45
-17 0 -8 22.63 8.1
17 -17 -11 60.46 6.22
-17 0 -11 57.84 15.76
17 -17 -14 52.35 7.64
-17 0 -14 44.31 12.55
18 -17 -13 69.01 11.11
-17 -1 -13 51.07 15.92
18 -17 -10 112.59 14.35
-17 -1 -10 80.56 19.52
18 -17 -7 327.74 11.73
1 -18 7 302.62 11.58
-17 -1 -7 289.04 22.75
18 -17 -4 38.79 6.53
1 -18 4 27.13 5.91
-17 -1 -4 38.55 6.94
18 -17 -1 105.6 14.93
1 -18 1 111.83 10.42
-17 -1 -1 103.52 7.11
1 -18 -2 149.51 10.38
-17 -1 2 155.51 11.58
-18 17 -2 165.69 7.83
1 -18 -5 324.55 18.33
-17 -1 5 276.93 10.02
-18 17 -5 242.35 17.3
1 -18 -8 34.89 6.94
-17 -1 8 32.93 5.25
-18 17 -8 35.38 7.77
1 -18 -11 152.98 15.91
-18 17 -11 119.95 20.29
1 -18 -14 12.49 5.35
-18 17 -14 18.12 5.08
18 -16 -14 1.8 1.71
-16 -2 -14 4.72 3.35
18 -16 -11 562.98 109.79
-16 -2 -11 497.73 23.91
18 -16 -8 60.79 8.81
2 -18 8 44.38 7.52
-16 -2 -8 57.4 12.16
18 -16 -5 383.64 12.51
2 -18 5 380.74 14.75
-16 -2 -5 361.08 13.23
18 -16 -2 165.92 19.73
2 -18 2 147.73 13.23
-16 -2 -2 181.65 15.23
2 -18 -1 317.78 9.91
-16 -2 1 314.89 15.86
-18 16 -1 277.46 19.27
2 -18 -4 147.45 9.04
-16 -2 4 148.4 9.14
-18 16 -4 148.68 7.14
2 -18 -7 507.14 17.35
-16 -2 7 473.14 17.86
-18 16 -7 473.71 17.26
2 -18 -10 180.75 19.8
-16 -2 10 141.29 11.89
-18 16 -10 165.87 15.65
2 -18 -13 312.09 10.88
-18 16 -13 314.99 16.66
2 -18 -16 128.25 27.77
18 -15 -15 13.38 5.53
-15 -3 -15 20.65 7.28
18 -15 -12 468.18 21.61
-15 -3 -12 499.76 21.68
18 -15 -9 62.05 10.66
3 -18 9 47.14 9.86
-15 -3 -9 49.56 10.55
18 -15 -6 432.25 21.48
3 -18 6 437.33 10.81
-15 -3 -6 427.29 10.97
3 -18 3 34.55 6.84
-15 -3 -3 24.64 6.09
3 -18 0 719.87 29.75
-15 -3 0 743.87 29.19
-18 15 0 729.86 28.48
3 -18 -3 4.73 2.76
-15 -3 3 2.91 2.14
-18 15 -3 1.18 2.03
3 -18 -6 796.61 30.97
-15 -3 6 777.01 19.74
-18 15 -6 781.24 11.36
3 -18 -9 147.1 11.2
-15 -3 9 130.57 8.19
-18 15 -9 125.55 8.22
3 -18 -12 511.4 29.3
-18 15 -12 494.77 20.2
3 -18 -15 3.88 2.88
-18 15 -15 10.67 4.07
18 -14 -16 34.8 8.75
-14 -4 -16 68.07 13.37
18 -14 -13 176.85 15.12
-14 -4 -13 179.93 26.6
18 -14 -10 138.25 16.61
-14 -4 -10 130.47 10.53
18 -14 -7 68 9.57
4 -18 7 47.8 7.42
-14 -4 -7 48.23 12.26
4 -18 4 15.55 4.42
-14 -4 -4 17.64 6.24
-18 14 4 18.61 4.85
4 -18 1 288.96 18.86
-14 -4 -1 322.23 14.24
-18 14 1 309.42 15.07
4 -18 -2 313 18.29
-14 -4 2 324.43 14.8
-18 14 -2 324.37 14.67
4 -18 -5 63.81 12.1
-14 -4 5 60.18 8.28
-18 14 -5 64.85 13.14
4 -18 -8 9.26 3.57
-14 -4 8 16.59 4.39
-18 14 -8 16.56 6.85
4 -18 -11 399.03 23.2
-18 14 -11 417.24 117.72
4 -18 -14 7.49 3.72
-18 14 -14 7.52 3.6
4 -18 -17 23.13 5.29
-18 14 -17 15.3 4.78
-13 -5 -17 2.22 2.85
-18 13 17 1.64 0.94
-13 -5 -17 0.99 0.62
-13 -5 -14 10.24 5.75
-13 -5 -14 1.8 1.26
-13 -5 -11 42.48 8.2
5 -18 8 37.27 7.37
-13 -5 -8 37.91 10.1
-18 13 8 43.99 8.38
5 -18 5 -0.51 2
-13 -5 -5 2.65 3.65
-18 13 5 2.06 2.86
5 -18 2 35.36 5.62
-13 -5 -2 30.53 4.41
-18 13 2 26.63 6.15
5 -18 -1 43.97 8.11
-13 -5 1 37.52 9.76
-18 13 -1 51.07 11.02
5 -18 -4 97.05 15.78
-13 -5 4 106.59 7.07
-18 13 -4 109.97 8.99
5 -18 -7 5.38 3.39
-13 -5 7 -0.13 1.88
-18 13 -7 0.74 1.9
5 -18 -10 12.02 3.17
-18 13 -10 3.8 3.07
5 -18 -13 3.47 2.84
-18 13 -13 3.03 1.97
5 -18 -16 23.66 10.4
-18 13 -16 16.62 6.13
-12 -6 -15 31.17 7.29
-18 12 15 29.98 6.57
-12 -6 -15 25.55 6.51
-12 -6 -12 3.47 4.63
-18 12 12 2.5 1.76
-12 -6 -12 3.82 2.38
6 -18 9 1.46 2
-12 -6 -9 0.61 3.27
-18 12 9 5.98 2.65
6 -18 6 350.59 18.38
-12 -6 -6 330.7 19.95
-18 12 6 338.67 21.44
6 -18 3 50.35 9.44
-12 -6 -3 66.86 11.58
-18 12 3 58.79 5.47
6 -18 0 56.33 11.55
-12 -6 0 48.63 8.48
-18 12 0 66.28 7.46
6 -18 -3 293.48 14.38
-12 -6 3 362.13 19.43
-18 12 -3 311.41 17.54
6 -18 -6 3.27 1.73
-12 -6 6 2.04 1.53
-18 12 -6 4.13 3.53
6 -18 -9 3.88 3.01
-12 -6 9 6.09 1.72
-18 12 -9 6.04 8.44
6 -18 -12 14.1 5.92
-18 12 -12 3.49 3.37
6 -18 -15 45.12 10.2
-18 12 -15 45.85 11.29
-11 -7 -16 5.65 4.68
-18 11 16 4.41 2.05
-11 -7 -16 2.57 1.61
-11 -7 -13 108.2 15.67
-18 11 13 96.81 16.08
-11 -7 -13 99.85 10.96
7 -18 10 4.36 4.62
-11 -7 -10 2.27 2.87
-18 11 10 9.11 2.79
7 -18 7 246.75 10.92
-11 -7 -7 262.5 15.73
-18 11 7 262.09 15.81
7 -18 4 2.08 2.1
-18 11 4 10.26 3.18
7 -18 1 408.17 22.02
-11 -7 -1 407.63 11.3
-18 11 1 454.26 12.34
7 -18 -2 134.43 18.66
-11 -7 2 159.4 10.09
-18 11 -2 153.16 6.45
7 -18 -5 117.12 7.53
-11 -7 5 120.07 8.91
-18 11 -5 120.61 8.36
7 -18 -8 13.61 3.52
-11 -7 8 12.2 3.53
-18 11 -8 10.33 3.77
7 -18 -11 106.83 15.29
-18 11 -11 147.27 15
7 -18 -14 48.31 11.1
-18 11 -14 46.48 12.72
7 -18 -17 58.97 7.36
-18 11 -17 39.83 10.97
-10 -8 -17 11.4 5.44
-10 -8 -17 6.57 2.29
-10 -8 -14 28.25 7.85
-18 10 14 32.86 6.73
-10 -8 -14 32.95 6.74
8 -18 11 2.03 1.9
-10 -8 -11 2.59 1.92
-18 10 11 3.31 3.36
8 -18 8 125.73 8.57
-10 -8 -8 128.32 7.91
-18 10 8 132.04 9.69
8 -18 5 1.78 1.36
-10 -8 -5 3.72 3.53
-18 10 5 4.47 1.92
8 -18 2 165.96 13.54
-10 -8 -2 180.97 6.99
-18 10 2 165.1 6.36
8 -18 -1 35.95 5.86
-10 -8 1 30.4 6.44
-18 10 -1 38.37 9.37
8 -18 -4 43.94 9.63
-10 -8 4 51.64 8.31
-18 10 -4 59.66 10.93
8 -18 -7 1.28 2.19
-10 -8 7 -0.83 1.79
-18 10 -7 1.34 1.89
8 -18 -10 82.55 9.85
-18 10 -10 89.66 12.73
8 -18 -13 1.29 1.44
-18 10 -13 3.22 3.46
8 -18 -16 54.61 7.82
-18 10 -16 37.36 8.11
-9 -9 -18 1.33 2.69
-9 -9 -18 2.67 1.91
-9 -9 -15 24.84 6.45
-18 9 15 18.29 5.16
-9 -9 -15 20.69 3.58
-9 -9 -12 29.6 8.97
-18 9 12 27.81 8.27
-9 18 -12 21.26 4.61
9 -18 9 11.52 2.71
-9 -9 -9 15.7 4.67
-18 9 9 13.66 3.56
9 -18 6 62.15 6.16
-9 -9 -6 41.75 12.19
-18 9 6 64.17 12.06
9 -18 3 2.38 2.56
-9 -9 -3 3.74 2.93
-18 9 3 1.08 2.23
9 -18 0 20.2 3.56
-9 -9 0 18.21 4.59
-18 9 0 18.89 4.49
9 -18 -3 153.23 12.35
-9 -9 3 147.38 9.68
-18 9 -3 178.67 7.87
9 -18 -6 258.18 25.88
-9 -9 6 255.2 11.82
-18 9 -6 222.72 17.81
9 -18 -9 37.27 6.38
-9 -9 9 33.89 5.79
-18 9 -9 30.78 7.3
9 -18 -12 28.55 7.16
-18 9 -12 20.22 4.57
9 -18 -15 4.2 2.66
-18 9 -15 1.27 3.47
9 -18 -18 24.12 3.6
-18 9 -18 26.29 8.62
-8 -10 -16 13.77 4.17
-8 -10 -13 58.61 8.56
-18 8 13 59.49 8.12
10 -18 10 112 6.73
-8 -10 -10 122.38 20.08
-18 8 10 90.28 8.65
10 -18 7 121.5 11.68
-8 -10 -7 113.46 8.61
-18 8 7 109.24 9.76
10 -18 4 424.4 9.69
-8 -10 -4 408.91 9.91
-18 8 4 391.51 9.94
10 -18 1 434.51 22.65
-8 -10 -1 426.93 18.87
-18 8 1 421.65 14.66
10 -18 -2 156.63 9.69
-8 -10 2 136.12 8.12
-18 8 -2 145.02 11.13
10 -18 -5 302.52 10.24
-8 -10 5 286.24 11.58
-18 8 -5 267.99 7.86
10 -18 -8 4.4 2.06
-8 -10 8 8.91 2.84
-18 8 -8 5.6 3.03
10 -18 -11 98.5 10.81
-18 8 -11 75.99 15.48
10 -18 -14 54.56 9.67
-18 8 -14 50.84 13.4
10 -18 -17 115.27 14.91
-18 8 -17 113.16 16.12
-7 -11 -17 54.79 11.91
-7 -11 -14 40.7 8.48
-18 7 14 35.82 7.93
-7 -11 -11 471.71 22.65
-18 7 11 433.51 20.51
-11 18 -11 439.19 18.14
11 -18 8 57.25 10.17
-7 -11 -8 66.7 9.87
-18 7 8 63.21 6.57
11 -18 5 531.67 20.04
-7 -11 -5 515.28 15.42
-18 7 5 504.03 26.42
11 -18 2 86.88 6.57
-7 -11 -2 96.22 7.02
-18 7 2 102.8 13.67
11 -18 -1 525.86 17.02
-7 -11 1 465.38 14.95
-18 7 -1 489.05 12.72
11 -18 -4 147.3 11.19
-7 -11 4 145.5 12.11
-18 7 -4 117.21 7.12
11 -18 -7 91.69 12.14
-7 -11 7 71.47 10.43
-18 7 -7 68.95 9.71
11 -18 -10 248.48 18.2
-18 7 -10 208.28 13.02
11 -18 -13 196 18.16
-18 7 -13 202.14 9.16
11 -18 -16 96.81 12.08
-18 7 -16 74.43 17.19
-6 -12 -15 5.25 2.79
-6 -12 -12 203.48 15.34
-18 6 12 179.25 12.91
-12 18 -12 157.23 15.14
-6 -12 -9 13.67 3.29
-18 6 9 13.95 3.09
12 -18 6 290.43 16.56
-6 -12 -6 287.55 13.62
-18 6 6 281.01 19.11
12 -18 3 0.39 2.11
-6 -12 -3 7.29 3.16
-18 6 3 -3.16 2.65
12 -18 0 569.83 20.76
-6 -12 0 576.61 13.55
-18 6 0 587.75 12.95
12 -18 -3 -1.12 2.36
-6 -12 3 2.19 1.47
-18 6 -3 1.68 3.87
12 -18 -6 83.33 10.9
-6 -12 6 64.19 8.46
-18 6 -6 59.95 15.71
12 -18 -9 4.24 2.14
-18 6 -9 -1.28 2.76
12 -18 -12 260.38 24.65
-18 6 -12 249.62 9.01
12 -18 -15 2.29 2.76
-18 6 -15 1.78 5.28
-5 -13 -16 10.67 3.93
-5 -13 -13 12.25 5.73
-18 5 13 2.71 1.62
-13 18 -13 6.89 3.78
-5 -13 -10 22.71 4.81
-18 5 10 16.02 4.23
-13 18 -10 15.87 3.86
13 -18 7 41.14 8.67
-5 -13 -7 42.43 8.61
-18 5 7 54.4 9.77
13 -18 4 127 10.84
-5 -13 -4 118.7 17.37
-18 5 4 125.79 13.8
13 -18 1 25.39 4.15
-5 -13 -1 20.43 4.45
-18 5 1 21.88 3.72
13 -18 -2 189.89 24.23
-5 -13 2 198.05 23.18
-18 5 -2 197.26 23.82
13 -18 -5 9.61 3.2
-5 -13 5 5.09 2.1
-18 5 -5 6.87 2.23
13 -18 -8 21.66 3.97
-5 -13 8 16.09 5.4
-18 5 -8 21.32 4.5
13 -18 -11 4.93 3.33
-18 5 -11 4.75 4.98
13 -18 -14 73.28 10.65
-18 5 -14 68.32 15.52
13 -18 -17 -0.48 2.37
-18 5 -17 -0.21 2.69
-4 -14 -17 11.94 5.03
-4 -14 -14 251.8 16.48
-4 -14 -11 20.62 6.31
-18 4 11 14.05 5
-14 18 -11 14.91 5.76
-4 -14 -8 260.57 18.57
-18 4 8 274.9 10.22
-14 18 -8 271.99 16.43
14 -18 5 25.88 6.35
-4 -14 -5 25.11 6.18
-18 4 5 33.39 6.52
14 -18 2 211.78 19.64
-4 -14 -2 220.15 11.64
-18 4 2 218.94 10.62
14 -18 -1 6.22 3.16
-4 -14 1 9.35 3.49
-18 4 -1 7.82 3.42
14 -18 -4 372.65 20.88
-4 -14 4 353.16 20.25
-18 4 -4 391.58 15.9
14 -18 -7 14.67 3.94
-4 -14 7 5.82 2.2
-18 4 -7 5.84 4.1
14 -18 -10 181.32 17.08
-18 4 -10 186.83 19.09
14 -18 -13 117.46 14.62
-18 4 -13 80.04 18.97
14 -18 -16 89.77 11.84
-18 4 -16 79.86 19.61
-3 -15 -15 45.01 12.47
-3 -15 -12 63 16.8
-15 18 -12 62.37 12.7
-3 -15 -9 303.22 23.31
-18 3 9 295.61 12.88
-15 18 -9 325.84 14.99
-3 -15 -6 398.21 12.9
-18 3 6 382.59 15.27
15 -18 3 318.76 15.64
-3 -15 -3 332.69 17.87
-18 3 3 341.57 15.27
15 -18 0 114.31 7.83
-3 -15 0 100.27 7.92
-18 3 0 115.37 7.79
15 -18 -3 617.46 29.36
-3 -15 3 599.2 21.61
-18 3 -3 618.15 25.61
15 -18 -6 77.68 12.29
-3 -15 6 62.05 7.6
-18 3 -6 63.52 13.49
15 -18 -9 210.66 13.43
-18 3 -9 185.72 15.65
15 -18 -12 7.37 3.74
-18 3 -12 12.38 5.38
15 -18 -15 434.76 23.81
-18 3 -15 392.91 31.68
-2 -16 -16 3.44 2.46
-2 -16 -13 156.27 16.24
-16 18 -13 186.89 12.51
-2 -16 -10 85.97 13.87
-18 2 10 95.74 7.44
-16 18 -10 92.84 12.8
-2 -16 -7 268.48 16.63
-18 2 7 249.83 12.45
-16 18 -7 257.3 13.46
16 -18 4 0.72 2.17
-2 -16 -4 5.02 4.6
-18 2 4 2.83 2.26
16 -18 1 674.08 25.09
-2 -16 -1 635.36 27.08
-18 2 1 629.79 26.89
16 -18 -2 441.65 13.95
-2 -16 2 423.24 12.12
-18 2 -2 430.05 12.39
16 -18 -5 344.39 18.58
-2 -16 5 404.51 9.81
-18 2 -5 384.81 18.14
16 -18 -8 99.4 13.67
-2 -16 8 80.46 6.12
-18 2 -8 82.52 16.82
16 -18 -11 76.27 8.62
-18 2 -11 70.18 16.1
16 -18 -14 153.86 18.16
-18 2 -14 167.47 15.29
-1 -17 -14 27.21 6.87
-17 18 -14 26.2 7.14
-1 -17 -11 1.27 3.39
-17 18 -11 2.76 2.79
-1 -17 -8 101.15 8.17
-18 1 8 84.43 8.54
-17 18 -8 89.68 11.22
-1 -17 -5 14.78 5.79
-18 1 5 7.67 1.56
-17 18 -5 10.97 3.7
17 -18 2 110.24 9.14
-1 -17 -2 95.69 7.16
-18 1 2 88.99 11.23
17 -18 -1 3 2.43
-1 -17 1 6.9 2.02
-18 1 -1 3.61 2.22
17 -18 -4 146.61 8.77
-1 -17 4 127.84 10.25
-18 1 -4 135.25 9.04
17 -18 -7 5.24 4.03
-1 -17 7 9.42 6.55
-18 1 -7 -0.09 3.32
17 -18 -10 26.12 6.93
-18 1 -10 30.03 8.12
17 -18 -13 31.1 5.68
-18 1 -13 6.3 4.13
0 -18 -15 2.88 2
-18 18 -15 1.58 1.48
0 -18 -12 14.27 5.67
-18 18 -12 15.29 3.28
0 -18 -9 2.9 2.95
-18 0 9 2.43 1.76
-18 18 -9 0.33 1.38
0 -18 -6 12.73 4.42
-18 0 6 14.71 4.02
-18 18 -6 6.41 4.51
0 -18 -3 6.65 3.07
-18 0 3 3.23 2.51
-18 18 -3 0.2 1.54
18 -18 0 3.7 2.67
0 -18 0 1.15 2.28
-18 0 0 7.28 3.11
18 -18 -3 33.62 5.74
0 -18 3 27.22 5.49
-18 0 -3 28.58 5.38
18 -18 -6 104.59 12.44
0 -18 6 96.54 8.09
-18 0 -6 92.04 16.94
18 -18 -9 7.9 3.73
-18 0 -9 3.67 3.17
18 -18 -12 5.96 2.94
-18 0 -12 2.55 2.36
18 -18 -15 3.42 2.3
-18 0 -15 -0.12 2.4
19 -18 -14 6.57 3.31
-18 -1 -14 4.83 3.04
19 -18 -11 11.29 6.89
-18 -1 -11 9.49 4.05
19 -18 -8 10.75 7.35
-18 -1 -8 1.35 2.6
19 -18 -5 4.08 2.99
1 -19 5 2.02 1.74
-18 -1 -5 2.64 2.12
19 -18 -2 -0.05 3.23
1 -19 2 2.05 2.37
-18 -1 -2 2.84 2.43
1 -19 -1 141.64 10.86
-18 -1 1 149.38 9.29
-19 18 -1 138.39 14.35
1 -19 -4 0.7 1.69
-18 -1 4 -0.12 1.37
-19 18 -4 -0.04 2.77
1 -19 -7 34.52 8.57
-18 -1 7 40.65 6.67
-19 18 -7 47.29 7.67
1 -19 -10 4.36 2.59
-19 18 -10 1.31 2.36
1 -19 -13 3.71 2.19
-19 18 -13 2.19 2.82
19 -17 -12 116.63 16.64
-17 -2 -12 102.93 21.58
19 -17 -9 24.05 5.12
-17 -2 -9 19.38 7.76
19 -17 -6 124.21 26.55
2 -19 6 115.28 11.3
-17 -2 -6 119.12 8.83
19 -17 -3 34.97 5.77
2 -19 3 33.51 5.71
-17 -2 -3 25.62 7.46
2 -19 0 215.64 14.83
-17 -2 0 185.64 12.79
-19 17 0 199.32 13.97
2 -19 -3 9.32 4.27
-17 -2 3 13.8 3.08
-19 17 -3 9.45 3.95
2 -19 -6 329.41 12.02
-17 -2 6 293.44 18.93
-19 17 -6 319.32 12.52
2 -19 -9 0.26 2.57
-17 -2 9 -0.19 1.74
-19 17 -9 1.66 1.38
2 -19 -12 139.52 23.31
-19 17 -12 121.47 14.16
19 -16 -13 72.22 14
-16 -3 -13 98.32 11.66
19 -16 -10 157.45 21.29
-16 -3 -10 163.23 16.99
19 -16 -7 101.99 7.66
3 -19 7 86.82 12.88
-16 -3 -7 89.68 11.53
3 -19 4 238.49 15.34
-16 -3 -4 228.48 15.51
3 -19 1 409.07 13.51
-16 -3 -1 378.64 20.65
-19 16 1 370.6 11.83
3 -19 -2 54.59 10.16
-16 -3 2 61.46 11.94
-19 16 -2 68.27 15.95
3 -19 -5 499.18 17.9
-16 -3 5 465.53 17.09
-19 16 -5 427.33 13.2
3 -19 -8 3.51 2.69
-16 -3 8 0.56 1.16
-19 16 -8 2.71 1.35
3 -19 -11 164.06 18.1
-19 16 -11 138.03 16.34
3 -19 -14 33.88 7.58
-19 16 -14 35.91 7.9
19 -15 -14 5.38 3.29
-15 -4 -14 8.98 5.73
19 -15 -11 346.2 15.19
-15 -4 -11 296.22 31.28
19 -15 -8 24.8 5.28
4 -19 8 22.3 4.59
-15 -4 -8 29 8.39
4 -19 5 200.48 11.87
-15 -4 -5 175.49 12.11
-19 15 5 185.16 7.27
4 -19 2 107.9 7.95
-15 -4 -2 89.09 6.58
-19 15 2 98.35 15.29
4 -19 -1 396.19 15.63
-15 -4 1 390.17 19.42
-19 15 -1 349.33 11.12
4 -19 -4 12.17 2.73
-15 -4 4 12.76 3.9
-19 15 -4 6.9 2.85
4 -19 -7 138.63 10
-15 -4 7 142.83 12.1
-19 15 -7 127.26 11.86
4 -19 -10 180.91 16.64
-19 15 -10 172.33 7.06
4 -19 -13 65.84 15.57
-19 15 -13 60.62 13.6
4 -19 -16 25.06 6.67
-19 15 -16 13.06 5.92
-14 -5 -15 18.17 6.07
-19 14 15 11.92 3.26
-14 -5 -12 37.12 8.98
-19 14 12 33.28 7.74
5 -19 9 35.27 7.99
-14 -5 -9 27.1 10.21
-19 14 9 38.58 8.51
5 -19 6 4.11 2.54
-14 -5 -6 5.98 3.73
-19 14 6 2.06 2.08
5 -19 3 21.95 4.02
-14 -5 -3 27.36 5.93
-19 14 3 14.31 4.13
5 -19 0 199.96 11.33
-14 -5 0 188.3 11.13
-19 14 0 177.02 6.86
5 -19 -3 163.79 10.6
-14 -5 3 151.96 12.82
-19 14 -3 153 13.78
5 -19 -6 4.39 4.43
-14 -5 6 2.38 1.7
-19 14 -6 3.01 2.07
5 -19 -9 5.22 1.48
-14 -5 9 8.51 3.17
-19 14 -9 5.73 2.13
5 -19 -12 16.2 4.16
-19 14 -12 19.96 3.84
5 -19 -15 30.74 8.02
-19 14 -15 41.47 10.12
-13 -6 -16 12.37 5.13
-19 13 16 3.98 2.72
-13 -6 -13 55.42 10.6
-19 13 13 37.47 9.34
-13 -6 -10 25.91 6.26
-19 13 10 24.65 8.21
6 -19 7 176.71 6.2
-13 -6 -7 157.93 23.19
-19 13 7 164.22 10.83
6 -19 4 27.47 4.9
-13 -6 -4 23.63 4.54
-19 13 4 24.65 4.55
6 -19 1 45.85 8.47
-13 -6 -1 52.47 4.62
-19 13 1 64.85 7.68
6 -19 -2 244.29 18.23
-13 -6 2 263.49 15
-19 13 -2 261.74 12.6
6 -19 -5 76.69 12.69
-13 -6 5 85.59 5.44
-19 13 -5 68.9 14.8
6 -19 -8 38.07 6.65
-13 -6 8 26.23 4.7
-19 13 -8 41.41 7.29
6 -19 -11 39.88 7.64
-19 13 -11 38.62 7.85
6 -19 -14 67.09 12.37
-19 13 -14 60.85 12.49
-12 -7 -14 275.87 22.65
-19 12 14 311.77 17.82
-12 -7 -11 0.51 2.62
-19 12 11 1.85 1.52
7 -19 8 241.49 9.74
-12 -7 -8 238.42 18.34
-19 12 8 262.05 9.4
7 -19 5 46.72 8.68
-12 -7 -5 50.08 9.71
-19 12 5 55.33 7.72
7 -19 2 500.08 22.45
-12 -7 -2 523.9 21.21
-19 12 2 540.87 21.82
7 -19 -1 7.45 2.7
-12 -7 1 8.57 4.11
-19 12 -1 7.56 1.92
7 -19 -4 707.98 31.06
-12 -7 4 747.01 31.09
-19 12 -4 694.92 29.87
7 -19 -7 6.41 3.32
-12 -7 7 0.98 1.03
-19 12 -7 3.12 1.71
7 -19 -10 374.67 18.76
-19 12 -10 359.56 13.34
7 -19 -13 53.12 10.46
-19 12 -13 36.75 8.79
7 -19 -16 108.18 15
-19 12 -16 86.6 21.05
-11 -8 -15 39.05 7.69
-19 11 15 34.89 9.44
-11 -8 -15 36.2 7.93
-11 -8 -12 122.77 21.78
-19 11 12 126.42 14.08
8 -19 9 202.18 10.59
-11 -8 -9 206.26 17.95
-19 11 9 188.83 12.88
8 -19 6 332.17 10.44
-11 -8 -6 310.05 18.91
-19 11 6 293.68 16.47
8 -19 3 535.7 19.37
-11 -8 -3 550.11 23.95
-19 11 3 562.7 23.91
8 -19 0 113.88 10.49
-11 -8 0 112.26 6.7
-19 11 0 111.74 6.98
8 -19 -3 506 19.28
-11 -8 3 512.21 20.35
-19 11 -3 539.87 24.2
8 -19 -6 75.41 10.28
-11 -8 6 93.86 5
-19 11 -6 87.65 15.87
8 -19 -9 276.84 15.51
-19 11 -9 260.95 10.28
8 -19 -12 43.85 6.66
-19 11 -12 42.38 12.58
8 -19 -15 244.99 26.83
-19 11 -15 245.59 16.29
-10 -9 -16 -0.16 2.57
-10 -9 -16 1.85 0.99
-10 -9 -13 65.43 13.81
-19 10 13 64.73 7.07
9 -19 10 107.11 5.13
-10 -9 -10 116.44 6.7
-19 10 10 107.65 8.81
9 -19 7 115.88 7.25
-10 -9 -7 107.46 7.22
-19 10 7 108.56 8.54
9 -19 4 52.12 7.93
-10 -9 -4 52.03 9.06
-19 10 4 54.47 11.25
9 -19 1 55.33 5.22
-10 -9 -1 60.41 11.92
-19 10 1 77.81 15.68
9 -19 -2 78.96 11.16
-10 -9 2 58.64 12.1
-19 10 -2 54.33 11.64
9 -19 -5 41.98 5.77
-10 -9 5 49.78 7.87
-19 10 -5 45.23 12.11
9 -19 -8 159.76 20.92
-10 -9 8 139.73 11.04
-19 10 -8 161.48 8.01
9 -19 -11 7.84 3.28
-19 10 -11 19.82 4.25
9 -19 -14 115.15 15.9
-19 10 -14 85.18 16.99
9 -19 -17 6.89 2.6
-19 10 -17 7.39 4.27
-9 -10 -17 7.56 4.13
-9 -10 -14 -4.26 3.05
-19 9 14 2.6 2.06
-9 -10 -11 23.4 3.99
-19 9 11 22.31 6.31
10 -19 8 29.81 5.59
-9 -10 -8 22.08 4.87
-19 9 8 22.5 4.31
10 -19 5 79.68 8.41
-9 -10 -5 67.42 9.9
-19 9 5 77.98 11.84
10 -19 2 47.8 6.87
-9 -10 -2 37.53 8.82
-19 9 2 43.06 7.6
10 -19 -1 3.68 1.76
-9 -10 1 4.84 2.19
-19 9 -1 1.59 3.26
10 -19 -4 6.17 3.86
-9 -10 4 3.2 1.25
-19 9 -4 4.85 3.21
10 -19 -7 48.98 8.81
-9 -10 7 39.41 5.7
-19 9 -7 36.79 9.4
10 -19 -10 1.93 3.35
-19 9 -10 -0.26 2.39
10 -19 -13 90.54 8.29
-19 9 -13 68.13 16.62
10 -19 -16 4 2.55
-19 9 -16 2.43 2.55
-8 -11 -15 11.91 3.24
-8 -11 -12 133.22 12.62
-19 8 12 116.1 12.65
-11 19 -12 128.31 9.77
11 -19 9 13.77 3.56
-8 -11 -9 15.56 3.97
-19 8 9 17.16 4.36
11 -19 6 43.14 7.82
-8 -11 -6 46.31 7.84
-19 8 6 40.99 6.34
11 -19 3 4.93 3.2
-8 -11 -3 8.13 3.37
-19 8 3 11.44 4.13
11 -19 0 50.78 8.53
-8 -11 0 51.25 8.46
-19 8 0 53.88 8.7
11 -19 -3 4.47 2.21
-8 -11 3 2.61 2.83
-19 8 -3 2.65 1.79
11 -19 -6 14.42 2.92
-8 -11 6 6.74 2.37
-19 8 -6 -0.35 2.84
11 -19 -9 108.21 16.79
-19 8 -9 92.48 16.53
11 -19 -12 100.58 14.24
-19 8 -12 73.55 14.8
11 -19 -15 25.24 2.89
-19 8 -15 19.29 5.05
-7 -12 -16 5.23 3.27
-7 -12 -13 88.38 15.19
-19 7 13 80.68 10.58
-7 -12 -10 22.93 3.64
-19 7 10 13.93 5.88
-12 19 -10 16.93 3.39
12 -19 7 68.71 10.74
-7 -12 -7 65.07 13.35
-19 7 7 55.19 9.26
12 -19 4 6.09 2.79
-7 -12 -4 3.17 2.66
-19 7 4 32.3 11.77
12 -19 1 148.75 10.78
-7 -12 -1 141.96 9.29
-19 7 1 131.34 8.4
12 -19 -2 7.3 3.51
-7 -12 2 6.15 3.25
-19 7 -2 6.28 2.5
12 -19 -5 5.06 1.38
-7 -12 5 3.92 1.59
-19 7 -5 4.9 3.11
12 -19 -8 1.73 2.06
-7 -12 8 3.05 1.95
-19 7 -8 11.01 4.4
12 -19 -11 174.29 16.89
-19 7 -11 135.61 13.93
12 -19 -14 2.09 2.44
-19 7 -14 0.95 3.44
-6 -13 -14 12.41 4.18
-6 -13 -11 1.99 4.42
-19 6 11 -0.43 1.72
-13 19 -11 2.97 2.1
13 -19 8 2.67 2.37
-6 -13 -8 -0.39 3.4
-19 6 8 3.17 1.63
13 -19 5 5.78 2.78
-6 -13 -5 5.51 2.58
-19 6 5 8.64 4.03
13 -19 2 3.44 3.04
-6 -13 -2 6.34 2.8
-19 6 2 -1.54 3.2
13 -19 -1 209.31 11.89
-6 -13 1 181.31 11.96
-19 6 -1 182.78 17.22
13 -19 -4 7.31 2.24
-6 -13 4 4.49 1.2
-19 6 -4 6.95 2.85
13 -19 -7 4.19 3.16
-6 -13 7 0.97 1.28
-19 6 -7 2.18 3.41
13 -19 -10 1.66 2.48
-19 6 -10 3.98 3.93
13 -19 -13 6.59 2.7
-19 6 -13 2.14 2.64
13 -19 -16 -1.77 2.36
-19 6 -16 5.67 2.7
-5 -14 -15 19.17 4.71
-5 -14 -12 65.49 13.63
-19 5 12 64.1 9.87
-14 19 -12 59.26 11.03
-5 -14 -9 82.8 18.28
-19 5 9 103.15 6.89
-14 19 -9 99.49 5.22
14 -19 6 97.64 11.79
-5 -14 -6 89.34 16.07
-19 5 6 94.37 8.73
14 -19 3 82.88 7.17
-5 -14 -3 68.5 13.49
-19 5 3 65.78 11.91
14 -19 0 26.98 5.54
-5 -14 0 25.61 6.24
-19 5 0 50.86 4.74
14 -19 -3 58.93 8.63
-5 -14 3 53.46 4.5
-19 5 -3 53.44 8.88
14 -19 -6 24.74 5.36
-19 5 -6 25.1 7.55
14 -19 -9 64.99 8.69
-19 5 -9 52.62 15.24
14 -19 -12 2.74 2.99
-19 5 -12 0.78 2.94
14 -19 -15 69.19 8.54
-19 5 -15 53.28 13.93
-4 -15 -16 2.24 3.16
-4 -15 -13 417.67 21.81
-15 19 -13 374.4 20.8
-4 -15 -10 82.02 18.79
-19 4 10 106.17 8.63
-15 19 -10 110.87 6.09
-4 -15 -7 464.2 22.49
-19 4 7 510.83 13.94
15 -19 4 23 5.02
-4 -15 -4 32.37 6.21
-19 4 4 29.92 5.46
15 -19 1 516.75 15.4
-4 -15 -1 534.11 15.07
-19 4 1 563.34 13.74
15 -19 -2 100.51 12.14
-4 -15 2 97.97 7.72
-19 4 -2 86.71 8.43
15 -19 -5 390.35 25.57
-4 -15 5 347.94 13.06
-19 4 -5 382.41 25.78
15 -19 -8 123.86 25.77
-19 4 -8 86.06 17.84
15 -19 -11 201.66 23.32
-19 4 -11 206.26 19.5
15 -19 -14 208.59 20.66
-19 4 -14 185.86 16.87
-3 -16 -14 320.19 11.39
-3 -16 -11 3.02 3.27
-19 3 11 -0.7 1.83
-16 19 -11 2.08 1.6
-3 -16 -8 329.62 20.09
-19 3 8 293.47 18.76
-16 19 -8 315.98 10.72
16 -19 5 109.4 8.49
-3 -16 -5 104.58 17.12
-19 3 5 93.27 7.35
16 -19 2 1006.9 14.73
-3 -16 -2 1000.72 16.06
-19 3 2 962.08 15.5
16 -19 -1 58.43 9.17
-3 -16 1 61.39 12.02
-19 3 -1 54.63 9.48
16 -19 -4 936.99 18
-3 -16 4 927.86 16.59
-19 3 -4 944.13 26.45
16 -19 -7 57.19 8.36
-3 -16 7 39.57 9.53
-19 3 -7 35.16 5.84
16 -19 -10 335.14 23.54
-19 3 -10 328.68 15.18
16 -19 -13 9.88 3.92
-19 3 -13 2.58 3.06
-2 -17 -12 109.16 14.88
-17 19 -12 106.8 9.9
-2 -17 -9 104.87 11.28
-19 2 9 112.15 9.47
-17 19 -9 109.13 15.29
-2 -17 -6 105.28 12.51
-19 2 6 78.87 12.32
-17 19 -6 79.5 16.64
17 -19 3 240.59 21.81
-2 -17 -3 223.37 16.96
-19 2 3 226.3 12.62
17 -19 0 38.7 6.74
-2 -17 0 30.85 6.17
-19 2 0 32.65 8.98
17 -19 -3 286.85 13.7
-2 -17 3 256.57 14.59
-19 2 -3 259.28 13.62
17 -19 -6 47.3 7.73
-2 -17 6 35.63 8.5
-19 2 -6 50.27 12.39
17 -19 -9 155.95 16.6
-19 2 -9 149.82 12.8
17 -19 -12 55.86 6.88
-19 2 -12 47.63 8.63
-1 -18 -13 6.58 2.54
-18 19 -13 -0.65 1.84
-1 -18 -10 2.29 2.08
-19 1 10 3.25 1.76
-18 19 -10 3.88 2.35
-1 -18 -7 30.29 6.79
-19 1 7 19.77 5.71
-18 19 -7 24.87 5.18
-1 -18 -4 1.14 4.38
-19 1 4 3.11 3.33
-18 19 -4 8.51 2.8
18 -19 1 62.58 9.92
-1 -18 -1 50.17 10.51
-19 1 1 53.53 9.41
18 -19 -2 6.79 2.94
-1 -18 2 7.03 3.91
-19 1 -2 2.02 2.57
18 -19 -5 4.98 3.1
-1 -18 5 4.43 2.62
-19 1 -5 8.16 6.18
18 -19 -8 7.19 3.53
-19 1 -8 8.57 4.45
18 -19 -11 35.16 7.32
-19 1 -11 35.04 9.59
18 -19 -14 12.3 2.8
-19 1 -14 4.54 4.16
0 -19 -11 3.94 4.17
-19 19 -11 3.73 1.72
0 -19 -8 26.55 7.11
-19 0 8 20.13 4.89
-19 19 -8 27.54 7.93
0 -19 -5 83.95 7.48
-19 0 5 90.75 12.01
-19 19 -5 77.59 8.26
0 -19 -2 18.31 4.17
-19 0 2 17.97 6.36
-19 19 -2 21.93 6.45
19 -19 -1 7.02 3.8
0 -19 1 17.14 3.78
-19 0 -1 15.13 5.02
19 -19 -4 4.57 3.17
0 -19 4 5.35 2.55
-19 0 -4 1.06 3.64
19 -19 -7 43.96 8.51
-19 0 -7 57.35 12.97
19 -19 -10 2.7 3.55
-19 0 -10 3.9 3.12
19 -19 -13 19.17 4.7
-19 0 -13 18.58 7.89
20 -19 -12 30.15 7.39
-19 -1 -12 20.94 8.9
20 -19 -9 115.07 17.6
-19 -1 -9 134.4 15.77
20 -19 -6 60.34 9.22
1 -20 6 58.39 9.72
-19 -1 -6 70.72 12.74
20 -19 -3 106.02 16.56
1 -20 3 104.25 11.92
-19 -1 -3 120.13 15.5
1 -20 0 34.2 6.06
-19 -1 0 27.47 5.51
-20 19 0 27.17 6.52
1 -20 -3 106.93 13.18
-19 -1 3 123.33 17.84
-20 19 -3 137.82 14.22
1 -20 -6 18.62 5.68
-19 -1 6 20.22 4.86
-20 19 -6 25.88 6.4
1 -20 -9 68.56 13.2
-20 19 -9 79.28 11.22
1 -20 -12 5.18 2.78
-20 19 -12 3.13 2.5
-18 -2 -13 4.02 2.69
20 -18 -10 61.9 14.79
-18 -2 -10 38.83 9.35
20 -18 -7 7.15 4.38
2 -20 7 4.18 2.64
-18 -2 -7 3.29 3.81
20 -18 -4 45.92 7.52
2 -20 4 44.27 6.68
-18 -2 -4 38.67 8.56
2 -20 1 48.54 11.25
-18 -2 -1 41.8 6.89
-20 18 1 40.32 12.09
2 -20 -2 45.36 8.43
-18 -2 2 38.77 7.68
-20 18 -2 39.76 8.44
2 -20 -5 0.9 2.13
-18 -2 5 2.92 2.48
-20 18 -5 2.59 2.13
2 -20 -8 37.34 11.13
-18 -2 8 44.84 9.07
-20 18 -8 45.34 10.05
2 -20 -11 25.06 7.36
-20 18 -11 18.86 4.45
20 -17 -14 6.24 3.4
20 -17 -11 56.43 13.11
-17 -3 -11 36.37 9.83
20 -17 -8 31.19 5.55
-17 -3 -8 29.67 8.51
3 -20 5 122.66 11.16
-17 -3 -5 133.79 9.72
3 -20 2 48.65 7.86
-17 -3 -2 54.27 11.54
-20 17 2 55.58 10.89
3 -20 -1 42.38 9.12
-17 -3 1 37.7 10.85
-20 17 -1 51.53 7.87
3 -20 -4 65.16 13.23
-17 -3 4 43.31 8.79
-20 17 -4 54.96 6.77
3 -20 -7 10.25 4.7
-17 -3 7 4.94 2.55
-20 17 -7 6.9 2.94
3 -20 -10 4.63 3.47
-20 17 -10 12.53 4.82
3 -20 -13 55.86 12.26
-20 17 -13 48.41 12.01
20 -16 -12 97.46 17.11
-16 -4 -12 145 19.07
-16 -4 -9 43.17 7.42
4 -20 6 78.92 10.19
-16 -4 -6 56.16 10.11
-20 16 6 57.23 11.54
4 -20 3 1.91 1.81
-16 -4 -3 14.95 4.41
-20 16 3 7.58 4.48
4 -20 0 107.7 9.18
-16 -4 0 86.44 6.4
-20 16 0 97.02 16.35
4 -20 -3 14.27 3.87
-16 -4 3 17.84 4.01
-20 16 -3 13.7 4.66
4 -20 -6 37.59 9.3
-16 -4 6 29.5 5.91
-20 16 -6 30.4 7.06
4 -20 -9 26.61 6.25
-20 16 -9 24.73 7.81
4 -20 -12 60.75 9.83
-20 16 -12 41.48 9.9
-15 -5 -13 10.45 4.12
-20 15 13 19.18 4.15
-15 -5 -10 8.33 3.89
-20 15 10 11.27 2.88
5 -20 7 12.67 3.11
-15 -5 -7 11.29 4.95
-20 15 7 6.86 3.46
5 -20 4 2.25 1.97
-15 -5 -4 2.04 2.29
-20 15 4 2.08 2.08
5 -20 1 27.78 3.89
-15 -5 -1 18.37 6.98
-20 15 1 23.24 4.65
5 -20 -2 6.67 2.77
-15 -5 2 3.87 3.59
-20 15 -2 4.07 3.68
5 -20 -5 2.44 1.79
-15 -5 5 0.98 2.54
-20 15 -5 1.91 1.86
5 -20 -8 7.31 3.12
-15 -5 8 5.08 2.64
-20 15 -8 7.81 3.84
5 -20 -11 13.54 5.99
-20 15 -11 10.78 4.19
5 -20 -14 2.2 1.33
-20 15 -14 2.22 2.04
-14 -6 -14 20.85 5.46
-20 14 14 14.76 4.28
-14 -6 -11 4.25 3.07
-20 14 11 2.75 2.51
6 -20 8 61.97 11.62
-14 -6 -8 81.51 16.77
-20 14 8 93.57 9.42
6 -20 5 41.32 6.2
-14 -6 -5 31.57 8.52
-20 14 5 42.5 7.46
6 -20 2 239.38 10.08
-14 -6 -2 242.14 11.37
-20 14 2 220.17 8.78
6 -20 -1 26.04 5.46
-14 -6 1 23.48 4.94
-20 14 -1 30.62 5.87
6 -20 -4 63.08 12.72
-14 -6 4 68.25 9.81
-20 14 -4 76.65 12.81
6 -20 -7 4.61 4.55
-14 -6 7 1.54 1.37
-20 14 -7 3.65 2.57
6 -20 -10 35.48 9.26
-20 14 -10 29.71 7.79
6 -20 -13 4.95 3.09
-20 14 -13 3.91 2.03
-13 -7 -15 117.53 11.62
-20 13 15 104.87 10.69
-13 -7 -12 52.79 11.41
-20 13 12 48.82 12.13
7 -20 9 173.07 12.25
-13 -7 -9 200.28 23.31
-20 13 9 181.31 15.57
7 -20 6 162.75 13.22
-13 -7 -6 137.18 20.46
-20 13 6 145.51 11.84
7 -20 3 226.44 8.69
-13 -7 -3 237.33 12.46
-20 13 3 224.39 16.09
7 -20 0 154.39 10.55
-13 -7 0 133.02 11.55
-20 13 0 157.09 14.92
7 -20 -3 422.33 21.12
-13 -7 3 385.64 17.4
-20 13 -3 392.35 13.42
7 -20 -6 97.97 9
-13 -7 6 97.58 10.49
-20 13 -6 131.66 6.97
7 -20 -9 288.18 14.8
-20 13 -9 254.67 10.75
7 -20 -12 0.7 1.72
-20 13 -12 1.1 2.09
7 -20 -15 115.1 12.1
-20 13 -15 72.32 21.08
-12 -8 -13 315.16 26.92
-20 12 13 336.49 22.15
-12 -8 -10 62.33 17.27
-20 12 10 70.02 11.67
8 -20 7 520.97 18.37
-12 -8 -7 504.56 21.59
-20 12 7 484.63 22.63
8 -20 4 99.82 14.44
-12 -8 -4 86.78 17.82
-20 12 4 82.52 14.53
8 -20 1 698.38 16.95
-12 -8 -1 696.99 20.24
-20 12 1 682.26 17.89
8 -20 -2 340.9 17.43
-12 -8 2 324.59 15.34
-20 12 -2 347.78 12.44
8 -20 -5 711.76 24.82
-12 -8 5 713.92 20.03
-20 12 -5 702.21 22.58
8 -20 -8 180.96 9.77
-12 -8 8 125.19 25.73
-20 12 -8 145.31 13.58
8 -20 -11 194.46 12.71
-20 12 -11 222.04 12.01
8 -20 -14 100.78 19.49
-20 12 -14 115.28 15.53
-11 -9 -14 131.37 19.11
-20 11 14 147.55 8.87
-11 -9 -11 4.63 5.28
-20 11 11 2.71 2.25
9 -20 8 297.61 17.65
-11 -9 -8 317.18 25.62
-20 11 8 304.4 12.48
9 -20 5 81.81 7.53
-11 -9 -5 61.33 9.23
-20 11 5 61.62 13.21
9 -20 2 580.69 9.86
-11 -9 -2 533.05 20.78
-20 11 2 553.37 15.43
9 -20 -1 3.39 3.04
-11 -9 1 0.17 3.51
-20 11 -1 7.97 3.08
9 -20 -4 803.79 22.14
-11 -9 4 800.1 14.99
-20 11 -4 766.44 22.34
9 -20 -7 48.42 8.12
-11 -9 7 42.11 5.96
-20 11 -7 37.63 6.52
9 -20 -10 86 13.11
-20 11 -10 113.5 10.45
-20 11 -13 5.53 3.63
9 -20 -16 175.61 12.9
-20 11 -16 196.94 13.97
-10 -10 -15 1.84 3.73
-10 -10 -12 40.97 7.41
-20 10 12 35.37 8.45
10 -20 9 143.75 6.12
-10 -10 -9 142.55 12.78
-20 10 9 128.94 9
10 -20 6 45.52 9.04
-10 -10 -6 47.9 11.13
-20 10 6 48.62 8.5
10 -20 3 22.63 4.18
-10 -10 -3 23.96 8
-20 10 3 22.79 5.23
10 -20 0 -0.25 1.83
-10 -10 0 1.88 2.03
-20 10 0 2.05 3.17
10 -20 -3 82.05 12.95
-10 -10 3 65.86 9.46
-20 10 -3 68.46 13.4
10 -20 -6 -0.36 3.3
-10 -10 6 0.22 1.28
-20 10 -6 3.23 2.68
10 -20 -9 20.63 5.7
-20 10 -9 7.24 3.99
10 -20 -12 1.62 1.86
-20 10 -12 0.38 3.62
10 -20 -15 74.7 11.83
-20 10 -15 55.65 15.04
-9 -11 -16 0.5 2.26
-9 -11 -13 24.25 5.63
-20 9 13 22.14 5.02
11 -20 10 30.89 7.54
-9 -11 -10 59.01 10.89
-20 9 10 44.89 10.25
11 -20 7 15.19 4.34
-9 -11 -7 11.05 3.99
-20 9 7 11.92 3.34
11 -20 4 93.37 13.12
-9 -11 -4 94.74 9.24
-20 9 4 102.21 8.86
11 -20 1 12.36 2.83
-9 -11 -1 6.2 3.81
-20 9 1 7.64 10.71
11 -20 -2 6.54 3
-9 -11 2 8.82 5.85
-20 9 -2 6 2.35
11 -20 -5 11.1 3.53
-9 -11 5 10.98 2.85
-20 9 -5 15.36 3.21
11 -20 -8 97.9 13.13
-20 9 -8 99.22 10.17
11 -20 -11 6.36 3.5
-20 9 -11 3.04 2.86
11 -20 -14 14.43 4.01
-20 9 -14 16.73 8.21
-8 -12 -14 88.83 17.25
-8 -12 -11 20.52 8.71
-20 8 11 19.71 5.2
-12 20 -11 17 5.04
12 -20 8 32.39 7.88
-8 -12 -8 48.32 8.15
-20 8 8 37.38 6.49
12 -20 5 85.26 7.63
-8 -12 -5 83.18 10.3
-20 8 5 84.98 5.33
12 -20 2 176.31 7.78
-8 -12 -2 192.17 10.35
-20 8 2 197.33 18.45
12 -20 -1 3.1 2.75
-8 -12 1 0.25 2.55
-20 8 -1 5.17 3.47
12 -20 -4 171.16 16.64
-8 -12 4 149.86 11.22
-20 8 -4 144.89 7.02
12 -20 -7 231.17 15.88
-8 -12 7 220.95 15.42
-20 8 -7 230.75 18.56
12 -20 -10 67.27 7.79
-20 8 -10 41.99 16.49
12 -20 -13 35.5 4.58
-20 8 -13 36.44 9.34
-7 -13 -15 34.99 10.59
-7 -13 -12 8.5 3.54
-20 7 12 2.34 1.43
-13 20 -12 0.72 1.21
13 -20 9 34.77 6.62
-7 -13 -9 31.63 5.73
-20 7 9 40.3 6.67
13 -20 6 68.21 13.86
-7 -13 -6 87.09 15.58
-20 7 6 71.36 12.99
13 -20 3 47.67 7.47
-7 -13 -3 54.05 10
-20 7 3 55.32 10.85
13 -20 0 23.89 4.27
-7 -13 0 21.11 4.54
-20 7 0 17.45 5.93
13 -20 -3 257.95 17.18
-7 -13 3 226.17 11.84
-20 7 -3 219.87 13.59
13 -20 -6 123.75 26.54
-7 -13 6 116.03 9.61
-20 7 -6 129.91 14.94
13 -20 -9 24.7 5.69
-20 7 -9 29.82 11.42
13 -20 -12 25.94 4.59
-20 7 -12 30.24 8.69
13 -20 -15 2.93 1.93
-20 7 -15 0.32 2.43
-6 -14 -13 1.41 2.42
-6 -14 -10 2.4 2.14
-20 6 10 9.64 4
-14 20 -10 8.23 4.45
14 -20 7 21.94 3.77
-6 -14 -7 16.55 3.1
-20 6 7 19.06 3.92
14 -20 4 43.59 8.31
-6 -14 -4 57.71 10.42
-20 6 4 40.41 7.92
14 -20 1 53.17 12.19
-6 -14 -1 51.42 11.73
-20 6 1 68.35 12.06
14 -20 -2 32.32 4.57
-6 -14 2 32.72 7.51
-20 6 -2 43.36 7.65
14 -20 -5 81.71 14.23
-6 -14 5 87.01 7.91
-20 6 -5 96.71 7.16
14 -20 -8 2.83 2.15
-20 6 -8 8.23 4.28
14 -20 -11 31.93 4.63
-20 6 -11 28.6 7.61
14 -20 -14 0.47 1.73
-20 6 -14 3.1 3.6
-5 -15 -14 4.47 2.06
-5 -15 -11 40.37 7.3
-20 5 11 26.42 8.08
-15 20 -11 36.39 6.96
-5 -15 -8 270.05 16.74
-20 5 8 248.08 11.04
-15 20 -8 278.13 7.72
15 -20 5 1.44 1.4
-5 -15 -5 0.69 1.59
-20 5 5 -0.5 2.24
15 -20 2 278.87 21.7
-5 -15 -2 263.97 8.82
-20 5 2 253.96 17.66
15 -20 -1 3.95 1.6
-5 -15 1 2.32 3.42
-20 5 -1 3.5 2.74
15 -20 -4 196.04 10.46
-5 -15 4 192.6 9.16
-20 5 -4 170.84 14.04
15 -20 -7 8.51 2.45
-5 -15 7 4.46 2.34
-20 5 -7 1.28 3.69
15 -20 -10 111.33 14.82
-20 5 -10 107.16 8.57
15 -20 -13 3.03 1.49
-20 5 -13 5.63 3.22
-4 -16 -12 121.54 15.37
-16 20 -12 89.53 17.39
-4 -16 -9 263.29 18.2
-20 4 9 238.59 15.73
-16 20 -9 259.47 13.67
-4 -16 -6 88.73 15.53
-20 4 6 72.35 24.33
16 -20 3 214.08 22.77
-4 -16 -3 216.46 15.24
-20 4 3 233.99 10.47
16 -20 0 57.33 10.07
-4 -16 0 57.83 10.9
-20 4 0 57.79 10.19
16 -20 -3 488.07 16.95
-4 -16 3 507.23 23.7
-20 4 -3 512.71 19.31
16 -20 -6 52.81 7.41
-4 -16 6 46.27 8.1
-20 4 -6 47.97 9.5
16 -20 -9 244.05 15.59
-20 4 -9 217.75 20.06
16 -20 -12 40.84 9.34
-20 4 -12 41.89 12.39
-3 -17 -13 201.44 19.52
-17 20 -13 187.53 14.29
-3 -17 -10 30.62 7.9
-20 3 10 24.06 6.94
-17 20 -10 29.3 5.49
-3 -17 -7 163.96 11.39
-20 3 7 131.02 16.83
-17 20 -7 150.44 10.12
17 -20 4 38.66 7.66
-3 -17 -4 30.68 7.61
-20 3 4 29.84 7.89
17 -20 1 104.11 14.88
-3 -17 -1 79.02 13.57
-20 3 1 94.22 6.45
17 -20 -2 167.09 14
-3 -17 2 168.07 9.28
-20 3 -2 153.75 11
17 -20 -5 252.22 15.4
-3 -17 5 248.03 10.82
-20 3 -5 248.98 16.69
17 -20 -8 145.25 11.11
-20 3 -8 116.3 12.98
17 -20 -11 205.02 15.64
-20 3 -11 155.25 17.26
17 -20 -14 84.77 12.03
-2 -18 -11 4.93 3.87
-18 20 -11 6.08 3.21
-2 -18 -8 35.26 8.2
-20 2 8 23.05 5.94
-18 20 -8 25.69 6.84
-2 -18 -5 7.41 3.66
-20 2 5 9.67 3.62
-18 20 -5 20.05 4.02
18 -20 2 105.08 11.74
-2 -18 -2 78.05 26.09
-20 2 2 97.94 7.36
18 -20 -1 3.3 2.14
-2 -18 1 2.94 2.02
-20 2 -1 -1.4 2.83
18 -20 -4 41.91 6.09
-2 -18 4 20.53 6.9
-20 2 -4 20.99 5.2
18 -20 -7 11.01 4.81
-20 2 -7 27.03 8.49
18 -20 -10 99.25 14.7
-20 2 -10 93.95 17.93
18 -20 -13 8.05 3.49
-20 2 -13 4.37 2.85
-1 -19 -12 1.09 2.47
-19 20 -12 3.31 4.03
-1 -19 -9 18.75 4.71
-20 1 9 22.05 5.07
-19 20 -9 17.31 5.35
-1 -19 -6 4.35 2.27
-20 1 6 17.09 6.82
-19 20 -6 8.56 3.83
-1 -19 -3 64.42 9.43
-20 1 3 52.53 10.84
-19 20 -3 58.52 16.85
19 -20 0 53.65 8.89
-1 -19 0 54.61 12.21
-20 1 0 51.09 6.66
19 -20 -3 43.23 7.25
-1 -19 3 43.49 13.49
-20 1 -3 60.73 10.79
19 -20 -6 86.5 14.02
-1 -19 6 97.74 9.91
-20 1 -6 101.91 9.41
19 -20 -9 6.19 2.74
-20 1 -9 5.14 4.53
19 -20 -12 4.18 2.1
-20 1 -12 1.66 1.48
0 -20 -10 171.32 20.17
-20 20 -10 188.23 9.27
0 -20 -7 -0.15 2.46
-20 0 7 2.03 2.14
-20 20 -7 4.08 1.7
0 -20 -4 329.03 22.47
-20 0 4 321.36 20.01
-20 20 -4 338.05 12.2
0 -20 -1 7.91 3.88
-20 0 1 10.01 4.23
-20 20 -1 9.17 3.43
20 -20 -2 161.36 22.77
0 -20 2 187.24 15.7
-20 0 -2 187.39 14.12
20 -20 -5 13.86 3.08
0 -20 5 5.15 2.18
-20 0 -5 13.16 4.73
20 -20 -8 336.94 18.51
-20 0 -8 334.23 29.9
20 -20 -11 1.98 2.92
-20 0 -11 5.67 3.1
21 -20 -10 42.9 9.19
-20 -1 -10 45.82 12.53
21 -20 -7 334.97 27.25
-20 -1 -7 415.92 14.98
21 -20 -4 40.77 6.82
1 -21 4 29.07 5.64
-20 -1 -4 39 10.26
1 -21 1 132.72 10.93
-20 -1 -1 141.37 12.55
-21 20 1 120.42 21.09
1 -21 -2 133.21 10.98
-20 -1 2 137.42 13.07
-21 20 -2 141.83 23.1
1 -21 -5 287.98 17.33
-20 -1 5 252.87 23.31
-21 20 -5 266.13 18.12
1 -21 -8 43.99 11.51
-20 -1 8 43.13 11.54
-21 20 -8 48.95 9.48
21 -19 -11 2.22 3.14
-19 -2 -11 4.99 3.55
21 -19 -8 78.57 12.86
-19 -2 -8 73.12 19.42
2 -21 5 5.85 2.77
-19 -2 -5 5.1 3.27
2 -21 2 29.05 6.21
-19 -2 -2 30.77 7.27
-21 19 2 33.06 6.83
2 -21 -1 9.31 3.91
-19 -2 1 4.91 3.77
-21 19 -1 4.02 2.38
2 -21 -4 188.46 11.35
-19 -2 4 168.04 14.71
-21 19 -4 166.12 13.22
2 -21 -7 0.88 1.93
-19 -2 7 4.94 1.32
-21 19 -7 3.32 1.97
2 -21 -10 4.37 4.14
-21 19 -10 2.68 3.83
21 -18 -12 0.44 3.36
-18 -3 -12 3.07 2.28
21 -18 -9 1.51 3.47
-18 -3 -9 1.95 2.3
3 -21 6 2 1.73
-18 -3 -6 3.41 3.83
-21 18 6 1.71 1.61
3 -21 3 4.33 2.86
-18 -3 -3 6.08 3.53
-21 18 3 7.03 3.68
3 -21 0 7.1 3.76
-18 -3 0 8.24 3.19
-21 18 0 25.23 3.08
3 -21 -3 1.57 2.32
-18 -3 3 1.04 3
-21 18 -3 2.16 1.53
3 -21 -6 7.61 3.17
-18 -3 6 3.78 2.69
-21 18 -6 4.12 2.9
3 -21 -9 7.15 4.61
-21 18 -9 4.08 2.93
3 -21 -12 10.69 2.37
-21 18 -12 5.26 3.97
-17 -4 -10 60.48 17.56
-21 17 10 61.71 15.64
4 -21 7 13.4 3.31
-17 -4 -7 6.55 5.58
-21 17 7 8.62 3.5
4 -21 4 26.28 6.63
-17 -4 -4 42.43 10.83
-21 17 4 36.62 11.98
4 -21 1 14.63 5.39
-17 -4 -1 6.24 4.47
-21 17 1 5.24 2.62
4 -21 -2 12.28 4.21
-17 -4 2 9.01 3.28
-21 17 -2 8.13 2.2
4 -21 -5 20.99 4.23
-17 -4 5 15.64 2.94
-21 17 -5 22.58 4.74
4 -21 -8 41.77 13.25
-17 -4 8 38.51 11.08
-21 17 -8 58.04 13.41
4 -21 -11 8.28 3.3
-21 17 -11 4.94 2.82
-16 -5 -11 20.06 5.34
-21 16 11 14.58 4.73
-16 -5 -8 19.28 4.53
-21 16 8 19.9 4.55
5 -21 5 13.98 5.01
-16 -5 -5 21.98 5.88
-21 16 5 29.39 7.05
5 -21 2 45.05 8.06
-16 -5 -2 51.46 9.25
-21 16 2 51.2 10.11
5 -21 -1 28.14 5.81
-16 -5 1 29.85 7.02
-21 16 -1 41.6 9.26
5 -21 -4 46.86 8.93
-16 -5 4 46.47 11.49
-21 16 -4 44.67 11.79
5 -21 -7 49.51 9.22
-16 -5 7 52.64 10.33
-21 16 -7 60.89 13.95
5 -21 -10 7.39 3.54
-21 16 -10 16.22 4.35
5 -21 -13 30.03 9.09
-21 16 -13 28 10.38
-15 -6 -12 4.81 3.44
-21 15 12 3.69 2.27
-15 -6 -9 2.64 5.1
-21 15 9 1.11 2.24
6 -21 6 57.08 8.32
-15 -6 -6 55.52 10.73
-21 15 6 45.13 11.59
6 -21 3 4.07 2.2
-15 -6 -3 11.18 4.48
-21 15 3 2.08 1.25
6 -21 0 28.14 7.96
-15 -6 0 39.96 6.32
-21 15 0 51.51 14.68
6 -21 -3 6.65 3.27
-15 -6 3 9.23 3.4
-21 15 -3 9.5 4.05
6 -21 -6 16.29 7.31
-15 -6 6 23.18 4.76
-21 15 -6 21.11 4.16
6 -21 -9 3.83 2.19
-21 15 -9 -0.42 2.06
6 -21 -12 22.29 5.02
-21 15 -12 27.24 6.91
-14 -7 -13 33.55 7.06
-21 14 13 28.49 8.4
-14 -7 -10 2.55 3.52
-21 14 10 3.94 3.33
7 -21 7 163.53 15.89
-14 -7 -7 137.34 11.27
-21 14 7 148.3 12.25
7 -21 4 7.95 2.18
-14 -7 -4 7.91 4.7
-21 14 4 5.21 3.67
7 -21 1 451.55 17.4
-14 -7 -1 414.47 19.42
-21 14 1 398.72 17.36
7 -21 -2 30.39 7.51
-14 -7 2 16.8 4.89
-21 14 -2 16.95 5.6
7 -21 -5 119.63 8.05
-14 -7 5 107.25 9.01
-21 14 -5 113.73 11.84
7 -21 -8 30.75 5.91
-14 -7 8 18.78 5.31
-21 14 -8 27.6 7.62
7 -21 -11 40.13 9.27
-21 14 -11 43.67 13.7
7 -21 -14 15.49 5.45
-21 14 -14 5.19 4.56
-13 -8 -14 90.16 23.23
-21 13 14 117.48 12.63
-13 -8 -11 2.64 4.03
-21 13 11 3.78 2.62
8 -21 8 460.85 19.43
-13 -8 -8 403.39 24.83
-21 13 8 395.32 22.58
8 -21 5 4.57 2.07
-13 -8 -5 -1.33 3.31
-21 13 5 2.67 1.9
8 -21 2 585.41 106.34
-13 -8 -2 561.36 24.72
-21 13 2 550.73 20.01
8 -21 -1 35.57 6.41
-13 -8 1 30.02 7.99
-21 13 -1 39.1 8.24
8 -21 -4 263.13 16.54
-13 -8 4 250.36 10.61
-21 13 -4 228.31 10.42
8 -21 -7 1.98 1.46
-13 -8 7 3.97 2.79
-21 13 -7 1.63 2.32
8 -21 -10 241.72 15.68
-21 13 -10 230.49 10.6
-21 13 -13 8.77 4.57
-12 -9 -12 40.95 7.53
-21 12 12 33.66 9.1
9 -21 9 133.3 11.09
-12 -9 -9 130.36 11.22
-21 12 9 124.71 12.28
9 -21 6 195.67 15.38
-12 -9 -6 171.68 11.5
-21 12 6 151.32 13.47
9 -21 3 268.28 19.09
-12 -9 -3 234.35 11.24
-21 12 3 249.5 10.53
9 -21 0 51.05 7
-12 -9 0 30.2 8.68
-21 12 0 32.06 6.92
9 -21 -3 424.61 15.68
-12 -9 3 347.87 22.91
-21 12 -3 409.5 14.52
9 -21 -6 103.73 11.21
-12 -9 6 77.13 25.45
-21 12 -6 89.35 8.18
9 -21 -9 173.87 12.98
-21 12 -9 131.29 24.61
9 -21 -12 2.46 2.09
-21 12 -12 4.26 3.04
-21 11 13 34.06 7.56
-11 -10 -10 3.04 3.29
-21 11 10 2.83 1.7
10 -21 7 175.85 11.09
-11 -10 -7 177.62 13.14
-21 11 7 162.85 8.09
10 -21 4 2.58 2.07
-11 -10 -4 -0.27 3.5
-21 11 4 5.23 3.07
10 -21 1 32.52 5.82
-11 -10 -1 30.02 5.24
-21 11 1 27.49 4.49
10 -21 -2 10.16 3.06
-11 -10 2 4.49 2.78
-21 11 -2 11.13 4.05
10 -21 -5 227.18 12.98
-11 -10 5 195.18 14.7
-21 11 -5 232.43 14.49
10 -21 -8 5.8 2.66
-21 11 -8 2.58 2.57
10 -21 -11 63.02 11.41
-21 11 -11 52.83 13.65
10 -21 -14 53.75 9.55
-21 11 -14 29.81 8.72
-10 -11 -14 12.03 4.57
-21 10 14 9.98 3.24
-10 -11 -11 98.85 9.04
-21 10 11 87.29 9.3
11 -21 8 35.23 6.76
-10 -11 -8 37.22 9.66
-21 10 8 26.33 5.52
11 -21 5 63.3 12.59
-10 -11 -5 68.11 13.89
-21 10 5 96.72 9.02
11 -21 2 1.36 2.06
-10 -11 -2 4.1 3.42
-21 10 2 6.4 2.48
11 -21 -1 5.78 4.29
-10 -11 1 13.87 4.47
-21 10 -1 6.22 1.4
11 -21 -4 13.94 2.58
-10 -11 4 16.14 5.55
-21 10 -4 11.09 5.13
11 -21 -7 102.28 10.27
-10 -11 7 93.15 7.59
-21 10 -7 103.46 17.07
11 -21 -10 6.82 3.4
-21 10 -10 3.94 3.06
11 -21 -13 12.99 4.33
-21 10 -13 20.54 4.18
-9 -12 -12 0.91 3.81
-21 9 12 4.14 3.29
12 -21 9 138 10.93
-9 -12 -9 148.11 10.15
-21 9 9 135.22 14.11
12 -21 6 34.52 5.42
-9 -12 -6 35.29 9
-21 9 6 30.16 10.17
12 -21 3 497.12 14.48
-9 -12 -3 467.39 15.75
-21 9 3 469.67 25.32
12 -21 0 16.11 3.68
-9 -12 0 10.27 2.42
-21 9 0 16.5 6.16
12 -21 -3 160.38 11.59
-9 -12 3 156.36 9.41
-21 9 -3 174.56 13.59
12 -21 -6 170.1 13.07
-9 -12 6 154.9 7.28
-21 9 -6 143.58 11.71
12 -21 -9 90.56 11.15
-21 9 -9 105.5 16.42
12 -21 -12 35.29 5.52
-21 9 -12 33.65 7.89
-8 -13 -13 28.81 5.43
-21 8 13 30.64 6.86
-8 -13 -10 294.95 26.41
-21 8 10 291.02 22.06
-13 21 -10 309.95 16.56
13 -21 7 5 3.44
-8 -13 -7 8.75 5.32
-21 8 7 4.42 2.39
13 -21 4 369.77 11.97
-8 -13 -4 373.65 21.5
-21 8 4 370.17 26.81
13 -21 1 89.69 12.04
-8 -13 -1 67.71 6.46
-21 8 1 65.67 5.95
13 -21 -2 338.14 25.7
-8 -13 2 344.94 12.17
-21 8 -2 373.38 14.62
13 -21 -5 4.01 2.74
-8 -13 5 -1.78 1.79
-21 8 -5 5.68 3.45
13 -21 -8 373.55 24.69
-21 8 -8 418.97 18.32
13 -21 -11 15.29 5.5
-21 8 -11 8.53 3.58
13 -21 -14 99.74 13.22
-21 8 -14 76.96 18.92
-7 -14 -14 25.95 6.65
-7 -14 -11 47.29 11.04
-21 7 11 33.92 9.58
-14 21 -11 34.35 11.2
14 -21 8 24.9 7.35
-7 -14 -8 28.14 6.85
-21 7 8 22.11 5.58
14 -21 5 238.48 13.08
-7 -14 -5 213.16 13.72
-21 7 5 218.37 16.86
14 -21 2 37.76 7.11
-7 -14 -2 33.7 6.59
-21 7 2 32.99 8.42
14 -21 -1 196.23 13.15
-7 -14 1 194.91 14.92
-21 7 -1 201.42 12.77
14 -21 -4 4.38 4.2
-7 -14 4 5.16 3.06
-21 7 -4 9.71 4.06
14 -21 -7 230.52 16.47
-21 7 -7 183.9 20.11
14 -21 -10 5.16 2.31
-21 7 -10 4.06 1.99
14 -21 -13 75.01 14.31
-21 7 -13 69.75 19.69
-6 -15 -12 2.14 2.8
-15 21 -12 2.81 1.4
-6 -15 -9 2.94 2.51
-21 6 9 2.74 1.59
-15 21 -9 4.44 2.59
15 -21 6 3.99 3.23
-6 -15 -6 2.02 3.05
-21 6 6 -0.52 2.22
15 -21 3 3.06 2.83
-6 -15 -3 2.26 2.64
-21 6 3 2.02 2.84
15 -21 0 37.38 5.89
-6 -15 0 28.79 7.53
-21 6 0 25.01 5.45
15 -21 -3 2.49 2.91
-6 -15 3 2 2.07
-21 6 -3 6.24 3.92
15 -21 -6 87.94 11.68
-6 -15 6 59.84 9.55
-21 6 -6 61.82 11.71
15 -21 -9 2.01 2.44
-21 6 -9 1.84 2.8
15 -21 -12 7.9 4.28
-21 6 -12 18.92 6.89
-5 -16 -13 1.47 2.38
-5 -16 -10 5.16 3.51
-21 5 10 6.02 3.13
-16 21 -10 7.03 2.66
-5 -16 -7 48.68 10.96
-21 5 7 49.61 10.54
16 -21 4 46.11 10.9
-5 -16 -4 48.92 9.8
-21 5 4 56.69 5.9
16 -21 1 24.28 3.64
-5 -16 -1 23.8 4.38
-21 5 1 19.06 3.74
16 -21 -2 64.64 11.22
-5 -16 2 51.63 10.64
-21 5 -2 58.11 13.89
16 -21 -5 54.75 8.52
-5 -16 5 33.39 8.07
-21 5 -5 40.7 9.66
-21 5 -8 26.8 10.48
16 -21 -11 5.69 2.68
-21 5 -11 -1.28 2.96
-4 -17 -11 5.21 2.94
-17 21 -11 3.95 3.03
-4 -17 -8 157 13.78
-21 4 8 131.81 15.05
-17 21 -8 126.96 12.88
17 -21 5 3.17 2.86
-4 -17 -5 9.91 4.45
-21 4 5 11.12 4.86
17 -21 2 2.21 2.18
-4 -17 -2 1.85 1.96
-21 4 2 2.64 2.52
17 -21 -1 3.56 3.04
-4 -17 1 0.32 2.32
-21 4 -1 2.38 2.21
17 -21 -4 150.44 14.81
-4 -17 4 145.82 11.93
-21 4 -4 134.31 11.43
17 -21 -7 8.59 5.53
-21 4 -7 16.04 3.82
17 -21 -10 20.9 4.32
-21 4 -10 30.74 6.06
-3 -18 -12 3 3.4
-18 21 -12 1.86 2.25
-3 -18 -9 7.63 3.38
-21 3 9 3.58 1.73
-18 21 -9 -0.29 2.05
-3 -18 -6 26.07 7.86
-21 3 6 28.98 6.57
-18 21 -6 32.07 7.3
18 -21 3 9.61 4.34
-3 -18 -3 13.95 4.38
-21 3 3 10.75 4.38
18 -21 0 4.32 3.06
-3 -18 0 6.58 3.38
-21 3 0 2.32 2.79
18 -21 -3 49.06 9.07
-3 -18 3 39.61 6.41
-21 3 -3 52.67 12.17
18 -21 -6 2.82 3.92
-3 -18 6 1.58 1.62
-21 3 -6 1.04 2.93
18 -21 -9 7.59 3.44
-21 3 -9 4.85 4.08
18 -21 -12 7.58 3.83
-21 3 -12 7.43 3.41
-2 -19 -10 23.64 6.67
-19 21 -10 23.97 7.27
-2 -19 -7 3.88 4.37
-21 2 7 5.04 1.6
-19 21 -7 2.19 1.94
-2 -19 -4 13.52 2.22
-19 21 -4 9.08 3.28
19 -21 1 21.63 5.38
-2 -19 -1 21.42 5.31
-21 2 1 21.52 3.15
19 -21 -2 33.39 7.38
-2 -19 2 32.88 7.93
-21 2 -2 36.33 5.99
19 -21 -5 12.17 4.02
-2 -19 5 6.36 2.28
-21 2 -5 4.86 3.97
19 -21 -8 28.47 6.31
-21 2 -8 32.54 7.97
19 -21 -11 3.77 1.99
-21 2 -11 3.23 4.36
-1 -20 -8 7.57 5.27
-21 1 8 14.3 4.73
-20 21 -8 19.28 5.4
-1 -20 -5 77.93 17.99
-21 1 5 89.76 10.91
-20 21 -5 90.31 9.86
-1 -20 -2 58.47 6.9
-21 1 2 65.14 10.36
-20 21 -2 45.17 12.59
20 -21 -1 160.92 12.31
-1 -20 1 165.68 7.23
-21 1 -1 160.94 16.54
20 -21 -4 32.69 6.03
-1 -20 4 28.17 5.61
-21 1 -4 37.92 9.71
20 -21 -7 258.76 17.16
-21 1 -7 292.56 12.23
20 -21 -10 15.14 3.25
-21 1 -10 17.35 6.75
0 -21 -6 35.83 10.92
-21 0 6 50.4 11.47
-21 21 -6 53.25 13.22
0 -21 -3 350.32 17.25
-21 0 3 295.18 16.07
-21 21 -3 302.17 16.42
0 -21 0 83.86 9.32
-21 0 0 69.28 15.77
-21 21 0 86.3 9.45
21 -21 -3 111.06 19.57
0 -21 3 123.22 11.98
-21 0 -3 117.54 13.13
21 -21 -6 105.1 21.71
-21 0 -6 148.77 15.04
22 -21 -5 7.86 3.72
-21 -1 -5 3.65 3.29
1 -22 2 242.01 10.11
-21 -1 -2 198.98 14.24
-22 21 2 214.04 9.27
1 -22 -1 15.92 3.99
-21 -1 1 6.35 3.69
-22 21 -1 9.75 3.96
1 -22 -4 175.25 13.64
-21 -1 4 144.38 15.77
-22 21 -4 186.26 9.87
1 -22 -7 -0.6 2.79
-20 -2 -6 69.34 9.45
2 -22 3 34.08 6.45
-20 -2 -3 30.28 9.41
-22 20 3 33.99 7.24
2 -22 0 28.18 6.9
-20 -2 0 15.5 7.24
-22 20 0 27.76 5.66
2 -22 -3 159.29 15.58
-20 -2 3 155.92 9.02
-22 20 -3 119.91 13.15
2 -22 -6 43.33 11.04
-20 -2 6 33.85 9.41
-22 20 -6 37.14 14.91
-19 -3 -7 71.3 14.45
-22 19 7 65.57 17.56
3 -22 4 3.17 2.71
-19 -3 -4 8.14 4.82
-22 19 4 5.97 3.81
3 -22 1 2.18 1.81
-19 -3 -1 0.96 2.09
-22 19 1 4 2.43
3 -22 -2 18.23 4.31
-19 -3 2 20.49 5.9
-22 19 -2 17.81 5.5
3 -22 -5 20.35 9.27
-19 -3 5 29.62 6.17
3 -22 -8 26.64 6.73
-22 19 -8 25.9 6.07
-18 -4 -8 5.08 2.53
-22 18 8 3.7 2.35
4 -22 5 76.29 10.57
-18 -4 -5 81.5 19.7
-22 18 5 102.9 9.38
4 -22 2 25.11 4.88
-18 -4 -2 22.59 6.19
-22 18 2 37.57 6.79
4 -22 -1 36.35 6.39
-18 -4 1 52.05 4.89
-22 18 -1 47.93 8.16
4 -22 -4 41.25 8.41
-18 -4 4 32.33 9.68
-22 18 -4 27.31 9.38
4 -22 -7 78.93 15.66
-18 -4 7 117.95 6.52
-22 18 -7 76.54 19.3
4 -22 -10 6.06 2.84
-22 18 -10 5.25 3.41
-17 -5 -9 93.3 16.9
-22 17 9 63.01 19.33
5 -22 6 20.63 3.65
-17 -5 -6 20.09 7.94
-22 17 6 27.95 7.64
5 -22 3 230.27 16.3
-17 -5 -3 240.89 14.48
-22 17 3 239.26 16.29
5 -22 0 24.11 6.04
-17 -5 0 39.07 9.65
-22 17 0 42.77 8.84
5 -22 -3 115.26 19.66
-17 -5 3 149.62 10.93
-22 17 -3 150.55 16.99
5 -22 -6 100.58 21.84
-17 -5 6 102.18 9.42
-22 17 -6 122.71 12.39
5 -22 -9 68.26 14.78
-22 17 -9 104.52 12.31
-16 -6 -10 103.06 10.72
-22 16 10 115.5 13.37
6 -22 7 3.15 1.6
-16 -6 -7 2.62 3.57
-22 16 7 3.95 2.49
6 -22 4 132.79 14.63
-16 -6 -4 145.22 13.99
-22 16 4 138.44 8.03
6 -22 1 4.9 3.08
-16 -6 -1 -0.03 3.1
-22 16 1 2.02 1.96
6 -22 -2 129.17 23.36
-16 -6 2 135.02 9.38
-22 16 -2 143.05 16.83
6 -22 -5 4.77 2.3
-16 -6 5 2.03 1.65
-22 16 -5 -3.88 3.11
6 -22 -8 211.78 18.42
-22 16 -8 232.83 14.67
6 -22 -11 34 6.06
-22 16 -11 32.65 7.36
-15 -7 -11 4.46 4.82
-22 15 11 12.97 3.23
-15 -7 -8 0.55 2.69
-22 15 8 3.18 1.56
7 -22 5 63.87 11.61
-15 -7 -5 50.17 11.21
-22 15 5 49.15 10.18
7 -22 2 3.12 1.65
-15 -7 -2 3.68 2.82
-22 15 2 3.02 2.07
7 -22 -1 96.59 8.63
-15 -7 1 79.65 16.99
-22 15 -1 90.54 12.31
7 -22 -4 17.37 3.93
-15 -7 4 23.55 6.95
-22 15 -4 27.54 7.47
7 -22 -7 26.78 6.62
-15 -7 7 21.29 5.43
-22 15 -7 19.22 3.96
7 -22 -10 32.62 8.4
-22 15 -10 16.14 5.42
-14 -8 -12 11.67 7.11
-22 14 12 12.08 4.49
-14 -8 -9 23.48 8.13
-22 14 9 23.71 8.26
8 -22 6 37.41 6.07
-14 -8 -6 26.51 6.11
-22 14 6 21.41 5.12
8 -22 3 30.12 5.5
-14 -8 -3 10.34 4.68
-22 14 3 28.41 6.84
8 -22 0 34.58 5.65
-14 -8 0 18.47 6.16
-22 14 0 17.7 5.2
8 -22 -3 41.78 7.32
-14 -8 3 28.23 5.71
-22 14 -3 33.64 6.28
8 -22 -6 25.88 9.95
-14 -8 6 23.34 6.21
-22 14 -6 36.2 10.27
8 -22 -9 104.16 20.38
-22 14 -9 109.34 14.05
8 -22 -12 6.8 3.7
-22 14 -12 0.68 2.26
-13 -9 -13 21.59 6.97
-22 13 13 18.97 4.72
-13 -9 -10 23.83 6.54
-22 13 10 14.99 4.1
9 -22 7 101.46 12.21
-13 -9 -7 78.4 21.39
-22 13 7 85.06 8.72
9 -22 4 56.89 6.77
-13 -9 -4 37.77 8.75
-22 13 4 42.52 9.93
9 -22 1 52.99 8.34
-13 -9 -1 31.66 8.39
-22 13 1 32.73 6.27
9 -22 -2 118.42 14.73
-13 -9 2 119.46 10.5
-22 13 -2 119.51 15.32
9 -22 -5 57.64 7.77
-13 -9 5 30.15 7
-22 13 -5 45.43 7.84
9 -22 -8 114.16 17.29
-22 13 -8 100.34 10.36
9 -22 -11 5.21 2.29
-22 13 -11 2.04 1.87
-12 -10 -11 2.1 2.62
-22 12 11 4.59 3.8
10 -22 8 43.3 11.42
-12 -10 -8 62.59 16.12
-22 12 8 41.89 12.94
10 -22 5 2.04 2.6
-12 -10 -5 2.59 2.32
-22 12 5 4.17 2.7
10 -22 2 2.52 1.86
-12 -10 -2 -1.48 3.41
-22 12 2 3.59 1.73
10 -22 -1 3.42 2.35
-12 -10 1 0.55 2.19
-22 12 -1 4.45 3.53
10 -22 -4 108.17 14.84
-12 -10 4 76.2 21.77
-22 12 -4 72.54 21.45
10 -22 -7 5.22 2.33
-22 12 -7 3.72 2.19
10 -22 -10 16.27 3.19
-22 12 -10 19.48 6.25
10 -22 -13 12.11 4.16
-22 12 -13 9.08 4.24
-11 -11 -12 6.83 5
-22 11 12 2.71 2.1
11 -22 9 0.57 2.5
-11 -11 -9 4.39 3.12
-22 11 9 0.4 1.28
11 -22 6 39.3 10.87
-11 -11 -6 31.75 9.97
-22 11 6 36.64 7.81
11 -22 3 6.68 3.19
-11 -11 -3 0.32 2.68
-22 11 3 4.53 3.34
11 -22 0 7.86 3.27
-11 -11 0 5.78 3.3
-22 11 0 2.82 1.86
11 -22 -3 7.89 2.57
-11 -11 3 3.67 3.49
-22 11 -3 3.8 2.37
11 -22 -6 34.01 4.8
-11 -11 6 25.16 6
-22 11 -6 33.52 8.38
-22 11 -9 22.54 6.61
11 -22 -12 15.67 2.89
-22 11 -12 6.49 3.25
-10 -12 -13 7.25 2.73
-22 10 13 2.76 1.42
-10 -12 -10 70.63 14.98
-22 10 10 58.88 10.18
12 -22 7 4.51 2.95
-10 -12 -7 1.48 2.41
-22 10 7 0.55 2.06
12 -22 4 273.44 12.69
-10 -12 -4 283.6 14.59
-22 10 4 252.12 18.77
12 -22 1 4.95 3.42
-10 -12 -1 -0.45 2.64
-22 10 1 1.56 3.24
12 -22 -2 148.79 10.13
-10 -12 2 158.6 13.2
-22 10 -2 181.13 15.55
12 -22 -5 40.98 8.11
-10 -12 5 42.58 5.85
-22 10 -5 34.9 9.08
12 -22 -8 232.13 25.59
-22 10 -8 247.96 10.29
12 -22 -11 6.09 1.86
-22 10 -11 1.15 1.65
-9 -13 -11 100 9.26
-22 9 11 91.6 9.68
13 -22 8 135.79 9.59
-9 -13 -8 148.93 21.05
-22 9 8 136.25 15.17
13 -22 5 328.43 15.97
-9 -13 -5 336.51 23.7
-22 9 5 341.46 19.1
13 -22 2 180.17 11.68
-9 -13 -2 153.33 11.26
-22 9 2 154.76 13.56
13 -22 -1 227.17 13.2
-9 -13 1 230.8 14.72
-22 9 -1 217.26 16.51
13 -22 -4 61.29 7.7
-9 -13 4 41.61 8.57
-22 9 -4 56.37 11.81
13 -22 -7 553.36 20.56
-22 9 -7 528.52 15.54
13 -22 -10 45.22 5.28
-22 9 -10 48.26 13.08
13 -22 -13 182.13 13.15
-22 9 -13 183.7 17.61
-8 -14 -12 -1.97 3.28
-22 8 12 -0.01 1.74
-8 -14 -9 506.81 15.28
-22 8 9 475.55 28.71
14 -22 6 235.91 12.12
-8 -14 -6 219.44 23.94
-22 8 6 197.56 16.76
14 -22 3 238.31 17.97
-8 -14 -3 239.9 16.63
-22 8 3 242.68 15.63
14 -22 0 52.74 7.86
-8 -14 0 44.3 9.94
-22 8 0 50.3 11.43
14 -22 -3 164.91 12.15
-8 -14 3 167.43 11.74
-22 8 -3 153.92 13.08
14 -22 -6 92.92 14.41
-8 -14 6 76.82 12.54
-22 8 -6 95.24 9.73
14 -22 -9 283.13 20.22
-22 8 -9 247.11 24.22
14 -22 -12 71.67 10.39
-22 8 -12 107.81 12.58
-7 -15 -10 105.88 10.92
-22 7 10 104.62 9.73
-15 22 -10 90.15 10.97
15 -22 7 4.68 3.26
-7 -15 -7 6.19 3.55
-22 7 7 6.15 3.59
15 -22 4 46.94 10.59
-7 -15 -4 52.23 11.93
-22 7 4 50.36 11.86
15 -22 1 24.74 4.75
-7 -15 -1 19.99 4.76
-22 7 1 32.16 6.75
15 -22 -2 232 15.94
-7 -15 2 207.59 11.31
-22 7 -2 210.91 10.76
15 -22 -5 7.93 3.38
-7 -15 5 4.25 2.65
-22 7 -5 5.71 5.28
15 -22 -8 182.37 15.38
-22 7 -8 152.37 12.32
15 -22 -11 23.92 4.17
-22 7 -11 20.59 6.63
-6 -16 -11 5.5 3.38
-22 6 11 3.18 1.88
-16 22 -11 3.17 2.44
-6 -16 -8 5.03 2.21
-22 6 8 1.83 2.07
-16 22 -8 -1.03 2.21
16 -22 5 4.46 2.95
-6 -16 -5 3.89 2.83
-22 6 5 6.42 3.09
16 -22 2 9.6 4.73
-6 -16 -2 3.5 3.5
-22 6 2 14.56 3.95
16 -22 -1 0.07 2.95
-6 -16 1 3.64 1.82
16 -22 -4 1.77 1.69
-6 -16 4 1.24 1.05
-22 6 -4 3.34 2.12
16 -22 -7 3.13 3.25
-22 6 -7 -0.85 2.41
16 -22 -10 3.5 2.21
-22 6 -10 4.92 2.59
-5 -17 -9 54.89 17.01
-22 5 9 49.55 13
-17 22 -9 51.04 12.53
-5 -17 -6 8.58 4.94
-22 5 6 14.05 4.4
17 -22 3 4.43 2.97
-5 -17 -3 5.89 2.12
-22 5 3 3.09 3.12
17 -22 0 14.75 3.93
-5 -17 0 13.87 4.79
-22 5 0 22.74 5.73
17 -22 -3 37.7 6.82
-5 -17 3 23.86 9.05
-22 5 -3 25.79 7.61
17 -22 -6 17.38 5.36
-22 5 -6 26.61 7.19
17 -22 -9 0.64 2.85
-22 5 -9 3 2.66
-4 -18 -10 37.02 8.85
-22 4 10 35.92 8.98
-18 22 -10 36.48 10.88
-4 -18 -7 8.96 4.97
-22 4 7 6.11 3.69
-18 22 -7 1.95 2.01
18 -22 4 43.17 13.28
-4 -18 -4 54.73 12.03
-22 4 4 41.49 12.02
18 -22 1 80.64 13.22
-4 -18 -1 59.74 17.41
-22 4 1 88.68 8.24
18 -22 -2 31.56 5.97
-4 -18 2 30.46 6.87
-22 4 -2 27.56 10.11
18 -22 -5 26.89 4.69
-4 -18 5 20.15 5.16
-22 4 -5 21.17 5.54
18 -22 -8 3.15 1.78
-22 4 -8 1.42 3.13
-3 -19 -8 17.16 10.32
-22 3 8 7.38 3.45
-19 22 -8 17.42 6.48
-3 -19 -5 6.01 3.27
-22 3 5 0.9 2.45
-19 22 -5 7.61 3.03
19 -22 2 10.58 5.14
-3 -19 -2 15.5 4.29
-22 3 2 17.87 5.33
19 -22 -1 3.33 4.05
-3 -19 1 4.69 2.07
-22 3 -1 2.84 2.22
19 -22 -4 3.31 2.08
-3 -19 4 8.2 4.04
-22 3 -4 1.59 2.18
19 -22 -7 4 3.14
-22 3 -7 3.1 3.01
-2 -20 -6 6.9 3.8
-22 2 6 6.81 3.21
-20 22 -6 6.32 2.17
-2 -20 -3 28.94 6.81
-22 2 3 33.11 7.4
-20 22 -3 38.52 10.04
20 -22 0 3.45 1.72
-2 -20 0 4.2 1.92
-22 2 0 -3.69 2.72
20 -22 -3 93.81 15.87
-2 -20 3 94.67 12.05
-22 2 -3 93.35 8.59
20 -22 -6 42.46 7.38
-22 2 -6 30.71 6.64
-1 -21 -7 3.45 2.59
-1 -21 -4 200.96 18.86
-22 1 4 208.81 10.8
-21 22 -4 198.94 20.58
-1 -21 -1 5.16 2.33
-22 1 1 14.66 5.45
-21 22 -1 5.4 2.26
21 -22 -2 191.57 15.2
-1 -21 2 168.49 17.79
-22 1 -2 194.68 23.86
21 -22 -5 5.04 2.95
-22 1 -5 9.34 3.93
0 -22 -5 99.97 13.3
0 -22 -2 45.45 16.24
-22 0 2 51.4 12.22
-22 22 -2 71.6 10.1
0 -22 1 201.02 11.74
-22 0 -1 186.68 22.45
-22 22 1 199.53 10.74
22 -22 -4 6.19 3.7
0 -22 4 3.7 2.22
-22 0 -4 4.81 3.67
2 -23 4 7.5 3.08
-21 -2 -4 10.56 5.06
-23 21 4 5.51 2.72
2 -23 1 18.33 6.41
-21 -2 -1 16.15 5.25
-23 21 1 20.29 5.34
2 -23 -2 52.98 14.06
-21 -2 2 93.49 10.96
-23 21 -2 60.82 12.98
-20 -3 -5 5.96 3.47
-23 20 5 0.76 2.07
3 -23 2 7.42 3.64
-20 -3 -2 5.25 1.83
-23 20 2 11.43 4.63
3 -23 -1 9.79 2.99
-20 -3 1 2.32 3.39
-23 20 -1 2.3 2.29
3 -23 -4 6.32 3.01
-20 -3 4 3.84 4.27
-23 20 -4 7.81 3.67
-19 -4 -6 52.45 13.95
-23 19 6 49 12.89
4 -23 3 61.45 13.57
-19 -4 -3 72.37 18.33
-23 19 3 79.44 16.85
4 -23 0 14.82 4.55
-19 -4 0 13.16 5.1
-23 19 0 14.86 5.52
4 -23 -3 80.99 13.68
-19 -4 3 91.32 8.99
-23 19 -3 85.85 9.93
4 -23 -6 7.93 4.15
-19 -4 6 13.09 2.64
-23 19 -6 5.9 6.61
-18 -5 -7 4.93 3.39
-23 18 7 6 2.27
5 -23 4 403.01 13.62
-18 -5 -4 384.47 25.95
-23 18 4 394.72 14.2
5 -23 1 1.81 2.35
-18 -5 -1 0.43 2.99
-23 18 1 5.44 3.49
5 -23 -2 331.73 16.91
-18 -5 2 325.51 25.04
-23 18 -2 321.55 18.65
5 -23 -5 14.21 6.34
-18 -5 5 13.17 2.86
-23 18 -5 9.48 5.97
5 -23 -8 164.2 17.53
-23 18 -8 161.92 15.1
-17 -6 -8 86.59 19.61
-23 17 8 101.81 14.89
6 -23 5 257.18 18.97
-17 -6 -5 274.03 23.7
-23 17 5 313.11 17
6 -23 2 142.43 17.96
-17 -6 -2 125.1 11.46
-23 17 2 109.65 14.88
6 -23 -1 155.12 29.82
-17 -6 1 180.7 13.89
-23 17 -1 184.71 12.71
6 -23 -4 7.36 4.06
-17 -6 4 7.24 2.65
-23 17 -4 18.47 5.68
6 -23 -7 291.31 26.54
-23 17 -7 291.21 25.56
-16 -7 -9 92.22 22.68
-23 16 9 96.68 11.58
7 -23 6 25.68 5.06
-16 -7 -6 27.9 7.81
-23 16 6 27.16 7.83
7 -23 3 159.59 20.23
-16 -7 -3 180.42 14.28
-23 16 3 164.96 14.78
7 -23 0 43.93 5.88
-16 -7 0 36.56 7.99
-23 16 0 32.51 6.48
7 -23 -3 4.54 4.56
-16 -7 3 2.86 3.26
-23 16 -3 14.4 4.52
7 -23 -6 34.23 6.7
-16 -7 6 22.68 6.25
-23 16 -6 23.65 5.37
7 -23 -9 62.09 12.99
-23 16 -9 114.75 8.82
-15 -8 -10 6.16 4.1
-23 15 10 2.48 1.81
8 -23 7 1.66 1.24
-15 -8 -7 2.29 2.06
-23 15 7 1.69 2.39
8 -23 4 3.53 2.77
-15 -8 -4 5.19 4.27
-23 15 4 7.38 3.48
8 -23 1 12.67 3.54
-15 -8 -1 2.07 2.9
-23 15 1 13.58 5.19
8 -23 -2 23.5 4.82
-15 -8 2 19.33 5.66
-23 15 -2 11.38 4.61
8 -23 -5 8.9 3.45
-15 -8 5 10.58 3.41
-23 15 -5 13.77 3.88
8 -23 -8 15.91 6.03
-23 15 -8 10.82 5.42
-14 -9 -11 20.64 4.94
-23 14 11 13.16 4.92
-14 -9 -8 2.85 2.58
-23 14 8 2.65 2.11
9 -23 5 6.3 3.24
-14 -9 -5 4.25 2.74
-23 14 5 6.89 3.27
9 -23 2 3.49 2.55
-14 -9 -2 2.33 1.72
-23 14 2 0.17 3.49
9 -23 -1 4.92 2.69
-14 -9 1 6.71 4.2
-23 14 -1 15.64 3.47
9 -23 -4 23.36 4.26
-14 -9 4 11.79 2.7
-23 14 -4 7.59 3.72
9 -23 -7 16.56 3.35
-23 14 -7 22.89 4.44
9 -23 -10 7.24 3.38
-23 14 -10 5.66 2.33
-13 -10 -9 33.97 9.65
-23 13 9 32 8.05
10 -23 6 15.54 3.39
-13 -10 -6 11.06 6.42
-23 13 6 20.73 6.82
10 -23 3 14.83 4.1
-13 -10 -3 16.69 3.62
-23 13 3 7.6 2.07
10 -23 0 31.16 6.69
-13 -10 0 33.5 9.68
-23 13 0 40.42 9.55
10 -23 -3 53.03 8.51
-13 -10 3 34.96 8.67
-23 13 -3 58.58 8.73
10 -23 -6 28.92 5.71
-13 -10 6 15.87 6.56
-23 13 -6 28.09 6.59
10 -23 -9 29.4 5.83
-23 13 -9 24.49 9.18
-12 -11 -10 -0.6 2.26
-23 12 10 5.36 2.72
11 -23 7 4.9 2.82
-12 -11 -7 -0.5 3.15
-23 12 7 0.42 2.01
11 -23 4 10.63 2.91
-12 -11 -4 2.74 3.57
-23 12 4 6.45 2.96
11 -23 1 34.82 4.61
-12 -11 -1 27.51 8.26
-23 12 1 38.43 9.79
11 -23 -2 13.96 4.29
-12 -11 2 4.62 3.85
-23 12 -2 7.83 4.06
11 -23 -5 31.82 5.91
-12 -11 5 29.24 5.68
-23 12 -5 43.1 9.9
11 -23 -8 3.16 2.28
-23 12 -8 8.93 5.6
11 -23 -11 8.79 2.76
-23 12 -11 7.37 5.05
-11 -12 -11 2.32 2.46
-23 11 11 1.38 2.05
12 -23 8 22.71 4.77
-11 -12 -8 28.53 5.33
-23 11 8 21.86 5.54
12 -23 5 30.95 6.87
-11 -12 -5 27.91 5.82
-23 11 5 23.14 7.61
12 -23 2 34.32 6.71
-11 -12 -2 38.29 9.17
-23 11 2 30.3 6.98
12 -23 -1 28.24 4.22
-11 -12 1 20.01 4.11
-23 11 -1 18.7 5.71
12 -23 -4 43.29 9.17
-11 -12 4 33.6 5.8
-23 11 -4 33.66 8.79
12 -23 -7 30.53 4.44
-23 11 -7 26.72 6.08
12 -23 -10 55.12 11.65
-23 11 -10 40.57 18.57
13 -23 9 33.17 9.89
-10 -13 -9 41.54 9.89
-23 10 9 42.44 9.04
13 -23 6 32.4 7.9
-10 -13 -6 46.92 8.24
-23 10 6 43.91 9.99
13 -23 3 138.76 13.79
-10 -13 -3 122.22 16.89
-23 10 3 130.34 17.42
13 -23 0 28.52 4.32
-10 -13 0 20.6 4.11
-23 10 0 19.89 6.06
13 -23 -3 221.49 14.62
-10 -13 3 194.52 17.07
-23 10 -3 210.37 8.59
13 -23 -6 155.15 14.23
-23 10 -6 138.27 14.67
13 -23 -9 313.52 15.38
-23 10 -9 321.59 13.07
-9 -14 -10 125.44 14.9
-23 9 10 114.51 14.43
-14 23 -10 137.56 14.14
14 -23 7 10.91 4.28
-9 -14 -7 4.64 3.19
-23 9 7 6.63 4.92
14 -23 4 387.08 12.81
-9 -14 -4 388.56 16.83
-23 9 4 375.01 23.31
14 -23 1 3.84 2.68
-9 -14 -1 2.81 2.25
-23 9 1 4.62 2.78
14 -23 -2 258.17 14.81
-9 -14 2 231.01 18.77
-23 9 -2 242.82 18.88
14 -23 -5 10.3 3.49
-9 -14 5 13.22 3.39
-23 9 -5 16.76 6.18
14 -23 -8 508.83 22.81
-23 9 -8 443.55 28.22
14 -23 -11 21.34 5.22
-23 9 -11 11.68 4.01
15 -23 8 57.67 13.44
-8 -15 -8 68.79 15.07
-23 8 8 85.57 10.42
15 -23 5 133.7 14.53
-8 -15 -5 118.57 23.9
-23 8 5 140.42 8.56
15 -23 2 96.87 20.21
-8 -15 -2 90.57 17.74
-23 8 2 105.94 7.56
15 -23 -1 133.02 8.93
-8 -15 1 100.39 17.8
-23 8 -1 98.35 9.9
15 -23 -4 52.92 11.39
-8 -15 4 32.8 8.03
-23 8 -4 32.31 7.95
15 -23 -7 209.54 15.36
-23 8 -7 198.49 19.25
15 -23 -10 5.48 2.17
-23 8 -10 3.24 3.52
-7 -16 -9 22 8.18
-23 7 9 29.45 7.92
-16 23 -9 35.51 10.39
16 -23 6 2.01 3.41
-7 -16 -6 6.04 3.34
-23 7 6 4.59 3.45
16 -23 3 37.37 9.84
-7 -16 -3 26.41 4.93
-23 7 3 32.11 7.74
16 -23 0 3.73 2.57
-7 -16 0 1.87 1.96
-23 7 0 4.39 1.97
16 -23 -3 76.65 10.65
-7 -16 3 72.49 12.03
-23 7 -3 70.74 12.72
16 -23 -6 3.14 3.75
-23 7 -6 2.46 3.74
16 -23 -9 31.72 4.84
-23 7 -9 25.68 8.3
-6 -17 -7 53.69 15.03
-23 6 7 48.94 12.85
17 -23 4 2.64 3.35
-6 -17 -4 3.74 3.22
-23 6 4 3.63 3.86
17 -23 1 43.18 10.85
-6 -17 -1 49.42 13.14
-23 6 1 56.53 14.06
17 -23 -2 5.19 2.93
-6 -17 2 4.97 3.24
-23 6 -2 7.17 2.53
17 -23 -5 26.37 5.31
-6 -17 5 14.52 4.42
-23 6 -5 9.19 3.19
17 -23 -8 9.47 2.38
-23 6 -8 12.88 3.21
-5 -18 -8 7.49 5.22
-23 5 8 5.52 2.68
-18 23 -8 3.23 1.79
18 -23 5 128.31 14.01
-5 -18 -5 137.56 16.56
-23 5 5 146.7 11.97
18 -23 2 25.34 5.05
-5 -18 -2 31.04 9.2
-23 5 2 36.68 11.45
18 -23 -1 203.71 18.9
-5 -18 1 226.9 15.04
-23 5 -1 247.83 13.75
18 -23 -4 10.92 4.85
-5 -18 4 13.9 2.93
-23 5 -4 8.47 5.17
18 -23 -7 78.95 12
-23 5 -7 69.65 18.97
-4 -19 -6 139.49 14.48
-23 4 6 119.46 16.1
-19 23 -6 161.88 10.12
19 -23 3 5.8 2.62
-4 -19 -3 3.3 3.39
-23 4 3 0.81 3.29
19 -23 0 197.44 20.04
-4 -19 0 166.55 23.52
-23 4 0 236.03 8.94
19 -23 -3 5.2 3.8
-4 -19 3 3.48 1.7
-23 4 -3 6.69 3.62
19 -23 -6 87.78 9.17
-23 4 -6 70.83 18.82
-3 -20 -4 1.01 1.85
-23 3 4 1.56 1.66
-20 23 -4 4.52 2.71
20 -23 1 70.83 12.16
-3 -20 -1 50.67 10.32
-23 3 1 67.86 15.22
20 -23 -2 3.16 1.63
-3 -20 2 1.7 1.4
-23 3 -2 6.41 4.75
20 -23 -5 3.26 2.56
-23 3 -5 4.12 2.54
-2 -21 -2 20.82 4.15
-23 2 2 20.47 5.7
-21 23 -2 16.84 6.87
21 -23 -1 3.15 2.75
-2 -21 1 -0.08 2.71
-23 2 -1 3.05 1.71
21 -23 -4 8.86 3.12
-23 2 -4 5.36 3.04
-20 -4 -1 3.96 4.34
-24 20 1 9.87 3.38
4 -24 -2 8.66 4.2
-20 -4 2 4.82 2.88
-24 20 -2 5.12 4.03
5 -24 5 102.4 15.38
-19 -5 -5 130.88 14.06
-24 19 5 130.68 13.92
5 -24 2 51.25 9.31
-19 -5 -2 38.47 10.3
-24 19 2 36.88 10.28
5 -24 -1 67.07 17.25
-19 -5 1 78.51 17.64
-24 19 -1 99.63 9.44
5 -24 -4 15.33 3.57
-19 -5 4 27.01 5.49
-24 19 -4 27.03 5.12
-18 -6 -6 42.52 12.79
-24 18 6 58.33 12.94
6 -24 3 235.56 17.98
-18 -6 -3 202.88 16.1
-24 18 3 213.55 10.54
6 -24 0 7.19 2.35
-18 -6 0 6.99 3.19
-24 18 0 3.16 4.38
6 -24 -3 192.48 24.13
-18 -6 3 225.67 15.33
-24 18 -3 239.45 9.22
6 -24 -6 171.07 16.17
-24 18 -6 128.35 16.05
-17 -7 -7 4.61 2.5
-24 17 7 1.62 1.32
7 -24 4 307.19 25.77
-17 -7 -4 320.92 14.14
-24 17 4 310.33 16.22
7 -24 1 7.74 2.78
-17 -7 -1 0.82 3.31
-24 17 1 3.5 3.71
7 -24 -2 86.37 13.49
-17 -7 2 107.29 9.59
-24 17 -2 89.66 20.94
7 -24 -5 10.42 4.71
-17 -7 5 7.91 3.51
-24 17 -5 9.11 2.94
-16 -8 -8 6.65 4.98
-24 16 8 2.61 2.58
8 -24 5 5.41 2.48
-16 -8 -5 5 4.94
-24 16 5 7.8 4.02
8 -24 2 75.05 12.28
-16 -8 -2 71.03 18.56
-24 16 2 85.42 10.01
8 -24 -1 28.59 6.1
-16 -8 1 19.99 5.62
-24 16 -1 19.81 5.92
8 -24 -4 -1.36 2.96
-16 -8 4 3.59 2.03
-24 16 -4 3.16 2.19
8 -24 -7 25.05 7.43
-24 16 -7 38.02 10.75
9 -24 6 27.24 4.23
-15 -9 -6 22.52 5.42
-24 15 6 27.62 6.59
9 -24 3 6.46 2.87
-15 -9 -3 3 3.96
-24 15 3 3.52 3.35
9 -24 0 32.93 6.96
-15 -9 0 36.76 10.33
-24 15 0 42.91 12.88
9 -24 -3 3.27 2
-15 -9 3 0.11 2.26
-24 15 -3 3.74 2.7
9 -24 -6 17.56 4.47
-24 15 -6 21.4 4.93
10 -24 7 80.93 10.22
-14 -10 -7 85.25 20.78
-24 14 7 116.4 10.71
10 -24 4 54.66 7.84
-14 -10 -4 50.98 14.05
-24 14 4 50.62 11.9
10 -24 1 101.56 16.32
-14 -10 -1 104.32 11.23
-24 14 1 106.62 11.5
10 -24 -2 37.76 6.02
-14 -10 2 34.06 7.96
-24 14 -2 32.71 9.44
10 -24 -5 18.28 4.47
-14 -10 5 22.48 6.25
-24 14 -5 31.73 7.19
10 -24 -8 12.57 3.88
-24 14 -8 4.94 4.07
-13 -11 -8 -0.07 3.14
-24 13 8 -0.43 2.55
11 -24 5 142.31 15.22
-13 -11 -5 129.79 14.17
-24 13 5 139.06 12.64
11 -24 2 32.87 4.73
-13 -11 -2 29.8 7.39
-24 13 2 30.79 11.57
11 -24 -1 161.89 17.53
-13 -11 1 144.67 14.53
-24 13 -1 162.04 13.96
11 -24 -4 99.37 7.54
-13 -11 4 54.34 6.72
-24 13 -4 61.88 8.57
11 -24 -7 40.59 5.46
-24 13 -7 69.78 7.8
-12 -12 -9 -0.28 2.18
-24 12 9 1.94 2.01
12 -24 6 81.58 10.61
-12 -12 -6 94.06 19.83
-24 12 6 84.47 11.7
12 -24 3 48.76 8.77
-12 -12 -3 45.18 7.04
-24 12 3 35.82 11.81
12 -24 0 36.83 5.91
-12 -12 0 40.8 7.68
-24 12 0 32.04 10.99
12 -24 -3 15.7 4.82
-12 -12 3 16.11 3.26
-24 12 -3 16.86 4.8
12 -24 -6 34.36 5.1
-24 12 -6 33.48 10.9
12 -24 -9 5.82 2.01
-24 12 -9 1.7 2.8
13 -24 7 7.03 3.06
-11 -13 -7 10.22 4.56
-24 11 7 8.08 3.72
13 -24 4 29.08 8.97
-11 -13 -4 31.76 5.03
-24 11 4 35.97 7.85
13 -24 1 27.55 5.35
-11 -13 -1 19.68 4.31
-24 11 1 16.89 5.1
13 -24 -2 47.53 7.1
-11 -13 2 45.95 6.7
-24 11 -2 32.89 10.76
13 -24 -5 -2.21 2.76
-11 -13 5 0.81 1.77
-24 11 -5 6.39 4.11
13 -24 -8 53.96 9.36
-24 11 -8 32.96 12.72
14 -24 8 0.69 1.48
-10 -14 -8 5.94 3.89
-24 10 8 1.84 2.55
14 -24 5 166.88 15.58
-10 -14 -5 204.58 14.04
-24 10 5 214.01 10.72
14 -24 2 21.16 5.58
-10 -14 -2 13.56 3.29
-24 10 2 21.68 5.61
14 -24 -1 72.8 13.94
-10 -14 1 53.78 13.64
-24 10 -1 59.59 14.5
14 -24 -4 3.36 3.47
-10 -14 4 2.2 1.71
-24 10 -4 5.06 3.99
14 -24 -7 126.09 16.58
-24 10 -7 121.51 12.56
15 -24 6 14.13 4.62
-9 -15 -6 26.35 5.99
-24 9 6 20.27 6.58
15 -24 3 97.05 20.41
-9 -15 -3 87.36 19.36
-24 9 3 97.47 19.23
15 -24 0 26.82 4.8
-9 -15 0 28.57 6.77
-24 9 0 23.6 10.32
15 -24 -3 25.74 5.04
-9 -15 3 22.95 5.3
-24 9 -3 28.04 6.38
15 -24 -6 51.11 8.97
-24 9 -6 37.83 17.08
16 -24 7 -1.98 2.52
-8 -16 -7 1.02 2.14
-24 8 7 1.21 1.61
16 -24 4 13.6 4.95
-8 -16 -4 23.95 6.81
-24 8 4 24.67 7.28
16 -24 1 1.87 1.41
-8 -16 -1 -0.48 2.24
-24 8 1 1.41 1.66
16 -24 -2 3.44 2.19
-8 -16 2 2.32 2.33
-24 8 -2 5.18 2.63
16 -24 -5 9.22 3.24
-24 8 -5 8.75 3.59
16 -24 -8 16.91 4.33
-24 8 -8 8.13 6.14
17 -24 5 15.95 6.13
-7 -17 -5 27.32 7
-24 7 5 20.09 5.72
17 -24 2 19.02 5.02
-7 -17 -2 17.68 5.52
-24 7 2 23.15 7.21
17 -24 -1 60.94 10.36
-7 -17 1 42.21 8.29
-24 7 -1 64.34 17.13
17 -24 -4 37.71 5.51
-7 -17 4 27.2 6.16
-24 7 -4 29.28 8.26
17 -24 -7 10.05 3.52
-24 7 -7 11.45 5.08
-6 -18 -6 337.82 15.67
-24 6 6 348.73 17.86
18 -24 3 6.27 4.09
-6 -18 -3 6.5 3.37
-24 6 3 5.43 3.11
18 -24 0 341.2 15.13
-6 -18 0 372.33 16.1
-24 6 0 358.51 26.72
18 -24 -3 -0.97 2.76
-6 -18 3 1.84 1.68
-24 6 -3 3.94 2.86
18 -24 -6 125.93 22.32
-24 6 -6 155.34 16.91
19 -24 4 3.44 1.83
-5 -19 -4 5.99 4.61
-24 5 4 6.2 2.44
19 -24 1 180.53 21.72
-5 -19 -1 200.36 13.47
-24 5 1 195.76 10.69
19 -24 -2 106.43 18.71
-5 -19 2 71.91 16.59
-24 5 -2 81.61 23.56
19 -24 -5 160.58 14.07
-24 5 -5 128.83 20.79
20 -24 2 51.94 14.03
-4 -20 -2 42.63 7.61
-24 4 2 42.58 12.78
20 -24 -1 87.95 14.98
-4 -20 1 64.64 12.17
-24 4 -1 91.32 18.52
7 -25 2 23.55 5.13
7 -25 -1 45.49 9.69
-18 -7 1 19.53 5.84
-25 18 -1 25.17 7.83
8 -25 3 116.53 11.31
-17 -8 -3 85.42 20.17
-25 17 3 95.31 16.03
8 -25 0 12.18 3.54
-17 -8 0 7.94 3.92
-25 17 0 8.44 4.3
8 -25 -3 30.06 7.08
-17 -8 3 10.81 5.47
-25 17 -3 13.85 5.41
9 -25 4 8.64 3.16
-16 -9 -4 3.51 2.92
-25 16 4 2.54 2.51
9 -25 1 30.93 4.14
-16 -9 -1 28.98 8.77
-25 16 1 30.2 3.41
9 -25 -2 9.62 3.81
-16 -9 2 5.76 3.18
-25 16 -2 9.76 3.61
9 -25 -5 16.27 4.43
-25 16 -5 23.5 7.09
10 -25 5 89.12 13.53
-15 -10 -5 86.56 20.02
-25 15 5 107.85 12.56
10 -25 2 78.86 10.42
-15 -10 -2 63.51 16.28
-25 15 2 74.37 10.89
10 -25 -1 100.66 15.52
-15 -10 1 117.41 11.04
-25 15 -1 129.96 16.47
10 -25 -4 2.79 2.78
-15 -10 4 2.63 1.93
-25 15 -4 3.08 3.26
11 -25 6 262.32 13.47
-14 -11 -6 271.32 12.8
-25 14 6 240.14 12.77
11 -25 3 6.3 3.47
-14 -11 -3 -2.12 3.34
-25 14 3 0.6 2.96
11 -25 0 354.05 22.78
-14 -11 0 374.2 13.25
-25 14 0 396.2 15.45
11 -25 -3 3.94 2.03
-14 -11 3 1 2.21
-25 14 -3 4.58 3.45
11 -25 -6 193.48 13.83
-25 14 -6 238.19 13.17
12 -25 4 9.64 3.8
-13 -12 -4 10.41 3.89
-25 13 4 8.86 4.69
12 -25 1 110.95 13.45
-13 -12 -1 110.17 10.46
-25 13 1 108.05 8.56
12 -25 -2 34.45 6.26
-13 -12 2 23.62 4.28
-25 13 -2 41.65 10.59
12 -25 -5 184.47 14.45
-25 13 -5 194.41 10.35
13 -25 5 46.36 10.15
-12 -13 -5 80.1 13.8
-25 12 5 61.96 14.93
13 -25 2 58.61 8.02
-12 -13 -2 50.4 8.8
-25 12 2 48.12 14.77
13 -25 -1 7.25 3.14
-12 -13 1 10.03 3.7
-25 12 -1 6.51 3.06
13 -25 -4 17.78 5.1
-12 -13 4 9.49 3.86
-25 12 -4 6.75 2.91
14 -25 6 5.19 1.83
-11 -14 -6 9.43 3.5
-25 11 6 9.5 5.11
14 -25 3 4.66 1.89
-11 -14 -3 4.32 3.86
-25 11 3 7.43 3.28
14 -25 0 8.97 3.49
-11 -14 0 1.1 2.64
-25 11 0 2.91 3.5
14 -25 -3 4.84 2.76
-11 -14 3 6.34 2.4
-25 11 -3 9.71 4.54
14 -25 -6 -1.22 2.83
-25 11 -6 3.8 3.2
15 -25 4 43.44 13.78
-10 -15 -4 39.51 10
-25 10 4 57.48 14.16
15 -25 1 19.19 5.47
-10 -15 -1 17.2 4.86
-25 10 1 19.93 7.28
15 -25 -2 4.92 2.12
-10 -15 2 3.49 2.25
-25 10 -2 2.58 2.54
15 -25 -5 10.18 4.33
-25 10 -5 16.51 5.35
16 -25 5 1.98 3.46
-9 -16 -5 5.12 3.4
-25 9 5 2.41 3.24
16 -25 2 21.09 7.59
-9 -16 -2 23.8 9.17
-25 9 2 25.87 8.36
16 -25 -1 7.13 3.11
-9 -16 1 -0.42 2.32
-25 9 -1 4.29 5.53
16 -25 -4 0.87 2.65
-25 9 -4 2.94 2.96
17 -25 3 4.3 3.67
-8 -17 -3 5.1 2.55
-25 8 3 5.01 2.85
17 -25 0 8.53 3.83
-8 -17 0 2.54 3.73
-25 8 0 0.88 2.41
17 -25 -3 9.13 3.54
-8 -17 3 8.22 2.75
-25 8 -3 16.7 5.82
18 -25 1 154.1 14.62
-7 -18 -1 196.53 11.75
-25 7 1 185.48 15.65
18 -25 -2 45.95 10
-7 -18 2 36.84 10.64
