#------------------------------------------------------------------------------
#$Date: 2017-04-04 16:05:00 +0300 (Tue, 04 Apr 2017) $
#$Revision: 194818 $
#$URL: file:///home/coder/svn-repositories/cod/cif/4/34/53/4345327.cif $
#------------------------------------------------------------------------------
#
# This file is available in the Crystallography Open Database (COD),
# http://www.crystallography.net/
#
# All data on this site have been placed in the public domain by the
# contributors.
#
data_4345327
loop_
_publ_author_name
'Kawamura, Airi'
'Greenwood, Arin R.'
'Filatov, Alexander S.'
'Gallagher, Audrey T.'
'Galli, Giulia'
'Anderson, John S.'
_publ_section_title
;
 Incorporation of Pyrazine and Bipyridine Linkers with High-Spin Fe(II)
 and Co(II) in a Metal-Organic Framework.
;
_journal_issue                   6
_journal_name_full               'Inorganic chemistry'
_journal_page_first              3349
_journal_page_last               3356
_journal_paper_doi               10.1021/acs.inorgchem.6b02883
_journal_volume                  56
_journal_year                    2017
_chemical_formula_moiety         'C12 H8 Fe N2 O4'
_chemical_formula_sum            'C12 H8 Fe N2 O4'
_chemical_formula_weight         300.05
_space_group_crystal_system      hexagonal
_space_group_IT_number           175
_space_group_name_Hall           '-P 6'
_space_group_name_H-M_alt        'P 6/m'
_symmetry_space_group_name_Hall  '-P 6'
_symmetry_space_group_name_H-M   'P 6/m'
_atom_sites_solution_hydrogens   geom
_atom_sites_solution_primary     dual
_atom_sites_solution_secondary   difmap
_audit_creation_date             2016-11-18
_audit_creation_method
;
Olex2 1.2
(compiled 2016.11.07 svn.r3352 for OlexSys, GUI svn.r5261)
;
_cell_angle_alpha                90
_cell_angle_beta                 90
_cell_angle_gamma                120
_cell_formula_units_Z            6
_cell_length_a                   24.644(2)
_cell_length_b                   24.644(2)
_cell_length_c                   7.1068(6)
_cell_measurement_reflns_used    7030
_cell_measurement_temperature    100(2)
_cell_measurement_theta_max      24.78
_cell_measurement_theta_min      2.52
_cell_volume                     3737.9(5)
_computing_cell_refinement       'SAINT V.8.35A (Bruker AXS Inc., 2013)'
_computing_data_collection       'APEX3 v.2015.9-0 (Bruker AXS Inc., 2015)'
_computing_data_reduction        'SAINT V.8.35A (Bruker AXS Inc., 2013)'
_computing_molecular_graphics
;
OLEX2: a complete structure solution, refinement and analysis program 
Dolomanov et al., 2009

Mercury: visualization and analysis of crystal structures
Macrae, et al., 2006

O. V. Dolomanov, L. J. Bourhis, R. J. Gildea, J. A. K. Howard and H. Puschmann.
J. Appl. Cryst. (2009). 42, 339-341;

C. F. Macrae, P. R. Edgington, P. McCabe, E. Pidcock, G. P. Shields, R. Taylor,
M. Towler and J. van de Streek, J. Appl. Cryst. (2006). 39, 453-457.
;
_computing_publication_material
;
 APEX3 v.2015.5-2 (Bruker AXS Inc., 2015)
 OLEX2 (Dolomanov et al., 2009)
;
_computing_structure_refinement  'XL-2014/7 (Sheldrick, 2015b)'
_computing_structure_solution    'XT 2014/5 (Sheldrick, 2015a)'
_diffrn_ambient_temperature      100(2)
_diffrn_detector_area_resol_mean 10.4167
_diffrn_measured_fraction_theta_full 0.997
_diffrn_measured_fraction_theta_max 0.997
_diffrn_measurement_device_type  'Bruker D8 Venture PHOTON 100 CMOS'
_diffrn_measurement_method       'omega and phi scans'
_diffrn_radiation_monochromator  mirrors
_diffrn_radiation_type           MoK\a
_diffrn_radiation_wavelength     0.71073
_diffrn_reflns_av_R_equivalents  0.1013
_diffrn_reflns_av_unetI/netI     0.0529
_diffrn_reflns_Laue_measured_fraction_full 0.997
_diffrn_reflns_Laue_measured_fraction_max 0.997
_diffrn_reflns_limit_h_max       29
_diffrn_reflns_limit_h_min       -27
_diffrn_reflns_limit_k_max       29
_diffrn_reflns_limit_k_min       -28
_diffrn_reflns_limit_l_max       7
_diffrn_reflns_limit_l_min       -8
_diffrn_reflns_number            23375
_diffrn_reflns_point_group_measured_fraction_full 0.997
_diffrn_reflns_point_group_measured_fraction_max 0.997
_diffrn_reflns_theta_full        25.037
_diffrn_reflns_theta_max         25.037
_diffrn_reflns_theta_min         2.525
_diffrn_source                   'INCOATEC ImuS micro-focus source'
_exptl_absorpt_coefficient_mu    0.610
_exptl_absorpt_correction_T_max  0.7452
_exptl_absorpt_correction_T_min  0.4266
_exptl_absorpt_correction_type   multi-scan
_exptl_absorpt_process_details
;
SADABS-2014/5 (Bruker,2014/5) was used for absorption correction.
wR2(int) was 0.1328 before and 0.0750 after correction.
The Ratio of minimum to maximum transmission is 0.5725.
The \l/2 correction factor is 0.00150.
;
_exptl_crystal_colour            brown
_exptl_crystal_colour_primary    brown
_exptl_crystal_density_diffrn    0.800
_exptl_crystal_description       needle
_exptl_crystal_F_000             912
_exptl_crystal_size_max          0.32
_exptl_crystal_size_mid          0.11
_exptl_crystal_size_min          0.09
_refine_diff_density_max         0.698
_refine_diff_density_min         -1.714
_refine_diff_density_rms         0.096
_refine_ls_extinction_method     none
_refine_ls_goodness_of_fit_ref   1.098
_refine_ls_hydrogen_treatment    constr
_refine_ls_matrix_type           full
_refine_ls_number_parameters     106
_refine_ls_number_reflns         2407
_refine_ls_number_restraints     33
_refine_ls_restrained_S_all      1.092
_refine_ls_R_factor_all          0.0786
_refine_ls_R_factor_gt           0.0643
_refine_ls_shift/su_max          0.000
_refine_ls_shift/su_mean         0.000
_refine_ls_structure_factor_coef Fsqd
_refine_ls_weighting_details
'w=1/[\s^2^(Fo^2^)+(0.0794P)^2^+7.6420P] where P=(Fo^2^+2Fc^2^)/3'
_refine_ls_weighting_scheme      calc
_refine_ls_wR_factor_gt          0.1645
_refine_ls_wR_factor_ref         0.1699
_reflns_Friedel_coverage         0.000
_reflns_number_gt                1929
_reflns_number_total             2407
_reflns_threshold_expression     'I > 2\s(I)'
_cod_data_source_file            ic6b02883_si_002.cif
_cod_data_source_block           full_sq
_cod_depositor_comments          'Adding full bibliography for 4345327.cif.'
_cod_original_cell_volume        3738.0(7)
_cod_database_code               4345327
_shelx_space_group_comment
;
The symmetry employed for this shelxl refinement is uniquely defined
by the following loop, which should always be used as a source of
symmetry information in preference to the above space-group names.
They are only intended as comments.
;
_shelx_estimated_absorpt_t_max   0.947
_shelx_estimated_absorpt_t_min   0.829
_olex2_refinement_description
;
1. Fixed Uiso
 At 1.2 times of:
  All C(H) groups
2. Rigid body (RIGU) restrains
 O3, O4, C4, C5, C6, C8
 with sigma for 1-2 distances of 0.004 and sigma for 1-3 distances of 0.004
3.a Aromatic/amide H refined with riding coordinates:
 C3(H3), C4(H4), C6(H6), C7(H7), C9(H9), C10(H10)
;
_shelx_res_file
;
TITL P6/m
    full_sq.res
    created by SHELXL-2016/6 at 10:37:07 on 18-Nov-2016
CELL 0.71073 24.6444 24.6444 7.1068 90 90 120
ZERR 6 0.0021 0.0021 0.0006 0 0 0
LATT 1
SYMM -Y,+X-Y,+Z
SYMM +Y-X,-X,+Z
SYMM -X,-Y,+Z
SYMM +Y,-X+Y,+Z
SYMM -Y+X,+X,+Z
SFAC C H Fe N O
UNIT 72 48 6 12 24
RIGU O3 O4 C4 C5 C6 C8

L.S. 16 0 48
PLAN  10
SIZE 0.09 0.11 0.32
TEMP -173
BOND $H
list 4
MORE -1
CONF
ABIN
fmap 2
acta
REM <olex2.extras>
REM <HklSrc "%.\\full_sq.hkl">
REM </olex2.extras>

WGHT    0.079400    7.642000
FVAR       0.12911
FE1   3    0.410442    0.937528    1.000000    10.50000    0.02182    0.01577 =
         0.01306    0.00000    0.00000    0.00707
O1    5    0.490476    0.933175    1.000000    10.50000    0.02577    0.02047 =
         0.02445    0.00000    0.00000    0.01490
O2    5    0.594147    0.981012    1.000000    10.50000    0.03284    0.01981 =
         0.01342    0.00000    0.00000    0.01215
O3    5    0.479631    0.644474    1.000000    10.50000    0.02393    0.02644 =
         0.02351    0.00000    0.00000    0.01612
O4    5    0.582809    0.692345    1.000000    10.50000    0.01929    0.02309 =
         0.02311    0.00000    0.00000    0.01291
N1    4    0.411719    0.939062    0.695989    11.00000    0.02563    0.01521 =
         0.01383   -0.00138   -0.00207    0.00482
C1    1    0.540423    0.931977    1.000000    10.50000    0.02640    0.02841 =
         0.00852    0.00000    0.00000    0.02006
C2    1    0.538710    0.870356    1.000000    10.50000    0.03247    0.01496 =
         0.00840    0.00000    0.00000    0.00888
C3    1    0.593125    0.868164    1.000000    10.50000    0.01667    0.03439 =
         0.01749    0.00000    0.00000    0.01061
AFIX  43
H3    2    0.632215    0.906146    1.000000    10.50000   -1.20000
AFIX   0
C4    1    0.592110    0.811281    1.000000    10.50000    0.02599    0.02767 =
         0.02779    0.00000    0.00000    0.02005
AFIX  43
H4    2    0.630108    0.810202    1.000000    10.50000   -1.20000
AFIX   0
C5    1    0.533983    0.755322    1.000000    10.50000    0.03686    0.02131 =
         0.02150    0.00000    0.00000    0.01823
C6    1    0.480544    0.759058    1.000000    10.50000    0.02364    0.02020 =
         0.01594    0.00000    0.00000    0.00913
AFIX  43
H6    2    0.441392    0.721143    1.000000    10.50000   -1.20000
AFIX   0
C7    1    0.480362    0.814802    1.000000    10.50000    0.01671    0.03600 =
         0.02905    0.00000    0.00000    0.01373
AFIX  43
H7    2    0.442262    0.815684    1.000000    10.50000   -1.20000
AFIX   0
C8    1    0.533246    0.695064    1.000000    10.50000    0.03528    0.02359 =
         0.00666    0.00000    0.00000    0.01626
C9    1    0.434478    0.908869    0.597097    11.00000    0.04700    0.03331 =
         0.02041    0.00100   -0.00058    0.02645
AFIX  43
H9    2    0.451141    0.886768    0.662118    11.00000   -1.20000
AFIX   0
C10   1    0.389024    0.969262    0.596519    11.00000    0.03080    0.04032 =
         0.02018    0.00013    0.00315    0.02219
AFIX  43
H10   2    0.372377    0.991410    0.661357    11.00000   -1.20000
AFIX   0
HKLF 4




REM  P6/m
REM R1 =  0.0643 for    1929 Fo > 4sig(Fo)  and  0.0786 for all    2407 data
REM    106 parameters refined using     33 restraints

END

WGHT      0.0794      7.6419

REM Highest difference peak  0.698,  deepest hole -1.714,  1-sigma level  0.096
Q1    1   0.5604  0.6415  1.0000  10.50000  0.05    0.70
Q2    1   0.4427  0.9160  1.0000  10.50000  0.05    0.70
Q3    1   0.6645  0.8416  1.0000  10.50000  0.05    0.65
Q4    1   0.5000  1.0000  1.0000  10.25000  0.05    0.63
Q5    1   0.4567  0.6580  1.0000  10.50000  0.05    0.63
Q6    1   0.3837  0.7368  1.0000  10.50000  0.05    0.63
Q7    1   0.3936  0.9687  1.0000  10.50000  0.05    0.62
Q8    1   0.5582  0.8337  1.0000  10.50000  0.05    0.60
Q9    1   0.4546  0.9779  1.0000  10.50000  0.05    0.59
Q10   1   0.4930  0.9029  1.0000  10.50000  0.05    0.58
;
_shelx_res_checksum              8565
_shelx_hkl_file
;
   2  -3   0   58.59    3.40
  -3   1   0   63.09    3.50
  -2   3   0   58.09    3.40
   3  -1   0   57.49    3.40
  -1  -2   0   62.49    3.50
   1  -3   0    5.50    0.50
   2   1   0    5.00    0.50
  -3   2   0    5.20    0.50
  -3   2   0    5.30    0.50
   3  -2   0    5.00    0.50
  -1   3   0    6.60    0.60
  -3   3   0   97.59    5.60
  -3   3   0   94.79    5.60
   0  -3   0  105.29    5.60
   3  -3   0   91.29    5.60
   3  -3   0   93.59    5.60
  -3   0   0  108.89    5.60
   3  -4   0  241.78   14.30
   1   3   0  260.67   14.30
  -4   1   0  268.77   14.30
  -3   4   0  244.28   14.30
   4  -1   0  251.97   14.30
  -3   4   0  246.88   14.30
  -3   4   0  249.58   14.30
  -1  -3   0  268.87   14.30
   2  -4   0    4.90    0.70
   2   2   0    6.50    0.70
  -4   2   0    4.40    0.60
   2  -4   0    2.90    0.50
  -2   4   0    4.20    0.60
   4  -2   0    3.80    0.70
  -2   4   0    5.80    0.70
   3   1   0   12.50    1.10
  -4   3   0   10.40    1.00
  -4   3   0   11.90    1.00
   1  -4   0   11.00    1.00
  -1   4   0   12.60    1.10
  -1   4   0   11.40    0.90
  -3  -1   0   13.50    1.10
   4  -3   0   10.90    0.90
   4   0   0   60.19    3.50
  -4   4   0   57.19    3.40
  -4   4   0   53.49    3.40
   0  -4   0   60.49    3.40
  -4   0   0   63.09    3.50
   0   4   0   59.89    3.40
   4  -4   0   53.19    3.40
  -5   1   0 1231.68   63.49
   1   4   0 1184.28   63.39
   4  -5   0 1060.29   63.39
  -4   5   0 1100.49   63.39
  -1  -4   0 1210.28   63.39
  -4   5   0 1104.39   63.39
  -4   5   0 1059.49   63.39
   5  -1   0 1150.88   63.39
   3  -5   0  193.18   11.30
   3  -5   0  190.18   11.30
   2   3   0  212.78   11.40
  -5   2   0  212.38   11.40
   5  -2   0  199.58   11.40
  -3   5   0  203.38   11.40
  -2  -3   0  216.28   11.40
  -3   5   0  183.18   11.30
  -5   3   0  127.79    6.90
   2  -5   0  109.19    6.80
  -2   5   0  134.29    6.90
  -3  -2   0  140.09    6.90
   5  -3   0  108.79    6.90
  -2   5   0  103.49    6.80
  -5   4   0    5.00    0.80
   1  -5   0    4.50    0.80
   4   1   0    7.10    1.00
  -5   4   0    4.90    0.80
  -1   5   0    4.60    0.80
   5  -4   0    5.50    0.80
   5  -4   0    3.70    0.60
  -1   5   0    6.70    1.00
   0  -5   0   21.30    1.50
   5   0   0   22.80    2.20
  -5   5   0   20.40    1.50
  -5   5   0   20.90    1.50
   5  -5   0   20.60    1.50
  -5   0   0   24.30    1.60
   5  -5   0   21.40    1.50
   0   5   0   23.30    1.50
   5  -6   0  150.98    9.00
  -6   1   0  167.68    9.10
   1   5   0  167.18    9.10
  -5   6   0  156.28    9.00
  -5   6   0  141.09    9.00
  -5   6   0  155.28    9.10
  -1  -5   0  166.08    9.10
   6  -1   0  172.18    9.10
   4  -6   0  281.87   16.40
   2   4   0  319.77   16.50
   4  -6   0  284.47   16.40
  -6   2   0  305.27   16.50
  -4   6   0  271.47   16.40
  -2  -4   0  309.97   16.50
  -4   6   0  277.17   16.40
   6  -2   0  290.57   16.50
   3  -6   0    8.30    1.00
   3  -6   0   12.80    1.50
  -3   6   0   12.00    1.00
  -6   4   0  154.68    9.00
   2  -6   0  150.98    8.90
   4   2   0  170.18    9.00
  -2   6   0  172.68    9.00
   6  -4   0  146.19    9.00
   6  -4   0  147.89    8.90
  -2   6   0  151.78    8.90
  -4  -2   0  172.78    9.00
  -6   5   0   32.50    2.00
   1  -6   0   29.40    1.90
   5   1   0   35.20    2.10
  -6   5   0   27.70    2.00
  -1   6   0   32.60    1.90
   6  -5   0   28.00    1.90
   6  -5   0   25.60    2.00
  -1   6   0   35.00    2.10
   0  -6   0  237.28   13.30
   6   0   0  246.08   13.40
  -6   6   0  223.98   13.30
  -6   6   0  229.48   13.30
   0   6   0  250.27   13.40
  -6   0   0  245.48   13.40
   6  -6   0  234.08   13.40
   6  -6   0  226.88   13.30
  -7   1   0  182.38    9.60
   6  -7   0  162.28    9.50
   1   6   0  181.08    9.60
  -6   7   0  160.88    9.50
  -6   7   0  156.78    9.50
  -1  -6   0  181.58    9.60
  -6   7   0  145.59    9.50
   7  -1   0  174.08    9.60
  -7   2   0   61.59    3.50
   2   5   0   62.19    3.50
   5  -7   0   58.49    3.50
  -5   7   0   49.99    3.40
  -5   7   0   56.59    3.40
  -2  -5   0   60.49    3.50
   7  -2   0   61.39    3.50
  -5   7   0   50.39    3.50
   3   4   0  430.76   23.00
   4  -7   0  393.56   22.90
   4  -7   0  403.46   22.90
  -7   3   0  423.06   23.00
  -4   7   0  404.56   23.00
  -3  -4   0  429.26   23.00
  -4   7   0  379.76   22.90
   5   2   0  161.18    8.40
  -7   5   0  142.99    8.40
  -7   5   0  141.69    8.40
   2  -7   0  143.49    8.40
   7  -5   0  137.89    8.30
   7  -5   0  136.59    8.40
  -2   7   0  143.99    8.30
  -5  -2   0  160.68    8.40
  -2   7   0  156.78    8.40
  -7   6   0   78.89    4.60
   6   1   0   84.09    4.70
   1  -7   0   74.19    4.60
  -7   6   0   80.39    4.60
   7  -6   0   72.39    4.60
  -1   7   0   82.89    4.70
  -6  -1   0   82.29    4.60
   7  -6   0   71.19    4.60
  -1   7   0   80.19    4.60
   7   0   0   21.10    1.70
   0  -7   0   23.30    1.60
  -7   7   0   19.40    1.60
  -7   7   0   19.20    1.60
   0   7   0   23.00    1.80
  -7   0   0   23.00    1.70
   0   7   0   21.70    1.60
   7  -7   0   20.10    1.60
   7  -7   0   18.10    1.60
   1   7   0   83.09    4.60
   7  -8   0   78.09    4.60
  -8   1   0   83.79    4.70
  -7   8   0   65.99    4.60
   8  -1   0   80.79    4.70
  -7   8   0   77.89    4.60
  -7   8   0   70.59    4.60
  -1  -7   0   80.49    4.60
   6  -8   0  256.47   14.70
  -8   2   0  266.27   14.70
   2   6   0  271.77   14.70
  -6   8   0  251.57   14.70
  -6   8   0  250.67   14.70
  -2  -6   0  271.47   14.70
  -6   8   0  249.58   14.70
   8  -2   0  266.27   14.80
   4   4   0   64.49    3.70
  -8   4   0   63.49    3.70
   4  -8   0   56.89    3.70
   4  -8   0   62.09    3.70
  -4  -4   0   69.19    3.80
   8  -4   0   52.59    3.70
  -4   8   0   58.49    3.60
  -4   8   0   64.09    3.70
   8  -4   0   57.99    3.70
   3  -8   0   88.69    5.50
   5   3   0   98.19    5.60
  -8   5   0   98.09    5.50
  -3   8   0   98.79    5.60
  -5  -3   0  100.69    5.60
   8  -5   0   85.29    5.50
   6   2   0  182.58    9.90
   2  -8   0  163.88    9.80
  -8   6   0  167.38    9.80
  -8   6   0  171.28    9.80
   8  -6   0  154.88    9.80
  -2   8   0  186.28    9.90
   8  -6   0  164.08    9.80
  -2   8   0  175.98    9.80
  -6  -2   0  182.98    9.90
  -8   7   0  172.78    9.90
  -8   7   0  162.68    9.90
   1  -8   0  172.08    9.90
   7   1   0  182.18   10.00
  -1   8   0  186.78   10.00
  -1   8   0  178.48    9.90
  -7  -1   0  173.78    9.90
   8  -7   0  162.08    9.90
   8  -7   0  168.08    9.90
   8   0   0   23.00    2.10
  -8   8   0   20.60    1.90
   0  -8   0   24.80    2.00
  -8   8   0   24.70    2.00
   0   8   0   27.50    2.00
  -8   0   0   29.20    2.10
   8  -8   0   21.30    2.00
   8  -8   0   25.60    1.90
   0   8   0   28.70    2.20
   1   8   0   49.40    3.20
   8  -9   0   50.89    3.20
  -9   1   0   48.80    3.30
  -1  -8   0   50.09    3.20
  -8   9   0   50.79    3.20
  -8   9   0   44.70    3.20
   9  -1   0   50.19    3.40
  -9   2   0   21.10    1.80
   7  -9   0   19.80    1.70
   2   7   0   19.00    1.80
   9  -2   0   19.10    1.90
  -2  -7   0   20.30    1.80
  -7   9   0   18.60    1.70
  -7   9   0   14.90    1.70
  -7   9   0   14.20    1.60
  -9   3   0  207.38   11.60
   3   6   0  212.28   11.60
   6  -9   0  198.68   11.50
   9  -3   0  202.38   11.60
  -3  -6   0  208.38   11.60
  -6   9   0  193.68   11.50
  -6   9   0  195.88   11.50
   5  -9   0   44.70    3.00
   4   5   0   45.40    3.00
  -4  -5   0   50.69    3.10
   9  -4   0   43.40    3.10
  -5   9   0   45.60    3.00
   5   4   0   53.69    3.40
  -9   5   0   53.39    3.40
   4  -9   0   50.39    3.30
   4  -9   0   54.89    3.40
  -4   9   0   57.39    3.40
   9  -5   0   49.00    3.40
   9  -5   0   47.80    3.30
  -5  -4   0   56.19    3.40
  -4   9   0   54.49    3.30
   3  -9   0    3.20    0.90
  -3   9   0    4.90    1.00
  -6  -3   0    3.90    1.10
   9  -6   0    1.90    0.90
   9  -6   0    2.30    0.90
   2  -9   0   39.90    2.70
  -9   7   0   35.80    2.70
  -9   7   0   41.10    2.80
   7   2   0   42.30    2.80
  -2   9   0   40.90    2.70
  -2   9   0   45.80    2.90
  -7  -2   0   39.70    2.80
   9  -7   0   39.30    2.70
   9  -7   0   37.50    2.80
  -9   8   0   34.00    2.50
   8   1   0   35.40    2.60
  -9   8   0   31.10    2.40
   1  -9   0   32.60    2.40
  -1   9   0   34.00    2.40
  -8  -1   0   33.30    2.50
  -1   9   0   35.40    2.70
   9  -8   0   28.20    2.50
   9  -8   0   34.20    2.40
  -9   9   0   62.79    4.10
   0  -9   0   68.19    4.20
   9   0   0   66.79    4.30
  -9   9   0   66.89    4.20
   0   9   0   71.99    4.10
  -9   0   0   68.79    4.20
   9  -9   0   59.99    4.20
   9  -9   0   66.89    4.10
   0   9   0   64.19    4.70
   1   9   0   83.59    4.80
   9 -10   0   82.49    4.80
  -1  -9   0   79.29    4.80
  -9  10   0   69.09    4.70
  -9  10   0   76.99    4.80
  10  -1   0   83.39    4.90
  -9  10   0   72.99    4.80
 -10   2   0    2.70    1.20
   8 -10   0    3.20    1.00
   2   8   0    2.90    1.10
  -8  10   0   -0.20    1.00
  -8  10   0    2.70    1.00
  -2  -8   0    3.90    1.10
  -8  10   0   -0.40    1.00
  10  -2   0    3.10    1.30
 -10   3   0    0.60    1.10
   7 -10   0    2.70    1.00
   3   7   0    1.90    1.10
  -7  10   0   -0.80    0.90
  10  -3   0    0.30    1.20
  -7  10   0    1.60    1.00
  -3  -7   0    0.50    1.00
  -7  10   0   -1.10    1.10
   4   6   0  135.89    7.60
 -10   4   0  136.29    7.60
   6 -10   0  130.19    7.60
   6 -10   0  127.19    7.60
  -6  10   0  130.99    7.60
  10  -4   0  125.49    7.60
  -4  -6   0  130.59    7.60
  -6  10   0  124.09    7.50
   5 -10   0   21.70    2.00
  10  -5   0   17.40    2.00
   4 -10   0   37.30    2.60
 -10   6   0   39.30    2.70
   6   4   0   39.90    2.80
  -4  10   0   39.40    2.70
  -4  10   0   39.80    2.60
  10  -6   0   33.30    2.70
  -6  -4   0   41.80    3.00
  10  -6   0   33.00    2.60
   3 -10   0    1.10    1.00
   7   3   0    1.10    1.20
 -10   7   0    1.00    1.10
  -3  10   0    3.30    1.30
  10  -7   0    0.80    1.00
  -3  10   0    3.00    1.00
 -10   8   0   42.60    3.00
 -10   8   0   45.70    3.10
   8   2   0   45.60    3.20
   2 -10   0   44.70    3.10
  -2  10   0   47.20    3.00
  10  -8   0   46.80    3.00
  -2  10   0   52.09    3.30
  -8  -2   0   42.10    3.20
  10  -8   0   40.90    3.10
   9   1   0    2.00    1.30
 -10   9   0    1.80    1.00
   1 -10   0    1.50    1.00
 -10   9   0    1.00    1.10
  10  -9   0    1.30    1.10
  -9  -1   0    2.10    1.10
  -1  10   0    2.10    1.30
  -1  10   0    1.70    1.00
 -10  10   0    0.00    1.00
 -10  10   0    1.10    1.00
  10   0   0    2.50    1.20
  10 -10   0    0.30    1.10
  10 -11   0   28.90    2.30
   1  10   0   29.50    2.50
   1  10   0   30.20    2.30
 -11   1   0   29.50    2.40
  -1 -10   0   28.80    2.30
  11  -1   0   26.10    2.50
 -11   2   0  118.49    7.00
   2   9   0  121.79    6.90
   9 -11   0  120.19    6.90
  11  -2   0  120.79    7.00
  -9  11   0  113.49    6.90
  -9  11   0  115.19    6.90
  -9  11   0  112.89    6.90
  -2  -9   0  115.79    6.90
   8 -11   0    3.80    1.00
   3   8   0    8.10    1.50
 -11   3   0    1.90    1.30
  -8  11   0    1.50    1.10
  -8  11   0    3.70    1.00
  -3  -8   0    3.30    1.10
  -8  11   0    0.40    1.00
  11  -3   0    3.50    1.20
 -11   4   0   27.20    2.30
   4   7   0   28.10    2.30
   7 -11   0   28.40    2.30
  -7  11   0   23.40    2.10
  11  -4   0   27.20    2.40
  -7  11   0   28.70    2.30
  -4  -7   0   24.80    2.20
   6 -11   0   39.30    2.90
   5   6   0   42.30    2.90
 -11   5   0   44.60    2.90
   6 -11   0   36.20    2.80
  -6  11   0   38.50    2.70
  -6  11   0   39.70    3.10
  11  -5   0   37.90    2.90
  -5  -6   0   39.30    2.90
   5 -11   0    4.80    1.10
 -11   6   0    6.90    1.40
   6   5   0    8.80    1.60
  -5  11   0    7.90    1.40
  11  -6   0    2.00    0.90
  -6  -5   0    5.20    1.30
  11  -6   0    3.80    1.20
  -5  11   0    6.40    1.50
   7   4   0   47.20    3.20
 -11   7   0   43.60    3.10
   4 -11   0   41.90    3.10
  11  -7   0   42.70    3.10
  -7  -4   0   47.50    3.20
  -4  11   0   46.60    3.20
  11  -7   0   45.50    3.00
  -4  11   0   46.70    3.00
   8   3   0  482.15   26.30
   3 -11   0  452.65   26.20
 -11   8   0  463.35   26.20
  -3  11   0  479.75   26.20
  -3  11   0  488.95   26.30
  11  -8   0  460.35   26.10
  11  -8   0  438.06   26.20
  -8  -3   0  461.25   26.30
   9   2   0  133.09    7.60
 -11   9   0  123.89    7.60
   2 -11   0  128.19    7.50
 -11   9   0  125.29    7.50
  11  -9   0  122.59    7.40
  -2  11   0  140.29    7.60
  -2  11   0  139.89    7.50
  -9  -2   0  125.19    7.60
  11  -9   0  114.59    7.50
 -11  10   0  176.98   10.40
 -11  10   0  185.78   10.40
   1 -11   0  165.68   10.50
  10   1   0  183.98   10.50
 -10  -1   0  171.68   10.40
  -1  11   0  193.68   10.40
  11 -10   0  181.48   10.30
  11 -10   0  181.78   10.50
  -1  11   0  184.48   10.50
   0 -11   0   64.59    4.00
 -11  11   0   58.39    3.90
 -11  11   0   61.69    4.00
  11   0   0   62.59    4.10
  11 -11   0   60.79    3.90
  11 -11   0   63.99    4.10
 -11   0   0   59.49    4.00
   0  11   0   62.69    4.10
   0  11   0   64.09    3.90
   1  11   0   19.00    1.90
 -12   1   0   15.70    1.90
   1  11   0   23.20    2.20
  11 -12   0   19.20    1.80
  -1 -11   0   19.10    1.90
 -11  12   0   14.60    1.90
 -11  12   0   18.40    2.20
 -11  12   0   14.30    2.00
  12  -1   0   16.60    2.00
 -12   2   0  105.79    6.40
  10 -12   0  110.49    6.30
   2  10   0  111.09    6.40
  12  -2   0  113.39    6.50
  -2 -10   0   99.99    6.40
 -10  12   0  104.79    6.40
 -10  12   0  102.19    6.30
   3   9   0   14.30    1.70
 -12   3   0   11.40    1.80
  -9  12   0   17.80    2.70
  -3  -9   0   16.70    1.70
  12  -3   0   12.20    1.90
 -12   4   0  246.48   15.20
   8 -12   0  274.17   15.00
   4   8   0  275.87   15.10
  -8  12   0  255.47   15.00
  -8  12   0  270.77   15.00
  12  -4   0  270.97   15.10
  -4  -8   0  263.67   15.10
  -8  12   0  260.07   15.10
   7 -12   0   95.59    6.10
   7 -12   0  103.69    6.10
 -12   5   0  107.99    6.10
   5   7   0  102.89    6.10
  -5  -7   0  103.09    6.10
  -7  12   0  105.89    6.10
  -7  12   0   99.09    6.00
  12  -5   0   98.99    6.20
   6 -12   0  149.88    8.80
   6 -12   0  148.99    8.80
 -12   6   0  159.78    8.80
   6   6   0  152.48    8.80
  -6  12   0  149.09    8.70
  -6  12   0  153.98    8.80
  -6  -6   0  148.79    8.80
  12  -6   0  147.39    8.80
   7   5   0  195.28   11.10
 -12   7   0  207.98   11.10
   5 -12   0  190.98   11.00
  12  -7   0  188.48   11.10
  -5  12   0  203.08   11.10
  -7  -5   0  184.58   11.10
  12  -7   0  166.38   11.00
  -5  12   0  199.68   11.00
  12  -8   0    3.50    1.10
  12  -8   0    2.70    1.00
   9   3   0   92.99    5.60
   3 -12   0   88.79    5.40
 -12   9   0   92.09    5.40
  -9  -3   0   85.89    5.50
  -3  12   0   93.49    5.50
  12  -9   0   88.69    5.40
  -3  12   0   93.39    5.40
  12  -9   0   86.19    5.50
 -12  10   0    1.70    1.00
 -12  10   0   -0.50    1.00
   2 -12   0    4.80    1.80
  10   2   0   -0.80    1.10
  -2  12   0    2.40    1.00
  -2  12   0    1.30    1.10
  12 -10   0   -0.20    1.00
 -10  -2   0    2.10    1.10
  12 -10   0    0.60    0.90
   1 -12   0   84.79    5.30
 -12  11   0   90.29    5.30
  11   1   0   88.39    5.40
 -12  11   0   86.29    5.30
  -1  12   0   89.19    5.20
 -11  -1   0   79.59    5.30
  -1  12   0   83.99    5.40
  12 -11   0   91.09    5.40
  12 -11   0   84.49    5.20
 -12  12   0   26.00    2.70
  12   0   0   22.50    2.40
   0 -12   0   27.40    2.20
 -12  12   0   25.20    2.30
 -12   0   0   22.30    2.10
  12 -12   0   28.90    2.20
   0  12   0   24.80    2.50
   0  12   0   27.70    2.20
  12 -13   0   40.60    2.80
   1  12   0   41.30    3.10
 -13   1   0   39.40    2.90
   1  12   0   39.90    2.80
 -12  13   0   38.80    2.90
  13  -1   0   39.80    3.10
 -12  13   0   36.30    2.80
  -1 -12   0   39.10    2.90
 -12  13   0   37.90    3.00
  11 -13   0    5.20    1.10
   2  11   0    5.20    1.20
 -13   2   0    5.10    1.30
   2  11   0    5.50    1.20
  13  -2   0    3.50    1.30
 -11  13   0    5.40    1.30
  -2 -11   0    3.70    1.30
 -11  13   0    4.10    1.20
 -11  13   0    4.00    1.10
   3  10   0   38.30    2.70
 -13   3   0   34.00    2.70
  10 -13   0   36.30    2.60
 -10  13   0   35.90    2.60
 -10  13   0   34.10    2.60
  -3 -10   0   36.90    2.70
 -10  13   0   31.90    2.70
  13  -3   0   37.10    2.80
   9 -13   0   23.30    2.00
 -13   4   0   21.00    2.10
   4   9   0   24.50    2.00
  -9  13   0   17.10    2.10
  -9  13   0   20.20    1.90
  -4  -9   0   16.30    1.90
  -9  13   0   18.60    1.90
  13  -4   0   20.80    2.10
   5   8   0   34.60    2.60
   8 -13   0   37.20    2.60
 -13   5   0   34.80    2.60
  -8  13   0   30.60    2.40
  -5  -8   0   28.40    2.50
  13  -5   0   35.00    2.70
  -8  13   0   34.90    2.60
   6   7   0   14.90    1.80
   7 -13   0   16.50    1.80
   7 -13   0   13.20    1.80
  -7  13   0   16.40    1.80
  13  -6   0   16.30    1.90
  -6  -7   0   10.40    1.70
  -7  13   0   14.30    1.60
   6 -13   0   12.10    1.70
 -13   7   0   14.30    1.70
   7   6   0   11.20    1.70
  -6  13   0   13.30    1.50
  -7  -6   0    8.80    1.50
  13  -7   0   11.50    1.80
 -13   8   0  362.06   19.80
   8   5   0  346.77   19.90
   5 -13   0  359.66   19.80
  -5  13   0  354.86   19.80
  13  -8   0  350.36   19.80
  -5  13   0  353.36   19.90
  13  -8   0  336.17   19.80
  -8  -5   0  337.37   19.90
   4 -13   0   74.19    4.70
 -13   9   0   84.29    4.70
   9   4   0   74.49    4.70
  -9  -4   0   74.49    4.70
  -4  13   0   80.79    4.60
  13  -9   0   65.19    4.70
  13  -9   0   62.59    4.50
  -4  13   0   79.29    4.70
  10   3   0  178.08   10.20
   3 -13   0  165.28   10.30
 -13  10   0  179.58   10.10
 -10  -3   0  154.08   10.10
  -3  13   0  188.08   10.10
  13 -10   0  173.18   10.10
  -3  13   0  174.68   10.10
  13 -10   0  177.58   10.00
   2 -13   0    2.80    1.10
 -13  11   0    1.60    1.20
  11   2   0    1.60    1.20
 -13  11   0    0.40    1.20
  13 -11   0    1.10    1.00
  -2  13   0   -0.60    1.10
  13 -11   0    1.00    1.20
 -11  -2   0    3.90    1.10
 -13  12   0   58.29    4.20
  12   1   0   56.59    3.90
 -13  12   0   57.89    3.80
   1 -13   0   59.39    3.80
  13 -12   0   65.19    4.00
  -1  13   0   59.29    3.80
 -12  -1   0   52.89    3.80
  13 -12   0   57.79    3.70
  -1  13   0   52.39    3.90
 -13  13   0   12.60    1.90
  13   0   0   10.00    1.70
 -13  13   0   12.50    2.10
   0 -13   0   12.70    1.80
   0  13   0   11.40    2.00
   0  13   0   10.30    1.70
 -13   0   0   11.50    1.70
  13 -13   0   13.50    1.70
 -14   1   0    2.20    1.20
  13 -14   0    2.60    1.10
   1  13   0    2.20    1.20
   1  13   0    3.40    1.30
 -13  14   0    2.00    1.20
 -13  14   0    2.10    1.30
  -1 -13   0    3.50    1.20
  14  -1   0   -0.50    1.30
 -13  14   0   -1.10    1.40
   2  12   0   52.59    3.60
  12 -14   0   55.79    3.50
 -14   2   0   50.79    3.60
   2  12   0   52.59    3.50
 -12  14   0   51.89    3.60
 -12  14   0   50.49    3.50
  -2 -12   0   49.10    3.50
  14  -2   0   52.19    3.70
 -12  14   0   51.79    3.60
   3  11   0   36.40    2.60
  11 -14   0   37.00    2.60
 -14   3   0   33.90    2.70
 -11  14   0   33.40    2.60
  -3 -11   0   30.20    2.70
 -11  14   0   32.70    2.60
  14  -3   0   35.90    2.80
 -11  14   0   31.00    2.70
   4  10   0  139.69    8.30
 -14   4   0  138.49    8.30
  10 -14   0  147.99    8.30
 -10  14   0  135.09    8.30
  -4 -10   0  136.59    8.30
  14  -4   0  148.19    8.40
 -10  14   0  137.99    8.30
 -10  14   0  144.19    8.20
   5   9   0   50.19    3.30
 -14   5   0   50.79    3.40
   9 -14   0   48.50    3.30
  -9  14   0   46.10    3.20
  14  -5   0   48.30    3.50
  -5  -9   0   49.10    3.30
  -9  14   0   44.60    3.40
  -9  14   0   49.30    3.30
   6   8   0  228.28   13.30
   8 -14   0  232.78   13.30
 -14   6   0  231.38   13.30
   8 -14   0  252.07   13.40
  -8  14   0  234.18   13.20
  -8  14   0  231.78   13.30
  14  -6   0  216.68   13.30
  -6  -8   0  228.18   13.30
  14  -6   0  231.58   13.40
   7 -14   0   37.50    3.20
 -14   7   0   49.60    3.10
   7   7   0   43.70    3.10
  -7  -7   0   44.10    3.10
  -7  14   0   43.30    3.10
  14  -7   0   37.80    3.20
  -7  14   0   45.90    3.00
   9   5   0   58.09    4.00
   5 -14   0   64.19    4.00
 -14   9   0   60.99    4.00
  -5  14   0   66.39    3.90
  -9  -5   0   56.69    4.00
  14  -9   0   61.09    4.10
  -5  14   0   56.89    4.00
  14  -9   0   61.19    3.90
 -14  10   0    6.90    1.50
   4 -14   0    7.00    1.30
  10   4   0    6.20    1.40
  14 -10   0    5.00    1.10
  -4  14   0    4.10    1.20
  14 -10   0    6.10    1.40
 -10  -4   0    9.10    1.70
  -4  14   0    9.00    1.60
   3 -14   0   53.89    3.80
 -14  11   0   59.99    3.80
  11   3   0   56.79    3.90
  -3  14   0   52.79    3.80
 -11  -3   0   50.99    3.80
  -3  14   0   59.89    3.70
  14 -11   0   59.39    3.70
  14 -11   0   56.69    3.90
  12   2   0    7.10    1.60
 -14  12   0   10.00    1.90
   2 -14   0   12.10    1.90
 -14  12   0   12.40    2.60
  -2  14   0   12.90    1.70
 -12  -2   0    9.90    1.60
  -2  14   0    9.00    1.50
  14 -12   0   11.50    2.20
  14 -12   0   12.60    1.70
 -14  13   0   29.00    2.70
   1 -14   0   25.50    2.30
  13   1   0   20.10    2.40
 -14  13   0   24.60    2.40
  14 -13   0   29.60    2.60
  -1  14   0   21.90    2.40
 -13  -1   0   19.80    2.10
  14 -13   0   25.70    2.20
  -1  14   0   24.30    2.20
 -14  14   0   13.70    2.40
  14   0   0   10.00    2.00
 -14  14   0   11.70    1.90
 -14  14   0   15.80    2.20
   0 -14   0   13.10    2.00
   0  14   0   15.10    1.90
 -14   0   0   13.10    1.90
   0  14   0   11.20    2.10
  14 -14   0   16.60    1.90
  14 -15   0   23.20    2.30
 -15   1   0   19.30    2.30
   1  14   0   20.20    2.40
   1  14   0   23.60    2.20
 -14  15   0   24.90    2.70
  15  -1   0   20.60    2.40
  -1 -14   0   23.40    2.40
 -14  15   0   21.60    2.20
 -14  15   0   24.40    2.60
   2  13   0    4.20    1.40
 -15   2   0    4.00    1.40
  13 -15   0    3.60    1.20
   2  13   0    3.00    1.20
  -2 -13   0    2.10    1.30
 -13  15   0    2.10    1.30
 -13  15   0    3.30    1.30
 -13  15   0    3.30    1.40
  15  -2   0    2.90    1.50
   3  12   0   10.90    1.80
   3  12   0   13.10    1.80
  12 -15   0   16.40    1.80
 -15   3   0   11.60    1.90
 -12  15   0    9.90    1.70
 -12  15   0   11.40    1.80
  -3 -12   0    9.00    1.80
 -12  15   0   10.10    1.90
  15  -3   0   12.30    1.80
   4  11   0    1.70    1.20
  11 -15   0    0.80    1.10
 -15   4   0    2.50    1.30
  15  -4   0    1.70    1.30
 -11  15   0    0.60    1.00
  -4 -11   0   -0.30    1.20
 -11  15   0    1.50    1.30
 -11  15   0   -0.50    1.10
  10 -15   0   16.40    1.90
   5  10   0   15.90    1.90
 -15   5   0   17.10    2.00
 -10  15   0   14.30    1.80
 -10  15   0   13.80    2.10
  -5 -10   0    9.80    1.80
  15  -5   0   14.00    2.00
 -10  15   0   12.60    1.80
   9 -15   0    5.50    1.20
 -15   6   0    5.90    1.40
   6   9   0    5.60    1.40
  -6  -9   0    4.00    1.20
  15  -6   0    6.10    1.50
  -9  15   0    5.00    1.20
  -9  15   0    5.20    1.20
 -15   7   0   15.70    1.90
   7   8   0   13.40    1.80
   8 -15   0   18.00    2.10
  15  -7   0   13.90    1.90
  -8  15   0   15.20    1.70
  15  -7   0   13.90    2.10
  -8  15   0   15.10    1.90
  -7  -8   0    9.70    1.70
   7 -15   0    7.40    1.50
 -15   8   0    7.50    1.50
   8   7   0    5.80    1.40
  15  -8   0    3.60    1.10
  -7  15   0    9.00    1.60
  -7  15   0    5.50    1.30
  15  -8   0    5.60    1.50
   9   6   0   10.60    1.80
 -15   9   0   12.20    2.10
  15  -9   0   10.20    1.60
  15  -9   0   10.70    1.70
  -6  15   0    8.70    1.40
  -9  -6   0   10.60    1.80
  -6  15   0   10.70    1.70
   5 -15   0   67.49    4.30
 -15  10   0   59.99    4.40
  10   5   0   68.29    4.30
  15 -10   0   67.39    4.40
 -10  -5   0   55.19    4.30
  15 -10   0   68.29    4.20
  -5  15   0   61.59    4.20
  -5  15   0   67.99    4.20
 -15  11   0    2.20    2.50
  11   4   0    1.50    1.30
   4 -15   0    2.90    1.40
 -11  -4   0    5.10    1.30
  -4  15   0    2.90    1.20
  15 -11   0    1.70    1.50
  15 -11   0    2.70    1.10
  12   3   0   13.40    2.10
   3 -15   0   17.30    2.20
 -15  12   0   21.20    2.40
  15 -12   0   19.30    2.30
  -3  15   0   18.90    2.00
  15 -12   0   18.60    2.00
  -3  15   0   13.90    2.00
 -12  -3   0   17.10    1.90
  13   2   0   38.20    3.20
 -15  13   0   48.70    3.50
 -15  13   0   41.00    3.30
   2 -15   0   42.90    3.20
  -2  15   0   39.20    3.20
 -13  -2   0   36.80    3.00
  15 -13   0   49.99    3.40
  15 -13   0   40.20    3.00
  -2  15   0   43.00    3.10
   1 -15   0    1.50    1.40
 -15  14   0    0.20    1.50
  14   1   0   -0.30    1.30
 -15  14   0    1.00    1.60
  -1  15   0    0.60    1.20
  -1  15   0    0.80    1.30
  15 -14   0    1.10    1.60
  15 -14   0    1.10    1.20
 -14  -1   0    1.10    1.20
  15   0   0  110.79    7.10
 -15  15   0  127.49    7.20
   0 -15   0  112.49    7.10
 -15  15   0  115.99    7.00
 -15  15   0  114.29    6.90
   0  15   0  109.09    7.00
   0  15   0  112.09    6.90
  15 -15   0  123.09    6.90
 -15   0   0   98.59    6.90
   1  15   0    6.40    1.50
 -16   1   0    4.40    1.50
   1  15   0    1.30    1.40
  15 -16   0    3.30    1.30
 -15  16   0    0.30    1.60
 -15  16   0    4.70    1.80
 -15  16   0    2.40    1.40
  -1 -15   0    2.30    1.60
  16  -1   0    0.90    1.50
 -16   2   0   14.10    2.00
  14 -16   0   15.50    2.10
   2  14   0   17.70    2.00
   2  14   0   15.40    2.10
  16  -2   0   12.70    2.30
  -2 -14   0   12.70    2.10
 -14  16   0   14.20    2.10
 -14  16   0    9.20    2.00
 -14  16   0   18.40    2.60
  13 -16   0   20.00    2.10
   3  13   0   19.60    2.20
   3  13   0   16.00    2.10
 -16   3   0   19.70    2.20
 -13  16   0   16.40    2.10
  16  -3   0   15.00    2.30
  -3 -13   0   16.40    2.10
 -13  16   0   14.00    2.40
 -13  16   0   16.60    2.40
   4  12   0   51.89    3.70
  12 -16   0   57.39    3.70
 -16   4   0   52.79    3.80
 -12  16   0   54.29    3.90
 -12  16   0   51.59    3.80
  16  -4   0   57.29    3.90
  -4 -12   0   51.49    3.70
 -12  16   0   53.29    3.70
  11 -16   0   34.70    2.70
 -16   5   0   34.70    2.80
   5  11   0   32.20    2.70
 -11  16   0   29.90    2.90
  -5 -11   0   25.80    2.70
 -11  16   0   31.20    2.60
  16  -5   0   38.90    2.90
 -11  16   0   30.90    2.60
  10 -16   0   62.29    4.00
   6  10   0   58.69    4.00
 -16   6   0   59.19    4.10
 -10  16   0   59.59    4.00
 -10  16   0   61.09    4.20
  16  -6   0   64.09    4.20
  -6 -10   0   53.69    4.00
 -10  16   0   60.79    3.90
 -16   7   0    6.50    1.60
   7   9   0   11.80    1.80
  16  -7   0    7.00    1.60
  -9  16   0    8.90    1.70
  16  -7   0    4.10    1.30
  -9  16   0   10.80    1.60
  -7  -9   0    6.20    1.30
 -16   8   0   11.70    2.00
   8   8   0    7.30    1.50
   8 -16   0    7.20    2.10
  16  -8   0   10.40    2.00
  -8  16   0   11.10    1.70
  16  -8   0    5.00    1.30
  -8  -8   0    5.30    1.40
  -8  16   0    9.70    1.70
   7 -16   0   56.09    4.00
 -16   9   0   57.49    4.00
   9   7   0   49.99    3.80
  -9  -7   0   48.10    3.80
  16  -9   0   56.89    3.90
  -7  16   0   61.19    3.70
  -7  16   0   57.59    3.90
  16  -9   0   55.19    3.70
  10   6   0   23.30    2.30
   6 -16   0   20.60    2.50
 -16  10   0   25.40    2.60
  -6  16   0   21.20    2.20
  16 -10   0   22.20    2.10
  -6  16   0   25.30    2.20
  16 -10   0   24.20    2.50
 -10  -6   0   16.30    2.30
   5 -16   0    5.90    1.70
  11   5   0   11.20    1.80
 -16  11   0    7.80    1.80
  -5  16   0    9.20    1.80
  16 -11   0    9.70    1.70
  16 -11   0    9.00    1.80
 -11  -5   0    6.20    1.50
 -16  12   0   20.50    2.50
  12   4   0   19.50    2.30
   4 -16   0   22.70    2.60
  16 -12   0   24.00    2.20
 -12  -4   0   20.10    2.20
  16 -12   0   21.60    2.60
  -4  16   0   19.60    2.20
  13   3   0    2.90    1.50
 -16  13   0    6.30    1.80
   3 -16   0    8.10    1.70
  16 -13   0    6.80    1.70
 -13  -3   0    6.40    1.40
  -3  16   0    4.90    1.30
  -3  16   0    6.40    1.50
  16 -13   0    9.80    1.80
 -16  14   0   13.60    2.20
 -16  14   0   10.30    2.40
   2 -16   0   13.80    2.40
  14   2   0   11.50    2.10
 -14  -2   0   10.70    1.90
  -2  16   0   10.20    2.00
  16 -14   0   15.20    2.00
  16 -14   0   17.30    2.60
  -2  16   0   13.60    2.10
 -16  15   0   22.10    4.40
 -16  15   0   35.80    3.40
   1 -16   0   32.40    3.10
  15   1   0   24.50    2.80
 -15  -1   0   27.30    2.70
  -1  16   0   28.00    2.60
  16 -15   0   31.70    2.60
  -1  16   0   25.30    2.80
 -16  16   0   51.59    4.00
 -16  16   0   46.50    3.50
 -16  16   0   44.80    5.10
  16   0   0   43.80    3.60
   0 -16   0   46.80    3.90
 -16   0   0   40.30    3.50
   0  16   0   41.40    3.60
   0  16   0   45.90    3.50
  16 -16   0   50.09    3.40
  16 -17   0   62.29    4.00
   1  16   0   55.99    4.10
 -17   1   0   48.20    4.10
   1  16   0   52.19    4.20
  17  -1   0   58.49    4.30
 -16  17   0   60.29    4.10
  -1 -16   0   59.49    4.50
 -16  17   0   65.29    4.70
 -16  17   0   56.19    4.40
 -17   2   0   11.30    2.00
   2  15   0   11.90    2.30
  15 -17   0   17.00    2.20
   2  15   0   16.00    2.20
  17  -2   0   13.50    2.20
 -15  17   0   12.00    1.90
 -15  17   0   11.40    3.10
 -15  17   0   15.40    2.90
  -2 -15   0   15.30    2.40
 -17   3   0    8.40    1.70
   3  14   0    7.80    1.60
  14 -17   0   11.90    2.00
   3  14   0   11.20    2.00
 -14  17   0    9.00    1.60
 -14  17   0    8.90    1.90
  17  -3   0    8.90    1.90
 -14  17   0    9.10    1.90
  -3 -14   0    7.60    1.70
  13 -17   0    1.50    1.30
   4  13   0    0.10    1.20
   4  13   0    2.10    1.30
 -17   4   0    2.00    1.50
  17  -4   0    1.30    1.60
 -13  17   0    1.60    1.50
  -4 -13   0    0.10    1.40
 -13  17   0    1.90    1.60
 -13  17   0   -0.90    1.30
  12 -17   0    5.00    1.40
   5  12   0    2.70    1.40
 -17   5   0    6.40    1.60
  17  -5   0    2.30    1.50
  -5 -12   0    3.10    1.50
 -12  17   0   -0.10    1.30
 -12  17   0    2.80    1.40
 -12  17   0    1.60    1.60
  11 -17   0   24.30    2.40
   6  11   0   22.60    2.40
 -17   6   0   27.90    2.80
  17  -6   0   31.10    2.80
 -11  17   0   27.60    2.80
 -11  17   0   26.90    2.40
 -11  17   0   23.10    2.40
  -6 -11   0   21.10    2.50
 -17   7   0   17.20    2.40
   7  10   0   15.40    2.00
  17  -7   0   16.20    2.30
 -10  17   0   14.70    2.20
 -10  17   0   12.10    2.00
 -10  17   0   16.20    1.90
  -7 -10   0    9.60    1.90
 -17   8   0   41.00    3.40
   9 -17   0   45.00    3.50
   8   9   0   34.30    3.00
  17  -8   0   32.80    3.10
  17  -8   0   41.80    3.30
  -9  17   0   38.50    3.10
  -9  17   0   42.40    3.00
   9   8   0    6.20    1.50
   8 -17   0    4.70    1.80
 -17   9   0    5.40    1.80
  -8  17   0    3.80    1.20
  -9  -8   0    5.00    1.40
  17  -9   0    6.30    1.60
  -8  17   0    9.70    1.80
   7 -17   0   25.60    2.70
 -17  10   0   26.60    2.80
  10   7   0   21.40    2.30
 -10  -7   0   17.90    2.30
  -7  17   0   15.70    2.50
  17 -10   0   24.50    2.60
  -7  17   0   22.70    2.30
  17 -10   0   19.30    2.30
 -17  11   0    0.80    1.80
   6 -17   0    1.90    1.60
  11   6   0    2.20    1.40
  17 -11   0    3.40    1.60
  17 -11   0    1.20    1.20
  -6  17   0    2.00    1.40
 -11  -6   0    1.60    1.40
  -6  17   0    1.30    1.30
 -17  12   0    8.40    1.90
   5 -17   0    7.80    1.90
  12   5   0    5.40    1.60
  17 -12   0    5.60    1.90
  -5  17   0    6.60    1.50
  17 -12   0    7.10    1.40
 -12  -5   0    6.30    1.60
 -17  13   0   16.70    2.70
   4 -17   0   21.90    2.90
  13   4   0   17.10    2.30
  17 -13   0   19.70    2.60
  17 -13   0   21.60    2.20
  -4  17   0   20.20    2.30
 -13  -4   0   19.50    2.30
   3 -17   0    8.50    2.10
  14   3   0    2.10    1.60
 -17  14   0    5.40    2.00
  -3  17   0    2.60    1.40
 -14  -3   0    7.90    1.60
  -3  17   0    5.10    1.50
  17 -14   0    5.00    1.90
  17 -14   0    6.70    1.40
  15   2   0   68.79    5.20
   2 -17   0   79.39    5.40
 -17  15   0   74.59    5.20
 -17  15   0   92.89    5.70
  17 -15   0   77.09    5.00
  -2  17   0   76.99    5.20
  17 -15   0   90.29    5.50
  -2  17   0   71.39    5.00
 -15  -2   0   66.29    5.00
 -17  16   0    2.30    1.60
 -17  16   0    2.20    1.90
 -17  16   0    3.60    2.00
   1 -17   0    5.30    2.20
  16   1   0    0.70    1.70
 -16  -1   0    7.00    1.80
  -1  17   0    2.30    1.70
  17 -16   0    4.90    1.40
  -1  17   0    2.20    1.70
 -17  17   0  178.28   10.30
   0 -17   0  178.58   10.70
 -17  17   0  181.08   10.40
  17   0   0  172.28   10.60
  17 -17   0  186.18   10.30
   0  17   0  160.38   10.40
   0  17   0  166.88   10.50
   1  17   0   36.60    3.30
  17 -18   0   43.50    3.30
 -18   1   0   30.20    3.30
   1  17   0   36.10    3.30
 -17  18   0   48.70    4.20
 -17  18   0   41.20    3.60
 -17  18   0   43.30    3.40
  18  -1   0   36.40    3.70
  -1 -17   0   38.10    4.10
 -18   2   0   46.80    4.00
   2  16   0   54.89    4.00
   2  16   0   48.40    3.90
  16 -18   0   59.19    3.90
  -2 -16   0   56.69    4.40
  18  -2   0   50.49    4.20
 -16  18   0   59.39    4.00
 -16  18   0   45.00    4.20
   3  15   0   37.30    3.00
 -18   3   0   27.70    3.10
  15 -18   0   37.80    3.10
   3  15   0   33.60    3.10
 -15  18   0   29.50    4.10
 -15  18   0   36.20    3.70
  18  -3   0   34.70    3.30
 -15  18   0   34.40    3.10
  -3 -15   0   31.10    3.20
   4  14   0   21.00    2.60
   4  14   0   21.10    2.50
  14 -18   0   23.80    2.60
 -18   4   0   21.50    2.80
  18  -4   0   25.80    2.90
 -14  18   0   19.50    2.50
  -4 -14   0   19.50    2.60
 -14  18   0   23.30    3.00
  13 -18   0   30.80    2.70
   5  13   0   24.80    2.60
   5  13   0   23.90    2.70
 -18   5   0   28.10    3.00
  18  -5   0   30.50    3.00
  -5 -13   0   19.70    2.70
 -13  18   0   29.90    3.10
 -13  18   0   24.60    2.60
 -18   6   0   11.30    2.10
  12 -18   0   10.50    2.10
   6  12   0    9.40    1.70
  18  -6   0   13.90    2.40
 -12  18   0    8.60    1.80
  -6 -12   0    8.30    1.90
 -12  18   0    8.10    1.60
 -18   7   0    2.40    2.00
   7  11   0    2.40    1.30
 -11  18   0    0.40    1.70
 -11  18   0    1.00    1.30
  18  -7   0    0.70    1.70
  18  -7   0   -1.00    1.40
 -11  18   0   -1.30    1.30
  -7 -11   0   -3.50    1.40
   8  10   0    0.70    1.40
 -18   8   0    3.40    2.10
  18  -8   0    0.60    1.70
 -10  18   0    0.40    1.40
 -10  18   0    0.90    1.30
  -8 -10   0   -2.10    1.20
  18  -8   0    0.50    1.30
 -18   9   0   64.79    5.00
   9 -18   0   76.59    5.00
   9   9   0   63.49    4.70
  -9  18   0   69.79    4.80
  18  -9   0   75.29    4.90
  -9  18   0   72.79    4.60
  18  -9   0   71.49    4.60
 -18  10   0   21.30    2.80
   8 -18   0   14.60    2.80
  10   8   0   17.20    2.20
  -8  18   0   17.70    2.30
  18 -10   0   16.70    2.20
  -8  18   0   16.30    2.30
 -10  -8   0   18.20    2.20
  18 -10   0   13.80    2.50
  11   7   0   98.59    6.70
   7 -18   0  113.39    6.90
 -18  11   0  110.89    6.90
  18 -11   0  114.99    6.90
  -7  18   0  102.09    6.80
  18 -11   0  108.09    6.50
  -7  18   0  104.39    6.60
 -18  12   0   20.00    3.00
   6 -18   0   13.50    2.50
  12   6   0   16.50    2.40
  -6  18   0   20.70    2.60
  18 -12   0   16.20    2.20
  18 -12   0   19.60    2.80
 -12  -6   0   19.50    2.40
  -6  18   0   19.90    2.30
  13   5   0   40.70    3.40
 -18  13   0   47.50    3.80
   5 -18   0   48.90    3.90
 -13  -5   0   36.80    3.40
  -5  18   0   35.00    3.40
  18 -13   0   42.60    3.20
  18 -13   0   43.70    3.70
  -5  18   0   43.80    3.40
  14   4   0   18.80    2.60
   4 -18   0   28.50    3.40
 -18  14   0   23.30    3.10
 -14  -4   0   21.30    2.50
  -4  18   0   25.10    2.60
  18 -14   0   25.80    2.50
  18 -14   0   31.50    3.20
  15   3   0    7.30    1.90
 -18  15   0    9.30    2.30
   3 -18   0    9.00    2.60
  18 -15   0   12.20    2.30
  -3  18   0    9.00    1.80
  -3  18   0    5.20    1.60
 -15  -3   0   14.70    2.10
  18 -15   0    8.20    1.60
  16   2   0   57.79    4.60
 -18  16   0   62.39    4.70
 -18  16   0   74.29    5.20
   2 -18   0   70.19    5.10
  -2  18   0   60.69    4.60
  18 -16   0   65.69    4.30
  -2  18   0   60.99    4.40
 -16  -2   0   51.59    4.40
   1 -18   0   16.90    2.90
  17   1   0   11.00    2.20
 -18  17   0   14.90    2.70
 -18  17   0   12.80    2.40
 -18  17   0   13.20    2.40
  18 -17   0   14.70    2.40
  -1  18   0   13.30    2.40
 -17  -1   0   13.20    2.30
  -1  18   0   15.10    2.70
 -18  18   0    6.30    2.30
   0 -18   0   12.90    2.90
  18   0   0   14.10    2.30
 -18  18   0   12.50    2.60
 -18  18   0   10.30    1.90
   0  18   0    7.70    1.90
  18 -18   0    9.70    1.80
 -18   0   0    5.40    2.00
  18 -19   0   16.50    2.50
   1  18   0   13.50    2.60
 -19   1   0    8.00    2.30
 -18  19   0   12.70    2.20
 -18  19   0   14.90    2.50
  -1 -18   0   14.10    3.10
  19  -1   0   13.80    2.50
 -18  19   0   16.00    2.80
  17 -19   0   15.10    2.40
 -19   2   0    8.90    2.10
   2  17   0   11.10    2.20
 -17  19   0   11.20    2.00
 -17  19   0   12.50    2.40
  -2 -17   0   11.10    2.80
  19  -2   0    8.50    2.30
 -17  19   0   10.80    2.70
   3  16   0    5.20    1.80
 -19   3   0    7.30    2.10
  16 -19   0   11.90    2.30
   3  16   0    9.30    1.90
 -16  19   0    4.90    2.20
  19  -3   0   10.90    2.20
 -16  19   0    7.50    2.30
  -3 -16   0   11.50    2.50
 -16  19   0   10.80    1.90
 -19   4   0   21.30    3.00
   4  15   0   18.10    2.60
   4  15   0   18.20    2.70
  15 -19   0   22.30    2.60
 -15  19   0   19.30    2.60
  -4 -15   0   13.70    2.70
 -15  19   0   19.60    2.50
 -15  19   0   19.10    3.30
  19  -4   0   25.20    3.10
   5  14   0   65.89    4.60
   5  14   0   61.49    4.40
 -19   5   0   64.19    4.80
  14 -19   0   65.69    4.40
 -14  19   0   54.79    4.60
 -14  19   0   58.59    4.30
  -5 -14   0   57.79    4.60
  19  -5   0   70.39    4.80
 -14  19   0   69.29    4.90
  13 -19   0   40.90    3.30
 -19   6   0   40.70    3.80
   6  13   0   31.80    3.20
 -13  19   0   40.00    3.50
  -6 -13   0   35.30    3.40
 -13  19   0   37.30    3.20
 -13  19   0   38.00    3.70
  19  -6   0   47.40    3.70
   7  12   0   33.30    3.00
 -19   7   0   38.90    3.70
 -12  19   0   30.70    3.30
 -12  19   0   36.20    3.00
 -12  19   0   37.80    3.40
  -7 -12   0   33.40    3.30
  19  -7   0   35.60    3.40
  19  -7   0   30.90    3.20
   8  11   0   24.20    2.60
 -19   8   0   23.70    3.20
 -11  19   0   26.80    3.10
  19  -8   0   26.00    3.10
  19  -8   0   22.70    2.70
 -11  19   0   26.10    2.80
  -8 -11   0   16.00    2.60
 -11  19   0   26.60    2.50
   9  10   0    2.20    1.50
 -19   9   0    2.60    2.10
 -10  19   0    4.30    1.50
 -10  19   0    1.80    1.50
  -9 -10   0    0.00    1.40
  19  -9   0   -0.30    1.80
  19  -9   0    2.00    1.40
 -19  10   0   13.80    2.50
   9 -19   0   14.10    2.40
  10   9   0   15.20    2.20
  19 -10   0   13.20    2.20
 -10  -9   0   10.10    1.70
  -9  19   0   10.20    2.00
  19 -10   0   16.60    2.60
  -9  19   0   14.40    2.30
 -19  11   0   16.50    2.60
  11   8   0   13.80    2.30
   8 -19   0   14.80    2.40
  19 -11   0   11.00    1.70
  19 -11   0   14.10    2.70
  -8  19   0   11.70    1.90
 -11  -8   0   12.00    2.30
  -8  19   0   12.70    2.30
   7 -19   0   27.70    3.40
  12   7   0   24.40    2.60
 -19  12   0   25.90    3.30
 -12  -7   0   16.20    2.70
  19 -12   0   24.50    2.50
  19 -12   0   26.80    3.20
  -7  19   0   18.70    2.90
  -7  19   0   23.10    2.60
   6 -19   0   -0.70    2.10
 -19  13   0    1.40    2.20
  13   6   0    4.40    1.70
 -13  -6   0    2.80    1.70
  -6  19   0   -0.20    1.60
  19 -13   0    0.70    2.00
  -6  19   0    1.40    1.60
  19 -13   0    0.40    1.40
 -19  14   0   31.10    3.70
   5 -19   0   37.80    3.80
  14   5   0   25.00    2.90
 -14  -5   0   25.90    2.90
  19 -14   0   31.90    3.40
  19 -14   0   32.10    2.80
  -5  19   0   30.20    2.90
 -19  15   0   16.20    2.70
  15   4   0   16.70    2.50
   4 -19   0   20.40    3.50
  19 -15   0   21.20    3.30
 -15  -4   0   17.40    2.40
  -4  19   0   22.50    2.60
  -4  19   0   10.70    1.80
  19 -15   0   15.00    2.40
 -19  16   0    9.50    2.40
  16   3   0    7.20    2.00
   3 -19   0   11.20    2.90
  19 -16   0   13.20    2.50
  19 -16   0    9.50    1.70
  -3  19   0    9.20    1.90
  -3  19   0    6.70    1.70
 -16  -3   0    8.30    1.80
 -19  17   0   17.50    2.70
   2 -19   0   16.70    3.10
 -19  17   0   13.50    2.90
  17   2   0    9.90    2.30
 -17  -2   0   15.80    2.90
  19 -17   0   12.20    2.40
  -2  19   0   11.90    2.20
  18   1   0   15.10    3.00
 -19  18   0   18.70    3.30
   1 -19   0   21.10    3.90
 -19  18   0   25.20    4.10
 -19  18   0   24.80    2.80
  19 -18   0   20.00    2.70
  -1  19   0   18.30    2.70
 -19  19   0   25.10    2.90
   0 -19   0   24.30    4.40
 -19  19   0   17.50    3.40
 -19  19   0   27.00    4.30
   0  19   0   20.20    2.90
  19 -19   0   22.70    2.80
  19 -20   0  108.09    6.90
   1  19   0   95.19    7.00
 -19  20   0  122.29    7.00
  -1 -19   0  108.69    7.90
 -19  20   0  123.39    7.90
  20  -1   0  108.69    7.20
 -19  20   0   97.19    7.20
   2  18   0   16.50    2.80
  18 -20   0   21.30    2.90
  -2 -18   0   19.70    3.40
  20  -2   0   19.50    3.30
 -18  20   0   20.70    2.90
 -18  20   0   18.90    3.40
 -18  20   0   22.20    4.20
 -20   3   0    9.20    2.60
   3  17   0   13.10    2.30
  17 -20   0   14.10    2.60
  -3 -17   0   12.00    3.00
  20  -3   0   14.50    2.50
 -17  20   0   13.90    2.70
 -17  20   0   14.30    3.00
 -17  20   0   12.60    2.10
 -20   4   0   -0.60    2.20
  16 -20   0    2.70    1.70
   4  16   0    0.70    1.70
 -16  20   0    0.30    2.40
  20  -4   0    1.50    2.20
  -4 -16   0    0.60    2.10
 -16  20   0   -0.60    1.70
 -16  20   0    1.30    2.10
   5  15   0   12.20    2.20
 -20   5   0   11.70    2.70
   5  15   0   15.90    2.30
  15 -20   0   13.50    2.50
 -15  20   0   15.90    2.70
  -5 -15   0   15.70    2.40
 -15  20   0   16.30    2.50
  20  -5   0   17.10    3.10
 -15  20   0   12.80    2.40
 -20   6   0    3.00    2.50
   6  14   0    1.10    1.60
   6  14   0    0.80    1.60
 -14  20   0    1.90    2.10
  -6 -14   0   -1.40    1.80
 -14  20   0    1.50    1.60
 -14  20   0    2.80    2.20
  20  -6   0    1.20    2.20
   7  13   0   -0.70    1.50
 -20   7   0    4.20    2.50
 -13  20   0    1.50    2.00
 -13  20   0    2.10    1.60
  -7 -13   0    0.70    1.90
  20  -7   0    1.10    2.00
  20  -7   0    0.40    1.60
 -13  20   0    0.10    2.00
 -20   8   0   11.40    2.60
   8  12   0    8.90    2.00
  20  -8   0   10.30    1.90
 -12  20   0    9.10    2.20
 -12  20   0    8.90    2.30
 -12  20   0   13.20    2.20
  20  -8   0    9.70    2.40
  -8 -12   0    9.00    2.20
   9  11   0   15.70    2.50
 -20   9   0   17.10    3.30
  -9 -11   0   11.40    2.20
 -11  20   0   15.90    2.70
  20  -9   0   12.70    2.50
  20  -9   0   16.10    2.90
 -11  20   0   18.50    3.10
 -11  20   0   17.40    2.40
  10 -20   0   19.90    3.50
 -20  10   0   22.50    3.40
  10  10   0   19.90    2.60
 -10  20   0   24.10    2.60
 -10  20   0   24.50    2.90
  20 -10   0   22.10    3.10
  20 -10   0   17.30    2.60
 -10 -10   0   17.50    2.40
  11   9   0  111.29    7.40
 -20  11   0  119.09    7.70
   9 -20   0  135.69    7.90
  20 -11   0  122.59    7.30
  20 -11   0  126.79    7.70
  -9  20   0  119.39    7.60
  -9  20   0  122.69    7.40
 -11  -9   0  101.69    7.40
  12   8   0   34.00    3.20
   8 -20   0   36.90    4.00
 -20  12   0   44.70    3.90
  -8  20   0   35.10    3.20
  20 -12   0   39.00    3.80
  -8  20   0   33.70    3.40
 -12  -8   0   38.30    3.40
  20 -12   0   29.10    3.10
   7 -20   0  111.69    6.70
  13   7   0   88.29    6.20
 -20  13   0   99.19    6.50
 -13  -7   0   75.89    6.20
  20 -13   0   95.89    6.00
  -7  20   0   98.69    6.10
  -7  20   0   85.39    6.40
  20 -13   0  105.09    6.50
  14   6   0    7.60    1.80
   6 -20   0    7.00    2.60
 -20  14   0   10.50    2.50
 -14  -6   0    8.90    2.20
  -6  20   0    8.60    2.00
  20 -14   0    5.60    2.40
  20 -14   0    4.80    1.70
   5 -20   0   19.90    3.70
  15   5   0   17.00    2.60
 -20  15   0   17.70    3.00
  20 -15   0   22.70    3.30
  -5  20   0   19.20    2.70
  20 -15   0   15.50    2.50
   4 -20   0    4.30    2.70
 -20  16   0    6.90    2.50
  20 -16   0    4.30    2.60
  20 -16   0    3.90    1.70
  -4  20   0    3.50    1.90
   3 -20   0    4.60    3.00
 -20  17   0   -0.50    2.40
  17   3   0   -3.50    2.10
  -3  20   0    1.60    1.90
  20 -17   0    2.30    1.60
  20 -17   0    5.20    2.60
   2 -20   0   19.90    3.40
 -20  18   0   12.10    2.10
  18   2   0    7.90    2.20
 -20  18   0   13.00    2.90
  20 -18   0   10.50    1.90
  -2  20   0   13.80    2.30
   1 -20   0   18.70    3.60
 -20  19   0   17.30    2.90
 -20  19   0   19.00    3.30
  19   1   0   14.80    2.50
 -20  19   0   18.20    3.10
  20 -19   0   14.50    2.60
  -1  20   0   14.90    2.80
 -20  20   0   31.70    4.90
  20   0   0   26.80    3.40
 -20  20   0   31.30    3.30
 -20  20   0   24.10    3.50
   0 -20   0   26.80    4.80
   0  20   0   28.00    3.30
  20 -20   0   29.80    3.20
  20 -21   0   37.20    3.60
  21  -1   0   32.20    4.00
 -20  21   0   46.50    3.70
 -20  21   0   42.30    5.30
 -20  21   0   29.70    4.40
  19 -21   0    5.20    1.90
   2  19   0    5.30    2.70
 -19  21   0    3.60    2.10
 -19  21   0    0.70    2.70
 -19  21   0    5.20    2.90
  21  -2   0    1.50    2.30
  18 -21   0    5.10    1.90
   3  18   0    7.70    2.20
 -18  21   0   -1.10    2.60
 -18  21   0    1.80    2.90
 -18  21   0    3.10    2.00
  21  -3   0    5.40    3.10
  17 -21   0    4.60    1.80
   4  17   0    1.50    2.00
 -21   4   0   -1.20    3.10
 -17  21   0    3.40    2.60
  21  -4   0    3.30    2.30
 -17  21   0   -1.20    2.40
 -17  21   0    3.30    1.90
  16 -21   0   38.70    3.50
 -21   5   0   34.30    4.20
   5  16   0   34.90    3.40
 -16  21   0   41.60    3.40
 -16  21   0   44.60    4.60
 -16  21   0   41.90    4.10
  21  -5   0   47.40    4.20
   6  15   0   23.10    2.90
 -21   6   0   32.80    4.00
 -15  21   0   26.50    3.50
 -15  21   0   22.90    2.80
 -15  21   0   32.50    4.00
  21  -6   0   31.00    3.60
   7  14   0   55.69    4.70
   7  14   0   60.79    5.40
 -21   7   0   60.29    5.40
  21  -7   0   71.49    4.90
  21  -7   0   74.79    5.20
 -14  21   0   77.59    5.20
 -14  21   0   71.59    4.60
 -14  21   0   67.49    5.50
   8  13   0   27.30    3.00
 -21   8   0   36.20    4.00
  21  -8   0   30.80    3.30
 -13  21   0   31.10    3.80
  21  -8   0   31.50    3.70
 -13  21   0   27.60    3.60
 -13  21   0   32.10    3.00
 -21   9   0   60.09    5.10
   9  12   0   54.69    4.30
  21  -9   0   63.99    4.40
  21  -9   0   59.79    4.80
 -12  21   0   58.69    4.30
 -12  21   0   61.29    4.90
 -12  21   0   56.69    4.90
 -21  10   0   11.40    2.70
  10  11   0   10.40    2.10
 -11  21   0   12.10    1.90
  21 -10   0    8.50    1.80
 -11  21   0   10.30    2.50
 -11  21   0    9.60    2.30
  21 -10   0   15.80    3.00
  11  10   0    6.30    2.00
  10 -21   0    4.80    2.50
 -21  11   0    5.70    2.60
  21 -11   0    4.80    1.70
 -10  21   0    7.40    1.90
  21 -11   0    4.90    2.30
 -10  21   0    0.90    1.90
 -21  12   0    1.60    2.60
   9 -21   0    2.90    2.70
  21 -12   0    5.80    2.40
  -9  21   0    3.90    1.90
  -9  21   0   -3.60    1.70
  21 -12   0    1.20    1.60
 -21  13   0   19.00    3.00
   8 -21   0   21.30    4.10
  21 -13   0   23.40    3.50
  -8  21   0   17.90    2.70
  -8  21   0   14.40    2.80
  21 -13   0   19.80    2.70
   7 -21   0   23.30    4.00
  14   7   0   14.20    2.60
 -21  14   0   18.20    3.60
  21 -14   0   17.60    2.60
  -7  21   0   19.50    2.80
  21 -14   0   21.60    3.40
  15   6   0    0.00    1.80
   6 -21   0   -0.40    2.70
 -21  15   0    4.20    2.70
  -6  21   0    3.80    1.90
  21 -15   0    0.50    2.40
  21 -15   0    3.10    1.60
   5 -21   0   32.60    4.40
  16   5   0   25.00    2.90
 -21  16   0   21.20    3.90
  21 -16   0   33.50    4.00
  21 -16   0   25.60    3.00
  -5  21   0   25.80    3.10
   4 -21   0    2.10    3.20
 -21  17   0    3.80    2.80
  17   4   0    2.50    1.90
  21 -17   0    2.60    1.70
  -4  21   0    2.60    1.90
  21 -17   0    3.80    2.70
 -21  18   0   20.10    3.80
   3 -21   0   31.00    4.70
  18   3   0   15.30    2.70
  21 -18   0   20.00    2.70
  -3  21   0   14.90    3.00
 -21  19   0    7.60    2.90
  19   2   0    4.40    2.20
 -21  19   0    5.10    2.10
   2 -21   0    7.10    3.80
  -2  21   0    8.60    2.10
  21 -19   0    2.90    1.80
   1 -21   0   31.30    5.20
 -21  20   0   24.00    3.60
  20   1   0   17.90    3.10
 -21  20   0   22.80    3.90
 -21  20   0   29.50    3.30
  -1  21   0   22.20    3.20
  21 -20   0   21.00    3.10
 -21  21   0    3.00    3.50
  21   0   0    1.00    2.30
 -21  21   0   -1.00    3.10
 -21  21   0    1.20    2.20
  21 -21   0    3.20    2.00
   1  21   0   81.79    6.40
  21 -22   0   94.39    6.30
 -21  22   0  112.19    7.90
  22  -1   0   98.79    6.80
 -21  22   0   83.59    7.00
   2  20   0   17.30    3.20
  20 -22   0   12.10    2.30
 -20  22   0   12.90    2.50
 -20  22   0   14.30    3.80
  22  -2   0   12.20    2.70
 -20  22   0    7.60    3.20
   3  19   0   25.00    3.30
  19 -22   0   26.50    3.30
 -19  22   0   26.20    4.20
 -19  22   0   25.10    3.30
 -19  22   0   33.20    5.10
  22  -3   0   31.00    3.90
  18 -22   0    3.60    1.90
   4  18   0    4.10    2.00
 -18  22   0    0.70    1.90
 -18  22   0    2.80    2.80
  22  -4   0    2.20    2.50
 -18  22   0    3.40    3.10
   5  17   0    7.10    2.10
 -17  22   0    7.70    3.10
 -17  22   0    4.10    1.90
 -17  22   0    5.60    2.70
 -22   6   0    3.30    2.90
   6  16   0    0.50    1.90
 -16  22   0   -0.50    1.90
  22  -6   0    4.20    2.50
 -16  22   0   -3.80    2.60
 -16  22   0    2.50    2.80
 -22   7   0   10.60    3.30
   7  15   0    6.70    2.00
  22  -7   0    9.20    2.10
 -15  22   0    6.80    2.70
 -15  22   0    5.80    1.90
 -15  22   0    6.10    2.80
  22  -7   0    8.00    2.50
 -22   8   0   12.10    3.20
   8  14   0    8.90    2.10
 -14  22   0    8.20    2.90
  22  -8   0    9.80    2.70
 -14  22   0   10.90    2.60
 -14  22   0   11.30    2.10
  22  -8   0   12.80    2.20
 -22   9   0    7.20    3.00
   9  13   0    3.80    1.90
 -13  22   0   -0.70    2.40
 -13  22   0    2.10    1.70
 -13  22   0    2.20    2.50
  22  -9   0    2.20    2.30
  22  -9   0    2.70    1.80
  10  12   0   31.40    3.20
 -22  10   0   36.60    4.40
  22 -10   0   40.30    4.00
 -12  22   0   32.50    4.20
  22 -10   0   32.40    3.40
 -12  22   0   31.40    3.30
 -12  22   0   37.10    4.20
 -22  11   0   13.60    3.10
  11  11   0   15.20    2.50
  22 -11   0   12.10    2.50
  22 -11   0    7.20    2.00
 -11  22   0   12.10    2.20
  10 -22   0   26.50    4.30
  12  10   0   20.60    2.80
 -22  12   0   23.20    3.50
 -10  22   0   23.80    3.00
  22 -12   0   23.90    3.70
  22 -12   0   22.30    2.90
   9 -22   0   47.90    4.80
  13   9   0   37.70    3.60
 -22  13   0   39.70    4.50
  22 -13   0   45.50    3.70
  -9  22   0   41.20    3.80
  22 -13   0   53.99    4.70
  14   8   0    8.80    2.00
 -22  14   0   12.60    2.90
   8 -22   0   12.40    3.20
  22 -14   0    8.00    2.70
  -8  22   0    9.80    2.30
  22 -14   0    7.60    1.90
  15   7   0   10.40    2.20
 -22  15   0   11.00    3.10
   7 -22   0   10.10    3.10
  22 -15   0   12.10    2.80
  22 -15   0    8.20    1.90
  -7  22   0    8.90    2.20
  16   6   0   29.50    3.10
 -22  16   0   32.10    4.40
   6 -22   0   37.80    4.90
  -6  22   0   32.80    3.30
  22 -16   0   28.00    3.20
  17   5   0    3.50    2.00
   5 -22   0    4.60    3.20
 -22  17   0    4.60    3.10
  -5  22   0    3.30    2.10
  22 -17   0    1.60    1.80
  22 -17   0    3.90    2.90
   4 -22   0   61.59    6.00
  18   4   0   46.50    4.40
 -22  18   0   48.80    5.20
  22 -18   0   48.90    4.00
  -4  22   0   48.30    4.20
 -22  19   0   17.50    3.40
   3 -22   0   16.20    4.10
  19   3   0   12.60    2.50
  22 -19   0   11.60    2.20
  -3  22   0   13.00    2.50
   2 -22   0   10.00    5.20
 -22  20   0    5.90    2.40
 -22  20   0    5.30    3.30
  20   2   0    2.20    2.10
  22 -20   0    3.70    2.00
  -2  22   0    5.20    2.30
 -22  21   0    3.70    2.40
  21   1   0    2.90    2.40
 -22  21   0    3.60    3.50
  -1  22   0    4.60    2.60
  22 -21   0    3.10    2.00
  22   0   0    5.50    2.80
 -22  22   0    9.00    4.10
 -22  22   0    5.80    3.70
 -22  22   0    7.50    2.60
   0  22   0    7.30    2.70
  22 -22   0    7.30    2.30
   1  22   0   13.10    2.90
  22 -23   0   12.20    2.60
  23  -1   0   14.90    3.10
 -22  23   0   12.70    3.90
 -22  23   0   12.00    4.60
 -22  23   0   14.30    2.90
  21 -23   0    5.90    2.30
   2  21   0    3.50    2.60
 -21  23   0    6.90    2.50
 -21  23   0    2.80    3.30
 -21  23   0    4.20    4.00
  23  -2   0    7.00    2.90
   3  20   0    4.10    2.40
  20 -23   0    3.30    2.10
 -20  23   0    2.30    2.30
 -20  23   0    1.50    3.70
  23  -3   0    4.40    2.90
 -20  23   0   -0.70    3.30
   4  19   0    7.60    2.40
  23  -4   0   12.60    2.90
 -19  23   0   12.30    3.80
 -19  23   0    6.80    2.20
 -19  23   0    8.40    3.10
   5  18   0   10.40    2.30
 -18  23   0    6.40    2.20
  23  -5   0   10.20    2.80
 -18  23   0    9.70    3.60
 -18  23   0    8.50    3.20
   6  17   0    8.50    2.20
  23  -6   0   14.80    2.90
 -17  23   0    8.00    2.10
 -17  23   0    3.60    3.00
 -17  23   0    9.60    3.40
   7  16   0   36.80    3.80
  23  -7   0   50.19    4.30
 -16  23   0   39.50    3.70
 -16  23   0   48.10    4.80
  23  -7   0   40.20    4.90
   8  15   0    6.50    2.10
 -23   8   0    7.30    3.30
 -15  23   0    3.80    2.00
  23  -8   0    2.30    2.50
  23  -8   0    3.30    2.00
 -15  23   0    2.10    2.80
   9  14   0   33.90    3.70
 -23   9   0   43.80    5.00
  23  -9   0   49.40    4.50
 -14  23   0   46.50    4.80
  23  -9   0   47.40    4.00
 -14  23   0   43.50    3.80
  10  13   0   14.10    2.50
 -23  10   0   13.20    3.40
  23 -10   0    7.60    2.00
 -13  23   0   10.90    2.30
  23 -10   0   11.70    2.70
 -13  23   0    7.20    3.10
 -23  11   0   11.80    3.30
 -12  23   0    3.40    2.80
  23 -11   0    4.50    2.50
 -12  23   0    6.20    2.10
  23 -11   0    3.30    1.90
 -23  12   0   55.79    5.50
  12  11   0   53.79    4.40
  23 -12   0   58.89    4.40
 -11  23   0   58.59    4.50
  13  10   0   30.10    3.30
 -23  13   0   35.20    4.50
  10 -23   0   38.90    5.00
  23 -13   0   33.60    3.40
  23 -13   0   37.60    4.40
 -10  23   0   33.80    3.50
  14   9   0    4.70    2.00
 -23  14   0    4.40    3.00
   9 -23   0    4.40    3.30
  23 -14   0    2.80    1.90
  -9  23   0    8.10    2.30
  23 -14   0    3.60    2.90
   8 -23   0   30.90    5.10
  15   8   0   20.40    2.90
 -23  15   0   21.60    4.30
  23 -15   0   22.60    3.10
  23 -15   0   28.80    4.20
  -8  23   0   26.00    3.20
  16   7   0   16.80    2.60
 -23  16   0   17.20    3.50
   7 -23   0   19.40    3.80
  23 -16   0   14.00    2.20
  -7  23   0   14.50    2.70
  23 -16   0   22.20    3.90
 -23  17   0    9.70    3.40
  17   6   0    6.70    2.10
   6 -23   0    5.60    3.80
  23 -17   0    6.90    2.10
  23 -17   0    8.10    3.20
  -6  23   0    6.30    2.30
   5 -23   0   24.70    4.30
 -23  18   0   20.80    3.70
  18   5   0   17.20    3.00
  23 -18   0   27.00    4.60
  -5  23   0   18.70    2.90
  23 -18   0   15.80    3.00
  19   4   0   -1.30    2.10
   4 -23   0    3.30    4.10
 -23  19   0    2.80    3.60
  23 -19   0    2.40    2.00
  -4  23   0    1.50    2.30
  20   3   0    1.10    2.10
 -23  20   0    5.40    2.60
 -23  20   0    4.50    3.70
  -3  23   0    5.30    2.40
  23 -20   0    4.20    2.10
  21   2   0    0.90    2.50
 -23  21   0    6.50    3.60
 -23  21   0    6.50    2.60
  -2  23   0    8.90    2.60
  23 -21   0    9.50    2.20
 -23  22   0   21.50    4.10
 -23  22   0   27.90    3.90
  22   1   0   20.10    3.70
  23 -22   0   24.40    3.60
  -1  23   0   19.50    3.80
 -23  23   0    9.50    2.90
 -23  23   0    8.10    4.80
  23   0   0    4.70    2.90
  23 -23   0    8.30    2.40
   0  23   0    8.00    2.80
   1  23   0   30.90    4.50
  23 -24   0   31.20    4.30
  24  -1   0   43.00    4.90
 -23  24   0   45.30    4.50
  22 -24   0    7.10    2.70
   2  22   0    6.30    2.70
 -22  24   0    9.70    2.80
  24  -2   0   12.50    3.50
   3  21   0   25.00    4.00
 -21  24   0   29.60    4.60
  24  -3   0   36.80    4.50
 -21  24   0   28.90    3.70
   4  20   0    0.30    2.40
 -20  24   0    1.30    3.30
  24  -4   0    6.90    3.00
 -20  24   0   -2.30    2.20
   5  19   0    0.50    2.30
  24  -5   0    3.20    3.20
 -19  24   0   -0.90    3.30
 -19  24   0   -1.10    2.20
   6  18   0    4.40    2.50
 -18  24   0   -0.80    3.30
 -18  24   0    1.70    2.20
  24  -6   0    6.60    2.90
   7  17   0   14.00    2.80
  24  -7   0   16.60    3.20
 -17  24   0    9.70    3.40
 -17  24   0   11.10    2.30
  24  -7   0   13.70    2.60
   8  16   0    4.50    2.20
  24  -8   0   -1.00    2.90
 -16  24   0    0.90    2.10
 -16  24   0    2.10    3.00
  24  -8   0    3.70    2.20
   9  15   0   12.30    2.60
 -15  24   0   16.30    3.00
 -15  24   0   23.10    4.40
  24  -9   0   18.90    3.30
  24  -9   0   22.00    3.40
 -24  10   0   14.60    3.70
  10  14   0   14.60    2.60
  24 -10   0   13.50    2.40
 -14  24   0   15.10    2.50
  24 -10   0   19.00    3.30
 -14  24   0   17.20    3.40
 -24  11   0   15.20    3.60
 -13  24   0    8.30    3.30
 -13  24   0    8.60    2.40
  24 -11   0   10.50    3.00
  24 -11   0    7.70    2.20
 -24  12   0   58.29    6.00
  12  12   0   56.59    4.90
  24 -12   0   71.39    5.00
 -12  24   0   61.09    4.90
 -12  24   0   72.59    6.10
  24 -12   0   76.89    5.80
  11 -24   0    6.30    3.80
 -24  13   0   12.80    3.60
  13  11   0    7.50    2.10
  24 -13   0    3.90    2.10
 -11  24   0    7.20    2.30
  24 -13   0    9.30    3.20
  10 -24   0    4.80    3.80
 -24  14   0    5.90    3.40
  14  10   0    3.90    2.10
 -10  24   0    6.90    2.50
  24 -14   0    2.80    2.00
  24 -14   0    9.80    3.30
  15   9   0    0.80    1.90
   9 -24   0    7.60    3.90
 -24  15   0    4.10    3.40
  24 -15   0    3.00    3.20
  24 -15   0    1.90    2.10
  -9  24   0    6.10    2.40
  16   8   0   28.50    3.20
   8 -24   0   32.50    5.70
 -24  16   0   22.60    4.00
  -8  24   0   22.00    3.50
  24 -16   0   24.30    3.30
  24 -16   0   26.70    4.50
   7 -24   0    6.40    4.10
 -24  17   0    5.60    3.40
  17   7   0   10.20    2.20
  -7  24   0    2.80    2.30
  24 -17   0    1.00    2.10
  24 -17   0    9.90    3.50
  18   6   0   55.69    4.80
   6 -24   0   75.09    6.90
 -24  18   0   58.29    5.90
  24 -18   0   56.89    4.60
  -6  24   0   55.19    4.90
   5 -24   0    8.10    4.50
  19   5   0    6.40    2.40
 -24  19   0   11.20    3.90
  24 -19   0    8.20    2.10
  -5  24   0   13.70    2.70
  24 -19   0    7.50    3.80
  20   4   0   24.30    3.40
 -24  20   0   27.40    5.20
  24 -20   0   17.50    3.30
  -4  24   0   21.20    3.80
 -24  21   0   -2.20    2.80
 -24  21   0    2.50    4.20
  21   3   0   -0.10    2.50
  -3  24   0    2.10    2.70
  24 -21   0    1.70    2.10
 -24  22   0    1.80    2.80
  22   2   0    0.30    2.60
  24 -22   0    3.50    2.40
  -2  24   0   -0.20    2.50
 -24  23   0    2.00    2.90
  23   1   0   -2.80    2.80
  24 -23   0    1.20    2.60
  -1  24   0    1.60    3.00
  24   0   0   14.60    3.40
 -24  24   0   16.50    3.40
   0  24   0    9.70    3.20
  24 -24   0    9.90    2.90
   1  24   0    0.00    3.10
  25  -1   0    4.30    3.50
 -24  25   0    0.40    3.60
   2  23   0    5.60    3.00
 -23  25   0   -1.70    2.80
  25  -2   0    2.00    3.50
   3  22   0   14.70    3.20
  25  -3   0   15.80    3.50
 -22  25   0    9.90    2.90
   4  21   0    1.70    2.70
  25  -4   0    5.30    3.30
 -21  25   0   -2.80    2.30
   5  20   0    0.10    2.70
 -20  25   0    2.30    2.40
  25  -5   0    5.20    3.30
   6  19   0    4.70    2.70
 -19  25   0    1.20    2.40
 -19  25   0    0.60    3.80
  25  -6   0    2.80    3.20
   7  18   0    4.00    2.40
  25  -7   0    4.00    2.90
 -18  25   0    2.10    2.20
  25  -7   0    1.20    2.60
 -18  25   0    4.90    3.40
   8  17   0    6.00    2.50
  25  -8   0    6.70    3.20
 -17  25   0    5.00    2.30
  25  -8   0    5.70    2.50
 -17  25   0    2.50    3.40
   9  16   0    9.10    2.40
 -16  25   0   16.30    3.60
  25  -9   0   13.10    2.60
  25  -9   0   12.90    3.30
 -16  25   0   13.10    2.50
  10  15   0   15.80    2.80
 -15  25   0   10.90    2.50
  25 -10   0    8.90    3.30
  25 -10   0    5.50    2.30
 -15  25   0   11.00    3.40
 -25  11   0   27.50    6.70
  11  14   0    6.50    2.20
 -14  25   0    7.70    2.50
  25 -11   0    8.90    3.40
  25 -11   0    6.50    2.20
 -14  25   0    4.60    3.50
 -25  12   0   85.69    7.60
  12  13   0   77.79    6.50
 -13  25   0  106.79    7.60
  25 -12   0  116.89    7.50
 -13  25   0   90.19    6.50
  25 -12   0  105.49    6.60
 -25  13   0   60.89    5.90
  13  12   0   41.20    4.10
 -12  25   0   42.00    4.30
 -12  25   0   39.60    5.90
  25 -13   0   51.19    5.40
  25 -13   0   46.00    4.20
  14  11   0  120.69    8.80
 -25  14   0  128.79    9.70
 -11  25   0  142.49    8.90
  25 -14   0  170.78   10.00
  25 -14   0  144.29    8.80
  15  10   0   48.90    4.60
  10 -25   0   73.29    7.10
 -25  15   0   75.59    6.30
  25 -15   0   50.19    4.80
 -10  25   0   70.89    5.10
 -25  16   0   17.10    4.00
  16   9   0   10.80    2.30
   9 -25   0   13.90    4.60
  25 -16   0    8.20    2.30
  -9  25   0   20.20    3.40
  25 -16   0    8.90    3.60
   8 -25   0   15.10    4.80
  17   8   0    7.10    2.30
 -25  17   0    8.00    3.80
  25 -17   0    6.00    2.30
  -8  25   0    9.30    2.70
  25 -17   0   14.60    3.60
   7 -25   0   16.70    4.90
 -25  18   0    7.30    3.90
  18   7   0    9.70    2.50
  25 -18   0   11.00    4.00
  -7  25   0   10.80    2.80
  25 -18   0   11.00    2.40
   6 -25   0    2.30    5.20
 -25  19   0    4.20    4.10
  19   6   0    3.70    2.40
  25 -19   0    2.80    3.90
  25 -19   0    2.10    2.20
  -6  25   0    3.70    2.60
 -25  20   0   18.80    4.40
  20   5   0   16.40    2.90
  25 -20   0   12.10    2.60
  21   4   0    0.10    2.30
 -25  21   0    2.70    2.90
  -4  25   0    3.10    2.70
  25 -21   0    2.20    2.30
 -25  22   0    2.10    3.20
  22   3   0   -2.20    2.60
  25 -22   0    0.10    2.50
  -3  25   0    1.30    2.70
  23   2   0    7.90    3.10
 -25  23   0   15.00    3.40
  -2  25   0   13.80    3.50
  25 -23   0   12.00    2.90
  24   1   0    5.70    3.50
 -25  24   0   13.50    3.50
  25 -24   0    5.80    3.00
  -1  25   0    7.20    3.20
  25   0   0    5.20    3.80
   0  25   0    1.30    3.30
  25 -25   0   -0.50    2.80
   2  24   0    3.70    3.30
  26  -2   0   10.50    4.10
   3  23   0   14.60    3.70
  26  -3   0   27.50    5.00
   4  22   0   -0.50    3.20
  26  -4   0    5.60    3.90
   5  21   0   -0.80    2.90
  26  -5   0    3.20    3.70
   6  20   0    6.10    3.00
 -20  26   0    3.80    2.70
  26  -6   0    7.80    3.70
   7  19   0   -0.60    2.70
  26  -7   0    0.90    2.80
  26  -7   0    0.00    3.20
 -19  26   0    0.80    2.50
   8  18   0   10.10    2.90
  26  -8   0   11.70    3.00
  26  -8   0   15.50    3.70
 -18  26   0    8.70    2.80
   9  17   0   12.40    2.70
 -17  26   0   13.40    2.70
  26  -9   0   12.60    3.70
  26  -9   0    8.60    2.70
  10  16   0   17.30    3.20
  26 -10   0   14.40    3.50
  26 -10   0    9.20    2.70
 -16  26   0    9.80    2.70
 -16  26   0    9.00    3.90
  11  15   0   33.90    4.00
  26 -11   0   50.89    5.20
 -15  26   0   29.90    4.20
  26 -11   0   41.50    4.40
 -15  26   0   41.70    5.70
  12  14   0    6.00    2.20
  26 -12   0   10.10    3.90
 -14  26   0    3.50    3.90
  26 -12   0    4.30    2.40
 -14  26   0    5.60    2.70
  13  13   0    4.70    2.40
 -13  26   0    9.20    2.80
  26 -13   0   15.70    4.30
 -13  26   0   11.50    4.20
  26 -13   0   10.60    2.50
 -26  14   0   15.40    4.20
  14  12   0   12.10    2.50
  26 -14   0   14.50    4.20
 -12  26   0   12.40    4.40
 -12  26   0   15.10    3.00
  26 -14   0    9.40    2.50
 -26  15   0   19.90    4.60
  15  11   0   14.60    2.70
  11 -26   0   34.50    6.60
  26 -15   0   19.30    3.50
  26 -15   0   26.10    4.40
 -11  26   0   18.50    3.70
  10 -26   0    2.50    4.90
 -26  16   0    8.50    4.20
  16  10   0    7.00    2.20
  26 -16   0    3.20    3.90
 -10  26   0    7.80    2.80
  26 -16   0    3.70    2.30
  17   9   0   14.20    2.60
 -26  17   0   10.20    4.40
   9 -26   0   12.10    5.00
  -9  26   0    9.20    2.90
  26 -17   0    8.00    2.60
  26 -17   0   14.20    4.00
   8 -26   0   45.90    7.30
 -26  18   0   26.20    4.90
  18   8   0   29.80    3.60
  26 -18   0   26.70    3.90
  26 -18   0   43.50    6.10
  -8  26   0   24.00    4.10
  19   7   0    6.90    2.60
 -26  19   0    1.70    4.40
  -7  26   0    6.50    2.90
  26 -19   0   11.10    4.40
  26 -19   0    6.60    2.30
  20   6   0   39.90    4.00
  26 -20   0   28.60    4.00
  -6  26   0   28.90    4.40
  26 -20   0   48.50    6.60
 -26  21   0    2.00    3.20
  21   5   0    3.70    2.60
  26 -21   0    2.60    2.50
  -5  26   0    5.20    2.90
 -26  22   0   -0.60    3.50
  22   4   0   -1.00    2.80
  26 -22   0    0.30    2.60
  -4  26   0    4.60    3.10
 -26  23   0   10.90    3.50
  23   3   0    5.50    3.10
  -3  26   0    5.80    3.40
  26 -23   0    9.10    3.00
  24   2   0   -4.30    3.10
  26 -24   0    1.80    2.90
  -2  26   0    2.20    3.50
   4  23   0    0.40    3.40
  27  -4   0    3.10    4.30
   5  22   0    0.70    3.20
  27  -5   0    6.70    3.90
   6  21   0   -2.10    3.10
  27  -6   0    1.20    3.20
  27  -6   0    4.00    3.70
   7  20   0   11.10    3.30
  27  -7   0   10.20    3.20
  27  -7   0   10.00    4.10
 -20  27   0    7.50    2.90
   8  19   0    8.00    3.10
  27  -8   0    9.10    3.80
  27  -8   0    4.50    3.00
 -19  27   0    5.60    2.90
   9  18   0    5.00    2.70
 -18  27   0    3.00    2.80
  27  -9   0    2.80    2.80
  27  -9   0   -3.30    3.70
  10  17   0    8.20    2.80
 -17  27   0    3.10    2.80
  27 -10   0   -1.00    2.60
  27 -10   0    4.50    3.60
  11  16   0    8.40    2.70
  27 -11   0    7.30    3.80
  27 -11   0    5.40    2.60
 -16  27   0    3.60    2.90
  12  15   0   30.90    3.90
 -15  27   0   32.90    4.30
  27 -12   0   43.20    5.60
  27 -12   0   38.90    4.40
  13  14   0   21.40    3.70
  27 -13   0   30.10    4.10
  27 -13   0   31.60    5.60
 -14  27   0   28.50    4.10
  14  13   0   68.49    5.80
 -13  27   0   77.29    6.00
  27 -14   0   81.29    6.00
  15  12   0   20.50    3.40
 -12  27   0   31.00    4.20
 -12  27   0   16.80    5.70
  16  11   0   47.70    4.40
  11 -27   0   70.49    7.80
 -27  16   0   50.09    7.20
 -11  27   0   45.80    4.90
  27 -16   0   37.40    4.60
  27 -16   0   59.79    6.60
  10 -27   0    1.50    5.70
 -27  17   0   14.50    5.30
  27 -17   0   -0.60    2.40
 -10  27   0    4.60    2.90
  27 -17   0    2.20    4.10
 -27  18   0    2.50    5.00
   9 -27   0    0.20    5.70
  18   9   0    5.30    2.50
  27 -18   0    3.80    4.40
  -9  27   0    2.80    2.90
  27 -18   0    1.70    2.50
  19   8   0    2.60    2.60
  27 -19   0    0.70    2.50
  27 -19   0    1.80    4.70
  -8  27   0    2.20    3.70
  20   7   0   13.90    2.90
  27 -20   0   10.00    2.80
  -7  27   0   14.10    3.40
  27 -20   0   23.40    5.20
  21   6   0    4.80    2.80
  -6  27   0    3.10    3.20
  27 -21   0   -1.00    2.50
 -27  22   0   12.20    3.80
  22   5   0    6.70    2.90
  27 -22   0    5.70    2.70
  -5  27   0    9.90    3.50
  23   4   0    0.80    3.20
  -4  27   0    4.20    3.40
  27 -23   0    5.10    2.90
   7  21   0    1.10    3.40
  28  -7   0   -0.80    4.30
   8  20   0   29.20    4.70
  28  -8   0   38.30    5.80
   9  19   0    8.50    3.30
  28  -9   0   -3.80    4.10
  28  -9   0    0.50    3.70
  10  18   0   20.30    3.70
  28 -10   0   18.00    4.40
 -18  28   0   13.00    3.40
  28 -10   0   12.80    3.30
  11  17   0    5.70    2.90
 -17  28   0    3.10    3.00
  28 -11   0    6.40    3.00
  28 -11   0    5.90    3.90
  12  16   0    7.80    2.90
 -16  28   0    0.00    2.90
  28 -12   0    5.80    2.80
  28 -12   0   10.10    4.40
  13  15   0   -0.20    2.70
  28 -13   0   -1.90    4.20
  28 -13   0    0.10    2.70
 -15  28   0   -0.40    3.10
  14  14   0    2.40    2.60
  28 -14   0    3.10    2.80
  28 -14   0    7.30    4.60
 -14  28   0    4.10    3.10
  28 -15   0    2.70    2.80
  28 -15   0    7.90    4.70
 -13  28   0    4.00    3.00
  16  12   0    7.80    2.50
  28 -16   0    5.70    2.90
  28 -16   0   12.30    4.90
 -12  28   0    5.90    3.20
  17  11   0   19.20    3.40
 -11  28   0   13.70    3.40
  28 -17   0   11.80    2.90
  18  10   0    7.60    2.70
  28 -18   0    7.40    4.70
  28 -18   0    3.40    2.80
 -10  28   0    1.70    3.10
  19   9   0    9.20    2.80
  -9  28   0    8.10    4.00
  28 -19   0    4.90    2.80
  28 -19   0    9.10    5.20
  20   8   0    6.30    2.90
  28 -20   0   15.30    5.40
  -8  28   0   12.70    3.50
  28 -20   0    5.10    2.80
  21   7   0   11.10    2.90
  -7  28   0    3.50    3.40
  28 -21   0    0.30    5.40
  28 -21   0    3.50    3.00
  11  18   0    5.50    3.30
  29 -11   0    7.90    4.70
  12  17   0    4.50    3.20
  29 -12   0    6.50    4.80
  13  16   0   17.70    3.50
 -16  29   0   15.70    4.90
  29 -13   0   20.50    5.30
  14  15   0   15.00    3.00
 -15  29   0    9.20    3.60
  29 -14   0   20.00    5.30
  15  14   0    1.30    2.80
  29 -15   0   12.60    5.40
 -14  29   0    8.60    3.40
  16  13   0    2.80    2.60
 -13  29   0    5.70    3.50
  29 -16   0    6.90    5.10
  17  12   0    5.40    2.70
  29 -17   0    0.10    5.30
 -12  29   0    0.50    3.30
  18  11   0    7.00    2.80
 -11  29   0    1.70    3.90
  29 -18   0    8.90    5.10
   0   0  -1 1462.75   82.29
   1  -1  -1   60.59    3.40
   0   1  -1   57.39    3.40
   1  -1  -1   61.89    3.40
  -1   0  -1   59.09    3.40
  -1   0  -1   54.59    3.40
   1   0   1   56.89    3.40
   0  -1   1   57.19    3.40
   1   0  -1   66.79    3.60
   0  -1  -1   61.59    3.60
   0  -1  -1   64.29    3.60
  -1   1  -1   58.19    3.70
   0   1   1   59.79    3.60
  -1   0   1   65.79    3.60
   1  -1   1   55.79    3.70
   0   1   1   64.59    3.60
  -1  -1  -1   42.90    2.70
   2  -1  -1   46.00    2.60
  -1  -1  -1   46.30    2.60
  -1   2  -1   42.30    2.70
   1   1   1   45.50    2.60
  -2   1   1   45.20    2.60
   1   1   1   43.20    2.70
   1  -2   1   43.80    2.80
  -2  -1  -1   25.90    1.60
   3  -2  -1   25.30    1.50
  -2  -1  -1   21.90    1.70
  -1   3  -1   22.80    1.80
   2   1   1   25.30    1.60
   1  -3   1   24.10    1.80
   2   1   1   20.80    1.80
  -3   2   1   23.60    1.50
  -2   0  -1  168.68    9.20
  -2   0  -1  163.28    9.30
   2  -2  -1  158.88    9.30
   0   2  -1  170.58    9.30
   2   0   1  156.18    9.30
   0  -2   1  170.78    9.30
   2   0   1  163.28    9.20
   1  -2  -1   39.50    2.50
   1   1  -1   43.10    2.50
  -2   1  -1   40.20    2.60
   1  -2  -1   43.60    2.60
  -1   2   1   41.80    2.50
   2  -1   1   40.10    2.60
  -1   2   1   45.20    2.60
  -1  -1   1   43.00    2.50
   0  -2  -1  180.88   10.00
   0  -2  -1  178.78    9.90
   2   0  -1  180.38    9.90
  -2   2  -1  169.78   10.00
  -2   0   1  173.58    9.90
   2  -2   1  166.98   10.00
   0   2   1  186.28   10.00
   0   2   1  176.28    9.90
  -2   3  -1   29.70    2.20
  -1  -2  -1   34.90    2.00
   3  -1  -1   32.90    2.00
  -1  -2  -1   31.30    2.10
  -2   3  -1   29.90    2.30
   1   2   1   29.60    2.10
  -3   1   1   32.00    2.00
   1   2   1   33.80    2.00
  -2  -2  -1   62.89    3.80
  -2   4  -1   61.69    3.90
   4  -2  -1   70.59    3.70
  -2  -2  -1   62.49    3.70
   2   2   1   62.39    3.80
  -4   2   1   64.99    3.70
   2  -4   1   61.19    3.90
   2   2   1   65.59    3.70
  -3  -2  -1   30.20    1.90
  -2   5  -1   29.70    2.20
  -3  -2  -1   29.90    2.10
   5  -3  -1   33.50    1.90
   2  -5   1   28.40    2.10
  -5   3   1   34.50    1.90
   3   2   1   34.30    1.90
   3   2   1   24.80    2.50
  -3  -1  -1    1.00    0.40
  -3  -1  -1   -0.10    0.60
  -1   4  -1   -0.50    0.60
   4  -3  -1    0.10    0.50
   1  -4   1   -0.30    0.60
   3   1   1    0.90    0.40
   3   1   1   -0.20    0.60
   3  -3  -1   30.00    2.20
  -3   0  -1   30.70    2.20
   0   3  -1   33.20    2.20
  -3   0  -1   34.80    1.90
   0  -3   1   33.30    2.20
   3   0   1   29.20    2.20
  -3   3   1   31.80    2.20
   3   0   1   35.10    1.90
  -3   1  -1   28.00    2.10
   2  -3  -1   30.80    2.10
   1   2  -1   30.10    2.00
  -1  -2   1   29.80    2.00
  -2   3   1   32.20    2.10
   3  -1   1   27.70    2.10
   1  -3  -1   23.50    1.50
  -3   2  -1   22.00    1.80
   1  -3  -1   25.50    1.70
   2   1  -1   23.90    1.60
   3  -2   1   21.10    1.80
  -2  -1   1   24.70    1.70
  -1   3   1   20.40    1.50
  -1   3   1   25.00    1.70
   3   0  -1   34.40    2.10
   0  -3  -1   35.70    2.10
   0  -3  -1   35.90    2.20
  -3   3  -1   32.90    2.40
  -3   0   1   33.90    2.10
   0   3   1   35.80    2.20
   0   3   1   33.30    2.10
   3  -3   1   32.00    2.40
  -3   4  -1    1.00    0.70
  -1  -3  -1    1.80    0.50
  -1  -3  -1    1.80    0.60
  -3   4  -1    0.40    0.60
   4  -1  -1    2.70    0.50
   1   3   1    1.70    0.60
   1   3   1    2.60    0.50
  -4   1   1    2.00    0.50
  -2  -3  -1   48.70    3.10
  -2  -3  -1   53.99    3.10
   5  -2  -1   53.39    3.00
   2   3   1   50.29    3.20
   3  -5   1   50.09    3.20
  -5   2   1   53.19    3.00
   2   3   1   54.19    3.10
  -3  -3  -1  107.79    6.10
  -3   6  -1   99.19    6.20
   6  -3  -1  104.59    6.00
  -6   3   1  108.99    6.00
   3   3   1  108.89    6.00
   3  -6   1  101.39    6.20
   3   3   1  106.69    6.10
  -3   7  -1  112.29    6.80
   7  -4  -1  117.39    6.60
   7  -4  -1  106.39    6.80
  -4  -3  -1  117.09    6.70
  -7   4   1  124.19    6.60
   4   3   1  124.99    6.70
   4   3   1  114.69    6.80
   3  -7   1  113.89    6.80
   6  -4  -1    1.00    0.60
  -2   6  -1    2.00    0.80
   2  -6   1    1.80    0.70
   4   2   1    4.10    0.70
  -1   5  -1   21.70    1.70
   5  -4  -1   20.70    1.70
  -4  -1  -1   22.50    1.70
   1  -5   1   22.50    1.70
   4   1   1   22.90    1.70
   4   1   1   24.10    1.50
  -4   0  -1   41.50    2.60
   0   4  -1   41.20    2.80
   4   0   1   35.50    2.80
   4   0   1   45.70    2.40
   0  -4   1   41.90    2.60
  -4   4   1   42.50    2.70
  -4   1  -1    1.20    0.60
   1   3  -1    1.80    0.60
   3  -4  -1    1.10    0.70
   4  -1   1    1.00    0.70
  -1  -3   1    2.30    0.60
  -3   4   1    1.10    0.60
   2   2  -1   59.09    3.60
  -4   2  -1   59.69    3.60
   2  -4  -1   60.89    3.60
  -2  -2   1   61.79    3.60
  -2   4   1   61.99    3.60
   4  -2   1   57.99    3.70
   3   1  -1    0.30    0.50
  -4   3  -1    0.30    0.70
   1  -4  -1    0.30    0.40
   1  -4  -1    0.50    0.50
  -1   4   1    0.70    0.40
   4  -3   1    0.00    0.70
  -1   4   1    0.70    0.50
  -3  -1   1   -0.30    0.50
   4   0  -1   44.80    2.70
  -4   4  -1   42.90    2.80
   0  -4  -1   41.60    2.70
   0  -4  -1   46.60    2.60
   0   4   1   47.80    2.70
   0   4   1   45.80    2.70
  -4   0   1   43.50    2.70
   4  -4   1   40.10    3.00
  -4   5  -1   28.10    2.00
  -1  -4  -1   29.50    1.90
  -4   5  -1   25.80    2.10
   5  -1  -1   29.70    1.80
   1   4   1   30.20    1.90
   1   4   1   28.50    1.90
  -5   1   1   29.30    1.80
  -2  -4  -1    4.90    0.90
  -2  -4  -1    3.40    0.60
  -4   6  -1    2.30    0.70
  -4   6  -1    2.40    0.80
   2   4   1    4.10    0.70
   2   4   1    4.50    0.80
  -4   7  -1    3.40    0.90
  -3  -4  -1    3.90    0.80
   7  -3  -1    4.00    0.70
   3   4   1    3.60    0.70
   3   4   1    3.30    0.90
  -7   3   1    4.50    0.70
   4  -7   1    2.00    0.80
   8  -4  -1   23.00    1.80
  -4  -4  -1   26.10    1.90
  -4   8  -1   22.60    2.00
   4  -8   1   20.60    2.00
  -8   4   1   24.40    1.70
   4   4   1   22.60    2.00
   4   4   1   25.30    1.90
   9  -5  -1   44.80    3.40
  -4   9  -1   45.70    3.40
  -5  -4  -1   51.09    3.30
   9  -5  -1   47.80    3.20
   5   4   1   58.49    3.30
   4  -9   1   47.90    3.40
   5   4   1   52.19    3.40
  -9   5   1   54.69    3.10
  -5  -3  -1    3.80    1.00
   8  -5  -1    1.50    0.90
  -3   8  -1    3.70    1.00
   8  -5  -1    4.20    0.80
   3  -8   1    3.30    0.90
   5   3   1    2.50    1.10
  -8   5   1    4.80    0.70
   5   3   1    3.10    0.80
   7  -5  -1    0.40    0.70
  -5  -1  -1    5.50    0.90
   6  -5  -1    2.90    0.70
  -1   6  -1    5.40    0.80
   1  -6   1    4.40    0.80
   5   1   1    5.30    0.90
   5   1   1    4.20    0.80
  -6   5   1    2.50    0.80
   0   5  -1   20.40    1.60
   5  -5  -1   19.90    1.60
  -5   0  -1   22.00    1.70
   0  -5   1   21.00    1.60
   5   0   1   22.70    1.40
  -5   5   1   21.20    1.60
   5   0   1   20.80    1.70
  -5   1  -1   27.20    2.00
   1   4  -1   27.20    1.90
   4  -5  -1   32.50    2.00
   5  -1   1   26.40    2.00
  -1  -4   1   26.70    1.90
  -4   5   1   34.60    2.00
  -5   2  -1   48.30    3.00
   2   3  -1   49.00    2.90
   3  -5  -1   47.30    2.90
  -3   5   1   48.90    3.00
   5  -2   1   43.30    3.00
  -2  -3   1   49.99    2.90
  -5   3  -1   29.00    2.00
   2  -5  -1   28.70    2.00
   3   2  -1   31.90    2.00
  -2   5   1   28.30    2.00
   5  -3   1   28.30    2.10
  -3  -2   1   30.80    1.90
   1  -5  -1   24.40    1.50
   4   1  -1   20.40    1.70
   1  -5  -1   22.00    1.60
  -5   4  -1   22.20    1.80
  -4  -1   1   23.80    1.60
  -1   5   1   23.60    1.60
   5  -4   1   21.90    1.80
  -1   5   1   24.40    1.50
   5   0  -1   20.10    1.90
  -5   5  -1   20.40    1.40
   0  -5  -1   23.00    1.50
  -5   5  -1   21.30    1.70
   0  -5  -1   20.80    1.60
  -5   0   1   24.20    1.50
   0   5   1   23.90    1.50
   5  -5   1   20.50    1.80
   0   5   1   20.30    1.60
  -5   6  -1   13.30    1.50
  -5   6  -1   15.70    1.20
  -1  -5  -1   17.50    1.30
   6  -1  -1   15.40    1.70
  -1  -5  -1   14.90    1.30
  -5   6  -1   14.80    1.50
  -6   1   1   16.20    1.30
   1   5   1   16.90    1.30
  -5   7  -1    6.90    1.30
  -5   7  -1   10.30    1.10
  -2  -5  -1   11.50    1.10
  -5   7  -1    7.70    1.30
   7  -2  -1    6.80    1.10
   2   5   1   11.00    1.30
  -7   2   1    8.90    1.10
   2   5   1   11.20    1.20
  -5   8  -1   92.99    5.40
  -3  -5  -1   93.69    5.40
   8  -3  -1   88.49    5.40
  -5   8  -1   85.19    5.50
   3   5   1   88.49    5.50
   3   5   1   93.79    5.40
   5  -8   1   90.99    5.50
  -8   3   1   97.39    5.30
  -5  10  -1   18.90    1.90
  -5  10  -1   15.40    2.00
  -5  -5  -1   17.20    2.10
  10  -5  -1   16.80    1.80
   5   5   1   14.10    2.00
   5   5   1   19.70    2.00
   5 -10   1   14.10    2.00
 -10   5   1   19.10    1.60
  -5  11  -1   23.70    2.50
  -5  11  -1   24.70    2.20
  11  -6  -1   24.30    2.10
   6   5   1   24.00    2.30
   6   5   1   31.40    2.30
   5 -11   1   19.20    2.30
  10  -6  -1   53.79    4.50
  -4  10  -1   65.79    4.20
  10  -6  -1   61.39    4.30
  -6  -4  -1   59.19    4.40
   4 -10   1   65.09    4.30
 -10   6   1   73.49    4.00
   6   4   1   66.79    4.30
   6   4   1   76.79    4.20
  -6  -3  -1   11.20    1.80
  -3   9  -1   11.50    1.70
   9  -6  -1   10.50    1.30
   6   3   1   12.50    1.60
  -9   6   1   14.50    1.30
   6   3   1    9.20    1.80
   8  -6  -1   78.69    4.90
  -6  -2  -1   81.99    4.90
  -2   8  -1   81.09    4.90
   6   2   1   79.79    5.00
   2  -8   1   81.99    4.90
  -1   7  -1    1.00    0.80
   7  -6  -1    0.50    0.70
  -6  -1  -1    1.10    0.90
   6   1   1    0.60    0.90
  -7   6   1    0.70    0.70
   1  -7   1    1.30    0.70
  -6   0  -1   13.80    1.50
   0   6  -1   13.30    1.30
   6  -6  -1   12.50    1.40
  -6   6   1   13.60    1.40
   0  -6   1   14.40    1.30
   6   0   1   15.00    1.50
   5  -6  -1   16.80    1.40
  -6   1  -1   15.10    1.50
   1   5  -1   16.30    1.40
  -5   6   1   17.10    1.50
   6  -1   1   14.00    1.50
  -1  -5   1   16.30    1.40
   2   4  -1    2.10    0.60
  -6   2  -1    1.90    0.80
   6  -2   1    3.50    0.80
  -2  -4   1    2.40    0.70
  -6   3  -1   98.79    5.70
   3   3  -1   97.69    5.60
   3  -6  -1   96.29    5.70
  -3  -3   1   98.79    5.60
   6  -3   1   92.39    5.70
  -3   6   1   98.99    5.70
   2  -6  -1    2.10    0.60
   6  -4   1    2.50    0.80
  -2   6   1    2.80    0.70
   1  -6  -1    6.10    1.00
  -6   5  -1    4.50    0.90
   5   1  -1    7.10    1.00
  -5  -1   1    6.40    0.90
  -1   6   1    4.60    0.70
  -1   6   1    5.00    1.00
   6  -5   1    4.40    1.00
   0  -6  -1   14.40    1.30
  -6   6  -1   13.30    1.50
   6   0  -1   14.70    1.30
   0  -6  -1   14.90    1.20
  -6   6  -1   14.70    1.10
   6  -6   1   13.40    1.60
   0   6   1   12.50    1.30
  -6   0   1   14.50    1.30
   0   6   1   17.40    1.40
   7  -1  -1    9.30    1.20
  -6   7  -1    6.90    1.40
  -6   7  -1    9.60    1.00
  -6   7  -1    6.90    1.40
  -1  -6  -1   10.10    1.20
  -1  -6  -1    8.60    1.10
   1   6   1    8.10    1.30
  -7   1   1    7.90    1.20
   1   6   1    9.80    1.20
   8  -2  -1    1.10    0.90
  -2  -6  -1    1.80    0.90
  -6   8  -1    1.80    1.00
  -6   8  -1    2.80    0.80
  -6   8  -1    2.70    1.00
   2   6   1    2.10    1.00
  -8   2   1    3.60    0.90
   2   6   1    2.90    0.90
  -6   9  -1  203.18   12.40
  -6   9  -1  201.98   12.40
  -3  -6  -1  218.38   12.30
   9  -3  -1  219.38   12.30
  -6   9  -1  216.88   12.30
  -9   3   1  224.58   12.30
   3   6   1  229.68   12.40
   3   6   1  218.88   12.40
  10  -4  -1   41.60    3.00
  -4  -6  -1   44.50    3.00
  -6  10  -1   44.20    3.00
  -6  10  -1   39.60    3.20
   4   6   1   45.50    3.20
   4   6   1   48.80    3.10
   6 -10   1   43.80    3.30
 -10   4   1   44.60    2.90
  11  -5  -1  141.19    8.40
  -5  -6  -1  140.29    8.50
  -6  11  -1  138.39    8.50
  -6  11  -1  143.19    8.40
   6 -11   1  142.49    8.60
   5   6   1  155.08    8.50
   5   6   1  148.09    8.60
 -11   5   1  154.08    8.40
  -6  12  -1   44.10    3.10
  -6  12  -1   44.30    3.00
  12  -6  -1   36.30    3.30
  12  -6  -1   48.40    3.00
  -6  -6  -1   44.00    3.00
 -12   6   1   46.60    2.90
   6   6   1   46.10    3.20
   6 -12   1   36.90    4.00
  -6  13  -1   14.50    1.80
  13  -7  -1   17.00    1.80
  -7  -6  -1   18.10    1.70
  -6  13  -1   15.10    1.90
   7   6   1   18.10    1.90
   7   6   1   14.80    2.00
 -13   7   1   20.30    1.80
   6 -13   1   13.50    1.90
  12  -7  -1   96.99    5.90
  -7  -5  -1   96.19    6.00
  -5  12  -1  100.59    6.00
  12  -7  -1   90.79    6.10
  -5  12  -1  102.59    6.10
   7   5   1  109.19    6.00
   5 -12   1   93.09    6.40
 -12   7   1  106.79    5.90
   7   5   1  103.19    6.10
  -7  -4  -1    9.20    1.60
  11  -7  -1    5.80    1.10
  -4  11  -1    5.70    1.30
  11  -7  -1    2.50    1.20
  -4  11  -1    8.50    1.60
   7   4   1    5.70    1.40
   4 -11   1    5.30    1.40
  10  -7  -1   30.90    2.60
  -7  -3  -1   31.10    2.60
  -3  10  -1   33.20    2.60
  10  -7  -1   30.50    2.30
   7   3   1   30.70    2.70
   3 -10   1   32.10    2.60
 -10   7   1   38.50    2.30
  -7  -2  -1    3.30    1.30
   9  -7  -1    3.10    1.00
  -2   9  -1    2.20    1.10
   2  -9   1    2.40    1.00
   7   2   1    3.60    1.30
   8  -7  -1   47.20    3.20
  -1   8  -1   47.20    3.20
  -7  -1  -1   49.10    3.30
  -8   7   1   49.70    3.30
   1  -8   1   47.50    3.20
   7   1   1   47.90    3.30
   7  -7  -1   15.50    1.60
  -7   0  -1   14.20    1.70
   0   7  -1   15.40    1.60
   0  -7   1   13.60    1.50
  -7   7   1   14.20    1.60
   7   0   1   14.10    1.70
  -7   1  -1    9.10    1.40
   1   6  -1   10.60    1.30
   6  -7  -1   10.40    1.40
  -1  -6   1    9.30    1.30
   7  -1   1   10.80    1.50
  -6   7   1    9.70    1.40
   5  -7  -1    9.10    1.30
  -7   2  -1    9.20    1.30
   2   5  -1    7.60    1.20
  -5   7   1    9.00    1.20
  -2  -5   1    9.70    1.20
   7  -2   1    9.70    1.40
   4  -7  -1    3.30    0.80
   3   4  -1    3.10    0.80
  -7   3  -1    3.40    0.90
  -4   7   1    3.00    0.80
   7  -3   1    3.60    0.90
  -3  -4   1    3.80    0.80
   4   3  -1  113.89    6.40
  -7   4  -1  110.09    6.40
   3  -7  -1  107.69    6.40
  -3   7   1  110.09    6.40
   7  -4   1  105.49    6.50
  -4  -3   1  111.69    6.40
   2  -7  -1    0.90    0.70
   6   1  -1    1.60    0.80
   1  -7  -1    0.50    0.70
  -7   6  -1   -0.50    0.80
  -7   6  -1    0.60    0.50
   1  -7  -1   -1.10    0.60
  -1   7   1    0.80    0.70
  -6  -1   1    0.90    0.70
   7  -6   1   -0.40    0.90
  -1   7   1    0.90    0.70
  -7   7  -1   12.60    1.70
   7   0  -1   15.30    1.50
   0  -7  -1   14.90    1.50
  -7   7  -1   14.00    1.20
   0  -7  -1   15.40    1.40
   0   7   1   17.60    1.60
   7  -7   1   12.80    1.80
  -7   0   1   14.10    1.50
   0   7   1   15.00    1.50
  -7   8  -1    7.90    1.10
  -7   8  -1    4.80    1.30
  -1  -7  -1    7.00    1.40
  -1  -7  -1    5.20    1.00
   8  -1  -1    5.40    1.10
  -7   8  -1    4.00    1.20
  -8   1   1    6.60    1.10
   1   7   1    6.60    1.10
   1   7   1    4.20    1.10
  -7   9  -1   56.89    3.90
  -2  -7  -1   56.79    3.70
  -7   9  -1   51.89    3.80
  -7   9  -1   58.49    3.60
   9  -2  -1   57.09    3.70
   2   7   1   59.39    3.70
   2   7   1   61.49    3.80
  -9   2   1   61.29    3.70
  -3  -7  -1    6.20    1.30
  -7  10  -1    9.40    1.50
  -7  10  -1    5.00    1.30
  -7  10  -1    4.10    1.40
  10  -3  -1    5.80    1.30
   3   7   1    6.30    1.40
 -10   3   1    8.10    1.50
   3   7   1    6.50    1.30
  -7  11  -1  101.39    6.20
  -7  11  -1   95.49    6.20
  -4  -7  -1  101.69    6.10
  -7  11  -1  104.69    6.10
  11  -4  -1  104.19    6.10
   4   7   1  105.39    6.20
 -11   4   1  105.49    6.10
  12  -5  -1   28.60    2.30
  -7  12  -1   25.20    2.40
  -5  -7  -1   30.40    2.20
 -12   5   1   27.40    2.20
   5   7   1   28.80    2.40
   7 -12   1   24.10    2.40
  -7  13  -1   87.69    5.40
  -7  13  -1   85.09    5.30
  -6  -7  -1   85.49    5.30
  13  -6  -1   85.49    5.30
   6   7   1   88.59    5.40
 -13   6   1   87.59    5.30
   6   7   1   87.39    5.40
   7 -13   1   90.79    5.50
  -7  14  -1    8.60    1.30
  14  -7  -1    6.10    1.30
  -7  14  -1    9.20    1.70
  -7  -7  -1    9.90    1.50
   7 -14   1    5.60    1.40
   7   7   1    4.80    1.40
 -14   7   1   11.50    1.70
  -7  15  -1    5.70    1.30
  -8  -7  -1    7.30    1.40
  -7  15  -1    8.00    1.40
  15  -8  -1   10.60    1.80
 -15   8   1    5.90    1.60
   7 -15   1   10.80    1.60
   8   7   1    4.20    1.50
   8   7   1    6.80    1.40
  14  -8  -1   33.00    3.10
  -6  14  -1   38.50    2.90
  -8  -6  -1   33.80    2.70
  -6  14  -1   44.20    3.00
  14  -8  -1   39.40    2.80
   6 -14   1   43.30    3.00
 -14   8   1   42.60    2.90
   8   6   1   36.60    3.00
  13  -8  -1  138.19    8.50
  -5  13  -1  145.49    8.50
  -8  -5  -1  133.89    8.40
  -5  13  -1  149.09    8.50
  13  -8  -1  140.79    8.40
   8   5   1  146.09    8.60
 -13   8   1  155.68    8.40
   5 -13   1  146.09    8.50
  12  -8  -1   51.99    4.00
  -4  12  -1   62.49    3.90
  -4  12  -1   66.19    3.90
  12  -8  -1   55.39    3.80
  -8  -4  -1   58.69    3.90
 -12   8   1   67.19    3.80
   4 -12   1   59.19    4.00
   8   4   1   59.89    4.00
  -8  -3  -1  273.97   16.20
  11  -8  -1  263.47   16.10
  -3  11  -1  298.07   16.20
  11  -8  -1  289.37   16.20
   8   3   1  296.57   16.30
   3 -11   1  273.37   16.40
 -11   8   1  296.17   16.00
  -2  10  -1  155.88    8.90
  10  -8  -1  147.79    8.90
  -8  -2  -1  158.78    9.00
   8   2   1  160.98    9.00
   2 -10   1  142.19    9.10
   9  -8  -1   38.20    2.80
  -1   9  -1   38.90    2.80
  -8  -1  -1   34.30    3.10
   1  -9   1   38.60    2.70
  -9   8   1   38.70    2.90
   8   1   1   34.90    2.90
   0   8  -1    7.80    1.50
   8  -8  -1    6.20    1.10
  -8   0  -1    7.90    1.40
   8   0   1    6.60    1.40
   0  -8   1    6.10    1.10
  -8   8   1    8.40    1.60
   1   7  -1    6.50    1.10
  -8   1  -1    6.20    1.30
   7  -8  -1    7.90    1.50
   8  -1   1    6.90    1.30
  -1  -7   1    5.70    1.10
  -7   8   1    5.10    1.10
   6  -8  -1    2.70    0.90
  -8   2  -1    2.70    1.10
   2   6  -1    2.10    1.00
  -2  -6   1    1.80    1.00
  -6   8   1    2.20    0.90
   8  -2   1    0.00    1.00
   5  -8  -1   85.99    5.10
   3   5  -1   85.89    5.10
  -8   3  -1   83.29    5.10
  -3  -5   1   86.39    5.10
  -5   8   1   88.59    5.10
   8  -3   1   80.49    5.20
   4  -8  -1   23.20    2.00
  -8   4  -1   23.40    2.00
   4   4  -1   24.20    1.90
  -4   8   1   24.00    1.90
  -4  -4   1   24.80    1.90
   8  -4   1   21.20    2.00
   3  -8  -1    3.40    0.70
   3  -8  -1    3.10    0.90
   5   3  -1    5.70    1.00
  -8   5  -1    3.70    1.00
  -3   8   1    5.50    0.90
  -3   8   1    4.10    0.90
   8  -5   1    2.10    1.00
  -5  -3   1    3.90    1.00
   6   2  -1   84.29    4.90
   2  -8  -1   79.49    4.90
  -8   6  -1   76.49    5.00
   2  -8  -1   84.79    4.80
  -2   8   1   87.09    4.80
  -6  -2   1   83.69    4.90
   8  -6   1   75.39    5.00
  -2   8   1   81.39    5.00
   1  -8  -1   50.59    3.10
  -8   7  -1   45.10    2.90
   7   1  -1   52.89    3.20
  -8   7  -1   44.40    3.30
   1  -8  -1   47.50    3.20
   8  -7   1   43.20    3.40
  -1   8   1   51.99    3.30
  -1   8   1   50.79    3.10
  -7  -1   1   50.59    3.20
   0  -8  -1    5.40    1.10
   0  -8  -1    8.20    1.60
  -8   8  -1    7.30    1.10
  -8   8  -1    5.20    1.30
   8   0  -1    7.70    1.20
  -8   0   1    6.90    1.20
   8  -8   1    6.20    1.40
   0   8   1    7.90    1.20
   0   8   1    6.10    1.20
  -8   9  -1   21.30    2.30
  -8   9  -1   23.90    1.80
  -1  -8  -1   24.50    2.00
  -8   9  -1   18.30    2.20
   9  -1  -1   23.20    2.10
   1   8   1   23.90    2.20
   1   8   1   23.50    2.10
  -9   1   1   22.60    2.00
  -8  10  -1   12.20    1.40
  10  -2  -1   10.10    1.70
  -8  10  -1    7.00    1.40
  -2  -8  -1    8.80    1.60
  -8  10  -1    6.90    1.40
   2   8   1    9.20    1.70
 -10   2   1   11.60    1.60
   2   8   1   10.30    1.70
  -8  11  -1   14.20    1.60
  -8  11  -1   10.50    1.90
  -3  -8  -1   16.00    1.90
  -8  11  -1    9.80    1.80
  11  -3  -1    9.50    1.70
   3   8   1   13.00    1.80
 -11   3   1   13.90    1.60
   3   8   1   12.80    1.80
  -8  12  -1  175.38   10.90
  -8  12  -1  185.88   10.90
  12  -4  -1  191.88   10.90
  -8  12  -1  189.28   10.80
  -4  -8  -1  187.28   10.90
   4   8   1  189.88   10.90
 -12   4   1  196.78   10.80
   4   8   1  191.48   10.90
  -8  13  -1    5.50    1.30
  13  -5  -1    6.00    1.30
  -8  13  -1    4.90    1.10
  -8  13  -1    4.30    1.50
  -5  -8  -1    8.70    1.60
   5   8   1   10.60    1.80
   5   8   1    9.40    1.70
 -13   5   1    8.40    1.50
  -8  14  -1   95.19    5.80
  -8  14  -1   96.99    5.80
  14  -6  -1   96.79    5.80
  -6  -8  -1   93.19    5.80
   6   8   1   93.69    5.80
   6   8   1   95.59    5.90
  15  -7  -1    5.90    1.40
  -7  -8  -1   10.00    1.60
  -8  15  -1    4.70    1.20
  -8  15  -1    4.30    1.30
   8 -15   1    4.80    1.50
   7   8   1    4.70    1.40
   7   8   1    9.40    1.80
  -8  16  -1    5.20    1.50
  -8  16  -1    2.50    1.20
  16  -8  -1    6.80    1.50
  -8  -8  -1   10.80    1.70
 -16   8   1    5.70    1.60
   8 -16   1    2.10    1.60
   8   8   1    2.90    1.50
   8   8   1    4.40    1.50
  -8  17  -1    6.00    1.50
  17  -9  -1    3.80    1.50
  17  -9  -1    2.10    1.50
  -8  17  -1    3.60    1.30
  -9  -8  -1    6.00    1.40
   8 -17   1    4.30    1.90
   9   8   1    6.60    1.70
 -17   9   1    8.60    1.80
   9   8   1    5.80    1.60
  16  -9  -1   54.49    3.80
  -9  -7  -1   51.79    3.70
  -7  16  -1   62.19    3.90
  16  -9  -1   54.59    4.00
  -7  16  -1   55.39    3.80
   9   7   1   61.99    4.00
   9   7   1   47.80    3.90
   7 -16   1   58.69    4.10
  -6  15  -1   13.00    1.90
  -9  -6  -1   11.40    1.50
  15  -9  -1    9.10    1.60
  15  -9  -1    9.80    1.80
  -6  15  -1    9.20    1.40
 -15   9   1   14.70    2.00
   9   6   1    9.80    1.80
   6 -15   1   13.00    2.00
  14  -9  -1   -0.30    1.20
  -9  -5  -1    1.70    1.00
  -5  14  -1    2.90    1.10
  14  -9  -1    1.20    1.00
  -5  14  -1    0.30    1.10
   9   5   1    1.00    1.20
 -14   9   1    4.70    1.30
   5 -14   1    2.60    1.10
  13  -9  -1    4.20    1.00
  13  -9  -1    1.90    1.00
   9   4   1    2.30    1.20
   4 -13   1    3.60    1.10
  12  -9  -1    9.80    1.60
  -3  12  -1   13.70    1.70
  -9  -3  -1   11.80    1.80
  12  -9  -1   11.40    1.80
   9   3   1    9.40    1.90
 -12   9   1   16.30    1.60
   3 -12   1   13.20    1.70
  11  -9  -1   30.10    2.60
  -2  11  -1   37.00    2.50
   9   2   1   29.50    2.60
   2 -11   1   30.30    2.50
  -9  -1  -1   14.70    1.90
  10  -9  -1   15.10    1.90
  -1  10  -1   18.80    1.90
 -10   9   1   11.30    2.00
   1 -10   1   14.60    1.80
   9   1   1   14.70    2.10
  -9   0  -1   68.59    4.30
   0   9  -1   67.59    4.20
   9  -9  -1   67.89    4.30
   0  -9   1   58.79    4.50
  -9   9   1   66.99    4.30
   9   0   1   67.69    4.40
  -9   1  -1   18.60    3.10
   8  -9  -1   25.00    2.20
   1   8  -1   22.80    2.10
  -1  -8   1   19.70    2.70
  -8   9   1   24.60    2.20
   9  -1   1   23.10    2.30
   2   7  -1   56.49    3.60
  -9   2  -1   54.69    3.70
   7  -9  -1   55.99    3.70
  -7   9   1   56.39    3.70
   9  -2   1   52.79    3.70
  -2  -7   1   55.99    3.60
   3   6  -1  213.48   11.90
  -9   3  -1  213.48   11.90
   6  -9  -1  202.28   11.90
  -6   9   1  205.08   11.90
  -3  -6   1  205.88   11.90
   9  -3   1  205.38   12.00
  -9   5  -1   48.10    3.40
   4  -9  -1   51.59    3.40
   5   4  -1   53.69    3.30
  -5  -4   1   50.59    3.30
  -4   9   1   51.79    3.40
   9  -5   1   47.60    3.50
  -9   6  -1   10.20    1.70
   6   3  -1   11.20    1.60
   3  -9  -1   10.10    1.30
   3  -9  -1   11.00    1.70
  -3   9   1   13.90    1.70
  -6  -3   1   10.90    1.60
  -3   9   1   11.40    1.20
   2  -9  -1    3.20    0.90
   7   2  -1    3.70    1.10
  -9   7  -1    2.00    1.20
   2  -9  -1    2.70    1.10
  -2   9   1    3.10    1.20
  -2   9   1    3.40    1.00
  -7  -2   1    2.50    1.10
   9  -7   1    2.20    1.20
   1  -9  -1   40.20    2.60
  -9   8  -1   34.50    2.90
   1  -9  -1   41.00    2.80
  -9   8  -1   37.40    2.50
   8   1  -1   39.20    2.70
  -1   9   1   30.50    3.90
  -1   9   1   38.40    2.70
   9  -8   1   38.10    3.10
  -8  -1   1   35.90    2.70
   9   0  -1   72.09    4.20
  -9   9  -1   59.29    4.30
  -9   9  -1   62.59    4.00
   0  -9  -1   68.09    4.10
  -9   0   1   69.19    4.20
   0   9   1   69.39    4.30
   0   9   1   68.49    4.10
   9  -9   1   62.39    4.50
  -1  -9  -1   21.80    2.10
  -9  10  -1   22.00    2.40
  10  -1  -1   28.90    2.20
  -9  10  -1   22.50    2.30
  -9  10  -1   25.80    1.90
   1   9   1   26.90    2.20
   1   9   1   26.80    2.30
 -10   1   1   22.00    2.20
  11  -2  -1   87.19    5.10
  -9  11  -1   77.29    5.10
  -9  11  -1   82.89    4.90
  -9  11  -1   82.29    5.20
 -11   2   1   76.69    5.70
   2   9   1   82.89    5.10
   2   9   1   87.69    5.10
  -9  12  -1   13.90    1.50
  -3  -9  -1   12.70    1.70
  12  -3  -1   11.80    1.80
  -9  12  -1    9.60    1.50
  -9  12  -1    9.50    1.50
   3   9   1   13.80    1.80
   3   9   1   14.80    1.80
 -12   3   1   11.80    1.90
  -9  13  -1   42.10    3.20
  -9  13  -1   38.40    3.60
  -9  13  -1   47.50    3.30
  13  -4  -1   48.50    3.30
  -4  -9  -1   44.10    3.20
   4   9   1   49.00    3.30
   4   9   1   49.60    3.30
 -13   4   1   50.49    3.20
  -9  14  -1   10.00    1.90
   5   9   1   12.80    1.90
  -6  -9  -1   75.09    5.00
  -9  15  -1   80.99    5.00
  -9  15  -1   77.69    4.90
  -9  15  -1   78.79    5.20
  15  -6  -1   80.39    5.00
   6   9   1   79.89    5.00
 -15   6   1   76.79    4.90
   6   9   1   74.79    5.00
  -9  16  -1    3.70    1.30
  -9  16  -1    3.60    1.20
  -7  -9  -1    4.00    1.40
  16  -7  -1    7.40    1.50
  16  -7  -1   -0.40    1.50
   7   9   1    5.70    1.30
   7   9   1    6.20    1.50
 -16   7   1    7.00    1.60
  -9  17  -1   27.00    2.70
  -8  -9  -1   27.90    2.60
  -9  17  -1   28.40    2.70
  17  -8  -1   32.50    2.70
  17  -8  -1   25.90    3.00
   8   9   1   24.90    2.80
 -17   8   1   28.20    2.80
   8   9   1   26.70    2.70
  18  -9  -1   26.40    2.70
  -9  18  -1   26.80    2.60
  -9  -9  -1   17.60    2.50
  -9  18  -1   24.90    2.70
  18  -9  -1   24.60    2.90
 -18   9   1   26.60    2.90
   9   9   1   22.40    3.00
   9   9   1   18.70    2.50
   9 -18   1   30.60    3.30
  -9  19  -1    4.10    1.70
  19 -10  -1    0.20    1.60
 -10  -9  -1    3.80    1.70
  19 -10  -1    1.80    1.80
  -9  19  -1   -0.10    1.60
   9 -19   1    1.90    2.20
 -19  10   1    4.70    2.00
  10   9   1    0.70    2.00
  10   9   1    2.40    1.70
  18 -10  -1   -0.40    1.50
  18 -10  -1    1.00    1.50
  -8  18  -1   -0.90    1.30
  -8  18  -1    1.40    1.50
 -10  -8  -1    4.80    1.40
 -18  10   1    3.60    1.90
   8 -18   1    1.50    2.10
  10   8   1    1.90    1.40
  10   8   1    5.80    1.90
  17 -10  -1    7.40    1.60
  -7  17  -1   10.30    2.00
  17 -10  -1    4.60    1.60
 -10  -7  -1    5.50    1.40
  -7  17  -1    6.20    1.40
 -17  10   1   10.20    1.80
  10   7   1    7.30    1.60
   7 -17   1    8.60    2.00
 -10  -6  -1   21.00    2.00
  16 -10  -1   21.80    2.30
  -6  16  -1   16.10    2.10
  16 -10  -1   18.80    2.40
  -6  16  -1   25.10    2.30
  10   6   1   22.30    2.40
 -16  10   1   26.20    2.40
   6 -16   1   24.60    2.60
  -5  15  -1   60.19    4.20
  -5  15  -1   66.19    4.20
 -10  -5  -1   55.59    4.20
  15 -10  -1   67.39    4.30
  15 -10  -1   65.79    4.20
 -15  10   1   65.39    4.20
   5 -15   1   73.09    4.30
  10   5   1   61.19    4.30
  14 -10  -1   91.49    5.50
 -10  -4  -1   81.89    5.60
  14 -10  -1   96.19    5.70
  -4  14  -1   92.99    5.60
  -4  14  -1   91.29    5.60
  10   4   1   88.89    5.70
   4 -14   1   92.19    5.70
 -14  10   1   91.69    5.50
  13 -10  -1  146.09    8.40
  -3  13  -1  151.48    8.60
 -10  -3  -1  139.29    8.60
  13 -10  -1  147.49    8.60
  -3  13  -1  144.99    8.60
  10   3   1  147.59    8.70
   3 -13   1  148.99    8.60
 -13  10   1  139.89    8.40
  -2  12  -1   37.90    2.80
  12 -10  -1   38.00    2.80
 -10  -2  -1   34.30    2.90
   2 -12   1   36.60    2.80
  10   2   1   40.30    2.90
  11 -10  -1  133.39    7.90
  -1  11  -1  133.89    7.90
 -10  -1  -1  127.69    7.90
   1 -11   1  133.19    7.90
 -11  10   1  139.59    8.00
  10   1   1  136.79    8.00
  10 -10  -1    1.50    1.00
   0  10  -1    0.60    1.10
 -10   0  -1    0.20    1.20
 -10  10   1    0.90    1.20
   0 -10   1    1.20    0.90
  10   0   1   -0.60    1.20
 -10   1  -1   26.20    2.40
   9 -10  -1   28.00    2.40
   1   9  -1   27.50    2.30
  -9  10   1   24.80    3.60
  10  -1   1   26.30    2.50
  -1  -9   1   28.00    2.20
 -10   2  -1   10.30    1.90
   2   8  -1   11.10    1.70
   8 -10  -1   12.40    1.80
  -2  -8   1   10.70    1.60
  10  -2   1    9.70    1.60
   3   7  -1    9.00    1.60
 -10   3  -1    5.00    2.40
  -3  -7   1    6.40    1.30
  10  -3   1    4.40    1.40
 -10   4  -1   44.50    3.10
   4   6  -1   45.00    3.00
   6 -10  -1   46.00    3.10
  -6  10   1   33.60    3.90
  10  -4   1   42.00    3.20
  -4  -6   1   40.60    3.00
   5 -10  -1   20.20    2.00
 -10   5  -1   15.60    2.00
   5   5  -1   18.00    1.90
  10  -5   1   12.80    2.10
  -5  10   1   18.40    2.30
  -5  -5   1   17.40    1.90
 -10   6  -1   64.39    4.20
   6   4  -1   68.89    4.20
   4 -10  -1   66.79    4.20
   4 -10  -1   63.39    3.90
  -4  10   1   66.99    4.30
  -4  10   1   67.69    3.90
  -6  -4   1   61.59    4.20
  10  -6   1   62.69    4.30
   3 -10  -1   35.40    2.70
 -10   7  -1   31.80    2.70
   7   3  -1   38.30    2.60
   3 -10  -1   30.70    2.30
  -7  -3   1   31.50    2.60
  -3  10   1   35.60    2.30
  10  -7   1   29.30    2.80
  -3  10   1   38.40    2.70
   8   2  -1  158.48    9.00
 -10   8  -1  157.38    8.80
 -10   8  -1  151.48    9.10
   2 -10  -1  150.28    9.00
   2 -10  -1  155.48    8.90
  -2  10   1  156.38    9.10
  -2  10   1  160.78    8.90
  10  -8   1  156.28    8.80
  10  -8   1  149.39    9.10
  -8  -2   1  153.78    9.00
 -10   9  -1    9.80    1.90
   1 -10  -1   15.30    1.70
 -10   9  -1   11.60    1.50
   9   1  -1   19.20    1.80
   1 -10  -1   15.50    1.90
  10  -9   1   11.70    2.10
  -1  10   1   13.20    2.00
  -1  10   1   14.70    1.60
 -10  10  -1   -0.20    1.00
   0 -10  -1    1.90    1.00
  10   0  -1    1.90    1.10
 -10  10  -1    1.90    0.80
   0  10   1    1.60    1.10
 -10   0   1    2.20    1.10
   0  10   1    1.40    1.10
  10 -10   1    0.70    1.30
  -1 -10  -1   29.40    3.00
 -10  11  -1   28.80    2.50
  11  -1  -1   27.50    2.30
 -10  11  -1   27.50    2.10
 -10  11  -1   22.30    2.30
 -11   1   1   29.00    2.30
   1  10   1   27.10    2.30
   1  10   1   25.60    2.20
 -10  12  -1  100.59    6.50
 -10  12  -1  105.79    6.80
 -10  12  -1  105.39    6.30
  12  -2  -1  110.39    6.50
  -2 -10  -1  104.89    6.40
   2  10   1  112.99    6.50
   2  10   1  107.79    6.40
 -12   2   1  110.69    6.40
 -10  13  -1   24.90    2.50
 -10  13  -1   23.30    2.40
 -10  13  -1   23.20    2.30
  13  -3  -1   22.20    2.30
  -3 -10  -1   23.30    2.20
 -13   3   1   26.30    2.20
   3  10   1   26.70    2.30
   3  10   1   28.50    2.30
 -10  14  -1  142.59    8.30
  14  -4  -1  144.19    8.40
 -10  14  -1  144.49    8.50
 -10  14  -1  139.69    8.50
  -4 -10  -1  137.99    8.40
   4  10   1  142.49    8.50
   4  10   1  147.79    8.40
 -14   4   1  141.89    8.40
  -5 -10  -1   -0.80    1.30
 -10  15  -1    1.80    1.20
 -10  15  -1   -0.40    1.30
  15  -5  -1    3.20    1.40
 -10  15  -1    3.30    1.50
   5  10   1    2.80    1.40
 -15   5   1    2.70    1.30
   5  10   1    3.40    1.20
 -10  16  -1   46.50    3.50
 -10  16  -1   50.09    3.50
  -6 -10  -1   37.20    3.40
  16  -6  -1   49.80    3.50
 -10  16  -1   48.90    3.70
   6  10   1   46.40    3.50
 -16   6   1   48.00    3.50
   6  10   1   47.00    3.50
 -10  17  -1    4.40    1.50
  17  -7  -1    6.40    1.70
 -10  17  -1    2.40    1.40
  -7 -10  -1    3.10    1.60
  17  -7  -1    0.40    1.60
 -10  17  -1    5.20    1.80
   7  10   1    3.60    1.60
   7  10   1    3.30    1.50
 -17   7   1    3.30    1.80
 -10  18  -1   -1.30    1.70
  -8 -10  -1    1.20    1.70
  18  -8  -1   -3.00    1.50
  18  -8  -1    1.70    1.60
 -10  18  -1    0.20    1.40
 -10  18  -1    2.50    2.00
 -18   8   1    0.90    1.90
   8  10   1   -2.00    1.60
   8  10   1    0.60    1.60
  19  -9  -1    2.20    1.80
  -9 -10  -1    2.90    1.80
 -10  19  -1    2.00    1.60
  19  -9  -1   -2.80    1.70
 -10  19  -1    0.50    1.90
   9  10   1    1.40    2.00
 -19   9   1    0.30    2.00
   9  10   1    1.20    1.60
 -10  20  -1    3.60    1.70
 -10 -10  -1    3.10    1.90
  20 -10  -1    0.70    1.80
 -10  20  -1   -0.70    2.20
  20 -10  -1   -0.70    1.90
  10  10   1    1.30    1.70
  10  10   1    1.00    2.20
 -20  10   1    2.60    2.20
 -10  21  -1    7.10    2.00
  21 -11  -1    5.50    2.20
  21 -11  -1    7.90    2.00
 -10  21  -1    4.30    2.70
 -21  11   1    5.80    2.50
  11  10   1    3.50    2.60
  11  10   1    7.70    2.30
  10 -21   1   10.20    2.90
  -9  20  -1   21.00    2.70
 -11  -9  -1   13.50    2.50
  -9  20  -1   18.90    3.00
  20 -11  -1   18.70    2.80
  20 -11  -1   19.30    2.90
  11   9   1   16.90    3.40
  11   9   1   21.60    2.60
 -20  11   1   17.80    3.10
   9 -20   1   22.30    3.10
  -8  19  -1   14.70    2.50
  19 -11  -1   14.30    2.60
  -8  19  -1   12.20    2.30
 -11  -8  -1   15.10    2.10
  19 -11  -1   13.10    2.60
  11   8   1   15.50    3.10
  11   8   1   13.10    2.40
   8 -19   1   18.20    3.30
 -19  11   1   16.90    2.90
  -7  18  -1   20.20    2.50
 -11  -7  -1   20.80    2.30
  18 -11  -1   29.00    2.70
  -7  18  -1   28.70    2.70
  18 -11  -1   24.70    2.70
   7 -18   1   24.70    3.20
  11   7   1   20.80    2.60
 -18  11   1   27.90    2.90
 -11  -6  -1    6.10    1.40
  -6  17  -1    7.40    1.70
  17 -11  -1    6.40    1.50
  -6  17  -1    2.30    1.40
  17 -11  -1    8.80    1.60
   6 -17   1    8.40    1.90
  11   6   1    5.60    1.70
 -17  11   1    9.30    2.20
 -11  -5  -1    5.00    1.50
  -5  16  -1    4.90    1.30
  16 -11  -1    7.10    1.40
  16 -11  -1    6.50    1.40
 -16  11   1   11.50    2.10
  11   5   1    4.00    1.60
   5 -16   1    6.60    1.50
  -4  15  -1    3.60    1.30
  -4  15  -1    2.30    1.20
 -11  -4  -1    2.20    1.30
  15 -11  -1    2.40    1.20
  15 -11  -1    0.90    1.20
   4 -15   1    2.10    1.20
 -15  11   1    5.00    1.40
  11   4   1   -0.20    1.30
  14 -11  -1   26.60    2.50
  -3  14  -1   31.70    2.40
  -3  14  -1   29.90    2.40
 -11  -3  -1   27.10    2.50
  14 -11  -1   28.50    2.40
 -14  11   1   29.10    2.30
  11   3   1   28.10    2.60
   3 -14   1   27.10    2.50
  13 -11  -1    0.90    1.00
  11   2   1    1.10    1.20
   2 -13   1    1.90    1.10
 -11  -1  -1   54.99    3.80
  12 -11  -1   55.79    3.80
  -1  12  -1   57.19    3.80
   1 -12   1   59.79    3.80
 -12  11   1   55.99    3.90
  11   1   1   57.29    3.90
 -11   0  -1   40.80    3.10
   0  11  -1   43.80    3.10
  11 -11  -1   44.40    3.10
   0 -11   1   44.30    3.10
 -11  11   1   46.10    3.30
  11   0   1   44.10    3.20
   1  10  -1   28.60    2.40
  10 -11  -1   28.40    2.40
 -11   1  -1   28.80    2.40
  11  -1   1   29.10    2.50
 -10  11   1   25.90    2.50
  -1 -10   1   30.00    2.30
   9 -11  -1   84.19    5.10
   2   9  -1   84.09    5.10
 -11   2  -1   83.19    5.20
  -9  11   1   82.79    5.20
  -2  -9   1   80.49    5.10
  11  -2   1   83.69    5.30
   8 -11  -1   15.00    1.80
   3   8  -1   13.90    1.70
 -11   3  -1   13.60    1.90
  -3  -8   1   14.90    1.70
  -8  11   1   12.60    1.80
  11  -3   1   11.50    2.00
   7 -11  -1  103.09    6.20
   4   7  -1  105.39    6.10
 -11   4  -1   98.29    6.20
  -4  -7   1  100.49    6.20
  -7  11   1  100.49    6.10
  11  -4   1  105.79    6.30
   5   6  -1  140.39    8.10
 -11   5  -1  141.79    8.20
   6 -11  -1  142.29    8.10
  11  -5   1  129.69    8.10
  -5  -6   1  133.99    8.10
  -6  11   1  138.19    8.10
   5 -11  -1   26.20    2.30
   6   5  -1   25.60    2.20
   5 -11  -1   24.50    1.90
  11  -6   1   18.20    2.30
  -5  11   1   30.10    2.30
  -6  -5   1   24.00    2.20
   7   4  -1    6.70    1.30
 -11   7  -1    3.50    1.40
   4 -11  -1    7.90    1.30
   4 -11  -1    9.90    1.70
  -4  11   1    7.80    1.20
  -7  -4   1    4.90    1.30
  -4  11   1   10.00    1.70
  11  -7   1    4.60    1.40
   8   3  -1  295.97   16.40
 -11   8  -1  300.97   16.50
   3 -11  -1  285.07   16.40
   3 -11  -1  282.37   16.30
  11  -8   1  278.07   16.50
  -3  11   1  304.27   16.30
  -8  -3   1  278.07   16.40
  -3  11   1  285.57   16.50
   2 -11  -1   31.90    2.40
 -11   9  -1   29.70    2.40
 -11   9  -1   30.80    2.70
   2 -11  -1   32.90    2.60
   9   2  -1   39.50    2.60
  11  -9   1   34.50    2.30
  -9  -2   1   33.30    2.50
  11  -9   1   28.70    2.80
  -2  11   1   39.60    2.40
   1 -11  -1  134.19    7.80
 -11  10  -1  133.09    7.90
  10   1  -1  133.09    7.80
 -11  10  -1  134.19    7.70
  11 -10   1  134.99    7.70
  -1  11   1  133.79    7.80
  -1  11   1  130.99    7.90
 -10  -1   1  129.79    7.90
  11 -10   1  137.69    8.10
  11   0  -1   49.20    3.10
 -11  11  -1   43.80    2.90
   0 -11  -1   39.70    3.20
 -11  11  -1   41.70    3.40
   0  11   1   44.30    3.10
  11 -11   1   46.70    3.50
   0  11   1   43.20    3.00
 -11   0   1   38.50    3.00
 -11  12  -1   17.30    1.80
  12  -1  -1   21.40    2.00
  -1 -11  -1   20.40    1.90
 -11  12  -1   15.10    2.00
   1  11   1   14.20    1.90
   1  11   1   18.50    1.90
 -12   1   1   20.80    2.00
 -11  13  -1    2.50    1.00
 -11  13  -1    2.50    1.30
 -11  13  -1    2.70    1.20
  -2 -11  -1    1.50    1.10
  13  -2  -1    0.30    1.20
   2  11   1    3.00    1.20
   2  11   1    0.20    1.00
 -13   2   1    2.90    1.10
 -11  14  -1   10.00    1.60
  -3 -11  -1    8.30    1.60
  14  -3  -1    9.60    1.60
 -11  14  -1   12.40    1.80
 -11  14  -1   13.00    2.20
   3  11   1   10.50    1.80
   3  11   1   11.20    1.90
 -14   3   1   11.00    1.80
 -11  15  -1   10.40    1.90
  -4 -11  -1    6.60    1.50
 -11  15  -1   11.90    2.20
  15  -4  -1    7.30    1.70
 -11  15  -1    7.80    1.40
   4  11   1    7.80    1.50
 -15   4   1    7.30    1.60
   4  11   1   11.80    1.80
 -11  16  -1    3.60    1.50
 -11  16  -1    4.40    1.70
  16  -5  -1    7.00    1.50
  -5 -11  -1    2.90    1.50
 -11  16  -1    4.40    1.40
   5  11   1    5.20    1.30
 -16   5   1    5.60    1.60
   5  11   1    7.60    1.50
  17  -6  -1   18.60    2.50
 -11  17  -1   15.40    2.50
  -6 -11  -1   16.20    2.10
 -11  17  -1   17.80    2.40
 -11  17  -1   17.70    2.80
   6  11   1   16.60    2.20
 -17   6   1   19.60    2.60
   6  11   1   22.70    2.40
 -11  18  -1   -0.40    1.60
 -11  18  -1    0.10    1.80
  18  -7  -1    1.40    1.70
  18  -7  -1   -3.60    1.50
 -11  18  -1   -0.80    1.40
 -18   7   1    1.40    1.90
   7  11   1   -2.80    1.40
   7  11   1    0.10    1.60
  -8 -11  -1    1.90    1.90
 -11  19  -1    8.20    2.30
  19  -8  -1   10.50    2.10
  19  -8  -1    5.60    1.90
 -11  19  -1   10.90    1.90
 -11  19  -1    6.20    2.00
   8  11   1    6.40    2.00
 -19   8   1   10.50    2.30
   8  11   1    8.00    2.00
  20  -9  -1    3.20    1.90
 -11  20  -1    4.50    1.80
  -9 -11  -1   -0.80    2.00
  20  -9  -1    3.90    2.10
 -11  20  -1    6.00    2.30
 -11  20  -1    4.10    2.20
   9  11   1    2.70    1.80
   9  11   1    4.50    2.30
 -20   9   1    5.10    2.40
 -11  21  -1    1.50    1.80
  21 -10  -1    1.90    1.80
  21 -10  -1   -1.70    2.10
 -11  21  -1    3.70    2.70
 -11  21  -1   -0.70    2.40
 -21  10   1    1.40    2.50
  10  11   1   -0.60    2.40
  10  11   1    0.20    1.90
 -11  22  -1    2.30    2.00
 -11  22  -1   -0.10    2.70
  22 -11  -1    1.30    2.30
 -11  22  -1    2.90    2.90
  22 -11  -1   -2.00    2.00
 -22  11   1    0.90    2.60
  11  11   1   -1.60    2.60
  11  11   1    0.70    1.80
  23 -12  -1   20.60    3.50
  23 -12  -1   30.30    3.70
 -11  23  -1   29.50    4.90
 -11  23  -1   25.40    3.30
  12  11   1   19.60    3.40
  12  11   1   20.60    3.00
 -23  12   1   21.40    4.20
 -10  22  -1    6.40    2.20
  22 -12  -1    1.60    2.00
  22 -12  -1    5.30    2.40
  12  10   1    2.30    2.80
 -22  12   1    6.90    2.70
  10 -22   1    8.40    3.30
  12  10   1    8.00    2.00
  21 -12  -1    8.80    2.30
  21 -12  -1    4.60    2.00
  -9  21  -1    2.80    2.30
  -9  21  -1    8.50    2.00
 -21  12   1    6.40    2.40
  12   9   1    5.40    2.50
   9 -21   1    5.00    3.00
  -8  20  -1    0.40    1.70
 -12  -8  -1    3.70    1.50
  20 -12  -1    2.90    1.90
  -8  20  -1    5.10    1.90
  20 -12  -1    4.00    1.80
  12   8   1    4.80    1.90
 -20  12   1    6.00    2.30
  12   8   1    5.20    2.30
   8 -20   1    3.90    2.50
  19 -12  -1    1.70    1.70
  -7  19  -1   -1.90    1.50
  -7  19  -1    2.00    1.70
  19 -12  -1    1.70    1.70
 -12  -7  -1    4.50    1.40
 -19  12   1    1.80    2.10
   7 -19   1    0.20    2.30
  12   7   1   -1.50    1.60
  18 -12  -1    4.80    1.70
  -6  18  -1    5.00    1.70
  -6  18  -1   -0.20    1.50
  18 -12  -1    3.50    1.50
 -12  -6  -1    3.50    1.40
 -18  12   1    4.50    2.10
   6 -18   1    3.70    2.10
  12   6   1    2.10    1.70
  17 -12  -1    2.40    1.60
 -12  -5  -1    2.30    1.40
  -5  17  -1    2.00    1.40
  17 -12  -1    0.70    1.40
  -5  17  -1   -0.90    1.30
  12   5   1    0.90    1.50
   5 -17   1   -0.10    1.70
 -17  12   1    2.70    1.70
  -4  16  -1   11.40    2.00
  -4  16  -1   13.20    2.10
  16 -12  -1   16.30    2.20
 -12  -4  -1   14.30    2.00
  16 -12  -1   13.60    2.10
 -16  12   1   13.90    2.10
  12   4   1   13.10    2.20
   4 -16   1   12.40    2.20
  -3  15  -1   17.20    2.10
  -3  15  -1   16.50    2.10
 -12  -3  -1   18.70    2.20
  15 -12  -1   20.70    2.30
  15 -12  -1   21.00    2.20
   3 -15   1   19.90    2.20
 -15  12   1   16.90    2.10
  12   3   1   17.70    2.20
  14 -12  -1    5.90    1.30
 -12  -2  -1   10.50    1.80
  -2  14  -1    6.70    1.20
  -2  14  -1    8.00    1.50
  12   2   1    6.10    1.50
   2 -14   1   11.30    1.80
 -12  -1  -1   36.80    3.10
  -1  13  -1   41.30    3.00
  13 -12  -1   42.30    3.10
  12   1   1   38.70    3.20
   1 -13   1   40.80    3.10
 -13  12   1   44.50    3.30
  12 -12  -1    4.40    1.20
 -12   0  -1    5.00    1.30
   0  12  -1    5.30    1.30
   0 -12   1    5.90    1.20
 -12  12   1    4.10    1.30
  12   0   1    4.30    1.40
   1  11  -1   20.40    2.00
 -12   1  -1   15.90    2.00
  11 -12  -1   18.80    2.10
 -11  12   1   21.60    2.20
  -1 -11   1   22.40    2.00
  12  -1   1   21.90    2.30
  10 -12  -1  109.69    6.50
   2  10  -1  112.19    6.50
 -12   2  -1  108.49    6.50
 -10  12   1  108.19    6.60
  -2 -10   1  102.69    6.50
  12  -2   1  110.99    6.70
   9 -12  -1   13.40    1.80
   3   9  -1   15.50    1.80
 -12   3  -1   13.30    1.80
  -3  -9   1   12.10    1.60
  -9  12   1   13.10    1.80
  12  -3   1   13.90    2.00
   8 -12  -1  185.88   10.50
 -12   4  -1  184.58   10.60
   4   8  -1  185.08   10.50
  -8  12   1  182.28   10.60
  12  -4   1  183.38   10.70
  -4  -8   1  173.08   10.60
   7 -12  -1   28.10    2.40
 -12   5  -1   28.40    2.40
   5   7  -1   26.80    2.30
  -7  12   1   28.60    2.30
  -5  -7   1   30.10    2.30
  12  -5   1   25.90    2.50
   6 -12  -1   46.00    3.20
   6   6  -1   46.90    3.10
 -12   6  -1   45.30    3.20
  -6  -6   1   42.90    3.20
  -6  12   1   46.10    3.10
  12  -6   1   42.70    3.30
   7   5  -1  100.79    6.00
   5 -12  -1   96.59    5.80
   5 -12  -1   99.09    6.00
 -12   7  -1   99.89    6.10
  -7  -5   1   95.39    6.00
  -5  12   1  100.39    6.00
  12  -7   1   95.19    6.10
  -5  12   1  104.09    5.80
   8   4  -1   60.59    3.90
   4 -12  -1   59.79    3.90
   4 -12  -1   57.79    3.70
 -12   8  -1   56.49    3.90
  -4  12   1   61.19    3.90
  -4  12   1   64.19    3.70
  12  -8   1   57.49    4.10
  -8  -4   1   55.89    3.90
   9   3  -1   12.60    1.70
   3 -12  -1   12.20    1.80
   3 -12  -1   12.10    1.50
 -12   9  -1   14.50    1.90
  12  -9   1   13.00    1.30
  -9  -3   1    9.70    1.50
  -3  12   1   14.70    1.50
  12  -9   1   10.00    1.70
  -3  12   1   12.30    1.80
 -12  10  -1   38.70    2.90
  10   2  -1   37.00    2.80
   2 -12  -1   38.40    2.70
 -12  10  -1   39.80    2.70
  -2  12   1   37.80    2.70
 -10  -2   1   32.00    2.70
  12 -10   1   39.50    3.10
  12 -10   1   40.80    2.50
  -2  12   1   34.30    2.90
 -12  11  -1   55.89    3.70
   1 -12  -1   50.19    3.60
  11   1  -1   53.39    3.70
 -12  11  -1   55.29    3.60
  -1  12   1   58.29    3.60
  -1  12   1   53.59    3.80
 -11  -1   1   52.19    3.70
  12 -11   1   62.89    4.00
  12 -11   1   53.99    3.40
 -12  12  -1    3.30    1.30
  12   0  -1    4.90    1.30
   0 -12  -1    5.40    1.20
 -12  12  -1    4.30    1.00
   0  12   1    4.40    1.20
 -12   0   1    5.00    1.30
   0  12   1    2.00    1.10
 -12  13  -1   32.70    2.60
 -12  13  -1   33.70    2.90
  -1 -12  -1   31.30    2.70
 -12  13  -1   34.50    2.70
  13  -1  -1   35.00    2.70
   1  12   1   35.20    2.60
   1  12   1   30.20    2.60
 -13   1   1   32.70    2.70
  14  -2  -1   53.39    3.70
 -12  14  -1   53.59    3.90
  -2 -12  -1   53.39    3.70
 -12  14  -1   52.39    3.70
 -12  14  -1   45.50    3.70
   2  12   1   54.29    3.70
   2  12   1   55.79    3.70
 -14   2   1   55.39    3.60
  -3 -12  -1   19.00    2.10
 -12  15  -1   18.00    2.20
 -12  15  -1   20.00    2.60
 -12  15  -1   21.90    2.30
  15  -3  -1   17.70    2.20
   3  12   1   20.10    2.30
   3  12   1   19.10    2.20
 -15   3   1   18.30    2.20
 -12  16  -1   20.40    2.40
 -12  16  -1   18.90    2.40
  -4 -12  -1   19.40    2.20
 -12  16  -1   21.70    2.70
  16  -4  -1   19.90    2.40
 -16   4   1   23.50    2.40
   4  12   1   22.50    2.40
   4  12   1   17.60    2.40
  17  -5  -1    1.00    1.50
 -12  17  -1    0.50    1.60
 -12  17  -1   -2.60    1.80
 -12  17  -1   -1.50    1.50
  -5 -12  -1   -0.20    1.50
   5  12   1    0.30    1.50
   5  12   1   -1.60    1.30
 -17   5   1    2.30    1.80
 -12  18  -1    1.60    1.90
  -6 -12  -1    0.50    1.60
  18  -6  -1    0.60    1.70
 -12  18  -1    0.40    1.70
 -12  18  -1   -1.30    1.50
   6  12   1    1.30    1.30
 -18   6   1   -0.20    1.90
   6  12   1    3.10    1.60
  -7 -12  -1   10.00    2.00
 -12  19  -1   12.80    2.00
 -12  19  -1   11.80    2.50
  19  -7  -1   14.30    2.70
 -12  19  -1   10.90    2.30
   7  12   1   12.40    2.10
   7  12   1   13.10    2.10
 -19   7   1   14.20    2.40
 -12  20  -1   11.30    2.00
  20  -8  -1    9.30    2.20
  20  -8  -1   14.70    2.40
 -12  20  -1   12.50    2.50
 -12  20  -1    9.00    2.50
  -8 -12  -1    3.50    2.00
   8  12   1    9.60    2.10
   8  12   1   10.00    2.20
 -20   8   1   10.80    2.50
 -12  21  -1    7.00    2.70
  21  -9  -1   13.90    2.50
 -12  21  -1   13.60    2.90
 -12  21  -1   11.10    2.10
  21  -9  -1   13.30    2.30
 -21   9   1    8.40    2.70
   9  12   1    9.70    2.20
   9  12   1    5.50    2.50
 -12  22  -1    6.70    3.00
 -12  22  -1    9.30    2.90
 -12  22  -1    9.10    2.20
  22 -10  -1    8.40    2.20
  22 -10  -1    8.40    2.60
  10  12   1    4.80    2.70
 -22  10   1   10.10    2.90
  10  12   1    9.10    2.20
 -12  23  -1    5.60    3.30
 -12  23  -1   12.00    2.50
  23 -11  -1    7.70    2.70
  23 -11  -1   11.20    2.50
 -23  11   1   10.30    3.20
  11  12   1   12.70    2.30
 -12  24  -1   17.70    3.40
  24 -12  -1   15.60    2.80
  24 -12  -1   27.80    3.90
 -12  24  -1   18.50    4.00
 -24  12   1   14.90    3.50
  12  12   1   19.20    2.90
 -12  25  -1    9.90    4.20
  25 -13  -1   20.40    4.00
  25 -13  -1   16.30    3.30
 -12  25  -1   17.10    2.90
  13  12   1   12.80    2.80
 -25  13   1   19.40    3.90
  24 -13  -1    3.00    2.80
  24 -13  -1    1.00    2.30
 -11  24  -1    6.40    2.40
 -24  13   1    4.70    3.30
  13  11   1    3.70    2.10
  23 -13  -1   10.00    2.30
  23 -13  -1   11.60    2.80
 -10  23  -1   15.80    3.00
 -23  13   1    9.90    3.00
  13  10   1    3.90    3.00
  13  10   1    7.40    2.20
  10 -23   1   15.30    3.70
  22 -13  -1   11.30    2.50
  -9  22  -1   16.30    2.90
  22 -13  -1    7.20    2.10
  13   9   1   11.10    2.20
  13   9   1    9.80    2.90
 -22  13   1   10.50    2.80
   9 -22   1   15.80    3.60
  -8  21  -1    1.30    2.00
  -8  21  -1    6.70    2.10
  21 -13  -1    5.70    2.00
  21 -13  -1    9.30    2.30
  13   8   1    8.70    2.50
 -21  13   1    7.50    2.50
  13   8   1    3.90    1.90
   8 -21   1    6.20    2.90
 -13  -7  -1   11.50    2.50
  20 -13  -1   10.00    2.30
  20 -13  -1    5.40    1.90
  -7  20  -1    9.60    2.00
 -20  13   1    8.00    2.40
  13   7   1    6.10    2.00
   7 -20   1   11.60    2.80
  -6  19  -1    1.30    1.70
  19 -13  -1    2.50    1.90
 -13  -6  -1    0.00    1.60
  19 -13  -1    0.70    1.50
   6 -19   1   -0.30    2.30
 -19  13   1    2.30    2.00
  13   6   1    1.10    1.70
  18 -13  -1   16.30    2.50
  -5  18  -1    8.90    1.80
  -5  18  -1   12.80    2.50
  18 -13  -1   13.90    2.50
 -13  -5  -1   11.10    2.20
   5 -18   1   15.40    2.40
 -18  13   1   14.10    2.30
  13   5   1   13.00    2.30
  17 -13  -1   10.00    1.90
  17 -13  -1   13.70    2.30
  -4  17  -1    7.00    1.60
 -13  -4  -1    7.10    1.80
  -4  17  -1   11.30    1.80
 -17  13   1   10.00    1.80
  13   4   1   10.80    1.80
   4 -17   1   11.10    2.10
 -13  -3  -1    7.10    1.50
  -3  16  -1    7.40    1.60
  -3  16  -1    6.70    1.40
  16 -13  -1    6.60    1.40
  16 -13  -1    6.80    1.60
  13   3   1    6.50    1.60
   3 -16   1    8.10    1.70
  -2  15  -1   19.00    2.20
  -2  15  -1   21.10    2.00
  15 -13  -1   22.10    2.30
 -13  -2  -1   16.30    2.20
   2 -15   1   21.60    2.30
  13   2   1   16.00    2.30
 -13  -1  -1   20.20    2.30
  14 -13  -1   25.00    2.30
  -1  14  -1   26.10    2.40
  13   1   1   22.00    2.50
   1 -14   1   23.50    2.30
 -14  13   1   26.30    2.70
   0  13  -1   25.00    2.30
 -13   0  -1   21.00    2.20
  13 -13  -1   27.80    2.40
   0 -13   1   26.00    2.30
  13   0   1   27.40    2.50
 -13  13   1   24.90    2.50
   1  12  -1   33.90    2.70
 -13   1  -1   30.80    2.70
  12 -13  -1   35.20    2.70
 -12  13   1   36.50    2.90
  13  -1   1   37.90    2.90
  -1 -12   1   34.70    2.80
   2  11  -1    3.20    1.20
 -13   2  -1    2.00    1.10
  11 -13  -1    4.10    1.10
  -2 -11   1    3.60    1.10
  13  -2   1    2.60    1.30
 -11  13   1    2.80    1.10
   3  10  -1   25.70    2.30
  10 -13  -1   28.40    2.30
 -13   3  -1   26.20    2.40
  13  -3   1   27.80    2.50
 -10  13   1   26.30    2.40
  -3 -10   1   25.00    2.10
 -13   4  -1   48.10    3.40
   9 -13  -1   50.19    3.30
   4   9  -1   51.29    3.30
  -4  -9   1   42.50    3.20
  -9  13   1   49.60    3.40
  13  -4   1   46.80    3.50
 -13   5  -1    9.30    1.80
   8 -13  -1   10.00    1.70
   5   8  -1    8.90    1.60
  13  -5   1   10.20    1.80
  -5  -8   1    5.70    1.30
  -8  13   1    8.90    1.50
   7 -13  -1   83.89    5.10
 -13   6  -1   85.39    5.20
   6   7  -1   82.59    5.00
  13  -6   1   85.79    5.20
  -6  -7   1   71.19    5.00
  -7  13   1   81.19    5.00
   6 -13  -1   18.30    2.00
   7   6  -1   19.20    1.90
   6 -13  -1   15.80    1.70
 -13   7  -1   16.90    2.10
  -6  13   1   17.90    1.60
  -6  13   1   21.10    1.90
  -7  -6   1   19.00    2.00
  13  -7   1   15.20    2.10
 -13   8  -1  145.89    8.40
   5 -13  -1  142.39    8.30
   8   5  -1  145.29    8.30
   5 -13  -1  136.39    8.20
  13  -8   1  145.89    8.50
  -5  13   1  141.49    8.40
  -5  13   1  145.89    8.10
  -8  -5   1  128.79    8.30
 -13   9  -1    5.20    1.20
  13  -9   1    2.50    1.40
 -13  10  -1  151.48    8.60
 -13  10  -1  159.18    8.40
   3 -13  -1  135.89    8.50
   3 -13  -1  140.29    8.40
  10   3  -1  145.89    8.50
  -3  13   1  148.39    8.40
  13 -10   1  148.39    8.70
 -10  -3   1  132.49    8.50
  -3  13   1  142.49    8.60
  13 -10   1  143.89    8.30
  11   2  -1    2.10    1.20
 -13  11  -1    1.10    1.00
   2 -13  -1    2.80    1.20
  13 -11   1    1.90    1.50
 -11  -2   1    1.40    1.10
  -2  13   1    1.00    1.30
 -13  12  -1   40.50    2.90
   1 -13  -1   38.80    3.00
  12   1  -1   41.20    3.00
 -13  12  -1   41.40    3.20
  13 -12   1   43.80    3.40
  13 -12   1   39.60    2.80
 -12  -1   1   38.70    3.00
  -1  13   1   41.40    2.90
  -1  13   1   40.60    3.10
  13   0  -1   27.10    2.40
 -13  13  -1   26.50    2.30
 -13  13  -1   24.60    2.60
   0 -13  -1   24.50    2.30
 -13   0   1   21.20    2.30
   0  13   1   24.50    2.30
  -1 -13  -1    4.40    1.50
  14  -1  -1    2.20    1.40
 -13  14  -1    1.70    1.30
 -13  14  -1    0.40    1.50
 -14   1   1    3.40    1.30
   1  13   1    0.00    1.10
   1  13   1    1.60    1.30
 -13  15  -1   10.60    1.70
 -13  15  -1    8.40    1.90
  15  -2  -1    8.00    1.70
 -13  15  -1    7.10    1.50
  -2 -13  -1    8.50    1.70
   2  13   1    7.60    1.60
 -15   2   1   10.50    1.80
   2  13   1    8.40    1.50
  -3 -13  -1    8.10    1.80
 -13  16  -1    6.70    1.60
 -13  16  -1    7.20    1.60
 -13  16  -1    6.90    1.90
  16  -3  -1    6.00    1.70
 -16   3   1   11.20    2.10
   3  13   1    7.40    1.70
   3  13   1    6.90    1.60
 -13  17  -1    1.40    1.60
  17  -4  -1    3.20    1.70
  -4 -13  -1    0.60    1.60
 -13  17  -1    1.40    1.50
 -13  17  -1    2.30    1.90
   4  13   1   -0.10    1.50
 -17   4   1    3.90    1.90
   4  13   1    1.40    1.50
 -13  18  -1   10.50    2.00
  18  -5  -1    8.80    2.10
  -5 -13  -1    8.30    1.90
 -13  18  -1    8.30    1.90
 -13  18  -1    9.90    2.20
   5  13   1   10.80    1.90
   5  13   1    7.00    1.70
 -18   5   1   10.00    2.30
 -13  19  -1    7.90    1.90
 -13  19  -1    9.10    2.40
  19  -6  -1    9.20    2.10
 -13  19  -1    9.10    2.20
  -6 -13  -1    6.30    1.90
 -19   6   1   10.40    2.40
   6  13   1   13.00    2.40
   6  13   1    5.50    1.70
 -13  20  -1   -0.30    2.30
 -13  20  -1    1.50    2.30
  -7 -13  -1    1.50    1.90
 -13  20  -1   -2.40    1.70
  20  -7  -1    1.90    2.10
   7  13   1    0.60    1.70
 -20   7   1    2.50    2.30
   7  13   1   -0.40    1.70
 -13  21  -1    0.60    1.90
  21  -8  -1    4.90    2.20
  -8 -13  -1    2.80    2.20
  21  -8  -1    1.20    2.00
 -13  21  -1    0.50    2.50
 -13  21  -1    0.80    2.50
   8  13   1    1.40    2.00
 -21   8   1   -0.10    2.40
   8  13   1   -0.10    2.10
 -13  22  -1    3.70    2.80
  22  -9  -1   -0.40    2.10
  22  -9  -1    2.00    2.30
 -13  22  -1    0.60    2.70
 -13  22  -1    1.90    1.90
   9  13   1    2.40    2.50
   9  13   1   -1.00    1.90
 -22   9   1    0.80    2.70
 -13  23  -1    0.50    3.10
  23 -10  -1   -0.70    2.00
  23 -10  -1   -0.40    2.40
 -13  23  -1    0.50    2.00
 -23  10   1    0.40    3.00
  10  13   1   -0.40    2.00
 -13  24  -1    2.20    3.40
  24 -11  -1    2.30    2.50
  24 -11  -1    5.10    2.80
 -13  24  -1    3.90    2.30
 -24  11   1    4.90    3.40
  11  13   1    6.40    2.20
  25 -12  -1   31.90    4.00
 -13  25  -1   26.30    4.50
  25 -12  -1   32.70    4.50
 -13  25  -1   29.40    3.80
 -25  12   1   22.80    4.20
  12  13   1   25.60    3.30
  26 -13  -1    2.90    3.20
  26 -13  -1    2.20    2.60
 -13  26  -1    2.50    2.80
 -13  26  -1   -1.90    4.40
 -26  13   1   -0.60    4.10
  13  13   1    1.60    2.40
  27 -14  -1   15.10    3.30
 -13  27  -1   19.60    3.50
 -13  27  -1   13.70    5.40
  27 -14  -1   19.80    4.20
  14  13   1   15.40    3.00
 -27  14   1   14.90    4.80
 -12  26  -1    1.40    2.80
 -12  26  -1    1.80    4.60
  26 -14  -1    2.40    3.60
  26 -14  -1    3.20    2.60
 -26  14   1    1.80    3.90
  14  12   1    0.70    2.30
  25 -14  -1   34.70    4.20
 -11  25  -1   31.60    4.10
  25 -14  -1   42.50    4.80
 -25  14   1   29.10    5.20
  14  11   1   27.20    3.60
  24 -14  -1    3.60    3.00
 -10  24  -1    1.30    2.30
  24 -14  -1    0.80    2.20
  14  10   1   -3.10    3.30
  14  10   1    2.90    2.00
 -24  14   1   -2.00    3.20
  10 -24   1    2.20    4.10
  -9  23  -1    0.80    2.30
  23 -14  -1    5.70    2.80
  23 -14  -1   -0.20    2.10
  14   9   1    0.00    2.80
  14   9   1    3.90    2.00
   9 -23   1    2.30    3.50
 -23  14   1    4.40    2.90
  22 -14  -1    0.60    2.50
  -8  22  -1    1.00    2.10
  22 -14  -1    2.30    1.90
 -22  14   1    5.00    2.70
  14   8   1    1.70    2.70
   8 -22   1   -0.50    3.10
  14   8   1    0.40    1.90
  21 -14  -1    5.60    1.90
  -7  21  -1    3.60    2.10
  21 -14  -1    6.40    2.40
 -21  14   1    8.60    2.50
   7 -21   1    7.00    3.00
  14   7   1    3.70    1.90
  -6  20  -1   -0.20    1.90
  20 -14  -1   -1.40    2.10
  20 -14  -1   -0.10    1.70
 -20  14   1    2.10    2.20
   6 -20   1   -3.80    2.60
  14   6   1   -2.10    1.70
 -14  -5  -1   10.00    2.10
  -5  19  -1   15.40    2.60
  19 -14  -1   16.70    2.60
  19 -14  -1   16.20    2.30
   5 -19   1   14.90    2.70
  14   5   1   14.80    2.20
 -19  14   1   13.60    3.80
  18 -14  -1   11.20    1.80
  18 -14  -1    8.20    1.90
 -14  -4  -1    5.30    1.80
  -4  18  -1    8.20    1.70
  -4  18  -1    9.20    1.90
  14   4   1    8.30    1.90
 -18  14   1    9.10    2.00
   4 -18   1    9.60    2.30
  -3  17  -1    2.50    1.40
  17 -14  -1    5.70    1.70
  -3  17  -1    4.80    1.70
 -14  -3  -1    0.60    1.50
  17 -14  -1    6.90    1.60
   3 -17   1    4.70    2.10
  14   3   1    5.00    1.70
 -17  14   1    3.40    1.70
 -14  -2  -1    5.00    1.50
  16 -14  -1    1.00    1.40
  -2  16  -1    0.30    1.40
  -2  16  -1    3.50    1.20
   2 -16   1    3.40    1.50
  14   2   1    1.00    1.50
  -1  15  -1    1.30    1.30
  15 -14  -1    1.70    1.30
 -14  -1  -1    3.40    1.30
  -1  15  -1    0.60    1.10
   1 -15   1    3.30    1.50
 -15  14   1    1.70    1.70
  14   1   1   -1.20    1.40
 -14   0  -1    5.50    1.40
  14 -14  -1    4.70    1.30
   0  14  -1    4.00    1.30
   0 -14   1    5.20    1.40
 -14  14   1    2.20    1.50
  14   0   1    3.70    1.50
 -14   1  -1    3.60    1.30
  13 -14  -1    3.70    1.20
   1  13  -1    3.50    1.30
  14  -1   1    2.70    1.40
 -13  14   1    3.60    1.30
  -1 -13   1    4.00    1.30
   2  12  -1   56.59    3.70
 -14   2  -1   48.40    3.70
  12 -14  -1   56.39    3.70
  -2 -12   1   50.99    3.70
  14  -2   1   58.79    3.90
 -12  14   1   57.49    3.90
  11 -14  -1   14.40    1.90
 -14   3  -1   10.40    1.90
   3  11  -1   14.20    1.80
  14  -3   1   12.30    2.10
 -11  14   1   11.80    1.90
  -3 -11   1   11.40    1.60
   4  10  -1  140.19    8.50
 -14   4  -1  143.39    8.60
  10 -14  -1  146.49    8.50
  -4 -10   1  135.29    8.50
  14  -4   1  151.68    8.60
 -10  14   1  145.79    8.50
   9 -14  -1   12.40    1.80
  14  -5   1   10.60    1.90
 -14   6  -1   97.89    5.80
   8 -14  -1   97.09    5.70
   6   8  -1   93.49    5.70
  -6  -8   1   84.39    5.70
  -8  14   1   87.29    5.60
  14  -6   1   93.99    5.80
 -14   7  -1   13.10    2.00
   7 -14  -1   10.10    1.80
  -7  14   1    9.70    1.50
  14  -7   1   10.10    2.00
 -14   8  -1   44.10    3.10
   8   6  -1   38.60    2.90
   6 -14  -1   38.30    2.80
   6 -14  -1   39.50    2.90
  14  -8   1   43.90    3.20
  -6  14   1   39.60    2.70
  -6  14   1   38.60    2.90
  -8  -6   1   35.90    3.00
   5 -14  -1    2.70    1.10
   9   5  -1    2.00    1.10
 -14   9  -1    0.90    1.20
   5 -14  -1    2.80    1.20
  -5  14   1    3.50    1.10
  -5  14   1    3.10    1.00
  14  -9   1    1.90    1.30
  -9  -5   1    0.10    1.20
  10   4  -1   87.69    5.40
 -14  10  -1   94.09    5.50
   4 -14  -1   86.09    5.40
   4 -14  -1   86.39    5.40
  -4  14   1   91.89    5.30
  -4  14   1   84.89    5.50
 -10  -4   1   79.29    5.40
  14 -10   1   92.99    5.70
   3 -14  -1   25.00    2.50
 -14  11  -1   28.50    2.50
  11   3  -1   28.00    2.40
 -14  11  -1   27.30    2.50
  14 -11   1   30.70    2.80
  -3  14   1   29.90    2.60
  14 -11   1   26.00    2.10
 -11  -3   1   22.00    2.30
  -3  14   1   31.70    2.30
   2 -14  -1    8.50    1.60
 -14  12  -1    7.20    1.30
 -14  12  -1    6.80    1.50
  12   2  -1    6.20    1.40
  -2  14   1    7.70    1.40
  14 -12   1    7.60    1.40
  14 -12   1    7.30    1.70
  -2  14   1    2.80    1.40
 -12  -2   1    7.20    1.50
 -14  13  -1   22.50    2.70
  13   1  -1   24.20    2.30
 -14  13  -1   25.20    2.40
   1 -14  -1   23.90    2.50
  -1  14   1   20.10    2.40
 -13  -1   1   20.10    2.30
  14 -13   1   25.70    2.90
  14 -13   1   24.10    2.00
  -1  14   1   23.80    2.20
   0 -14  -1    3.80    1.50
 -14  14  -1    3.00    1.40
 -14  14  -1    2.70    1.60
 -14  14  -1    2.70    1.40
  14   0  -1    2.80    1.40
   0  14   1    4.90    1.40
   0  14   1   -0.60    1.30
 -14   0   1    2.60    1.40
  -1 -14  -1   34.50    3.00
 -14  15  -1   31.90    3.20
 -14  15  -1   33.10    2.90
  15  -1  -1   30.30    2.80
 -14  15  -1   32.80    2.80
   1  14   1   33.40    2.70
   1  14   1   26.40    2.70
 -15   1   1   30.10    2.70
 -14  16  -1   16.90    2.50
  16  -2  -1   15.80    2.40
 -14  16  -1   23.00    2.60
 -14  16  -1   15.80    2.90
  -2 -14  -1   20.30    2.70
 -16   2   1   21.10    2.40
   2  14   1   20.90    2.40
   2  14   1   19.60    2.40
 -14  17  -1   -0.20    1.60
 -14  17  -1   -0.40    2.00
  17  -3  -1    0.30    1.70
  -3 -14  -1    3.10    1.90
 -14  17  -1    0.00    1.60
   3  14   1    2.20    1.70
 -17   3   1    2.60    1.80
   3  14   1    0.20    1.50
  18  -4  -1   12.60    2.20
 -14  18  -1   14.30    2.50
  -4 -14  -1   12.50    2.40
 -14  18  -1   10.70    2.30
 -14  18  -1   11.40    2.10
   4  14   1   12.00    2.00
   4  14   1   13.00    2.40
 -18   4   1   14.90    2.90
 -14  19  -1   19.00    3.00
  -5 -14  -1   17.70    3.20
 -14  19  -1   20.30    2.90
 -14  19  -1   22.70    3.20
  19  -5  -1   18.70    3.00
   5  14   1   19.70    2.70
   5  14   1   24.70    2.90
 -19   5   1   26.20    3.40
 -14  20  -1    7.70    2.00
 -14  20  -1    8.60    2.50
  -6 -14  -1    5.30    2.60
 -14  20  -1    6.30    2.30
  20  -6  -1   12.40    2.30
   6  14   1    4.40    1.80
   6  14   1   10.80    2.20
 -20   6   1    6.30    2.50
  21  -7  -1   18.00    3.10
 -14  21  -1   22.00    3.80
 -14  21  -1   16.90    2.90
  -7 -14  -1   17.70    3.00
 -14  21  -1   13.90    2.70
   7  14   1   12.50    2.50
 -21   7   1   20.60    3.60
   7  14   1   15.50    2.50
  22  -8  -1   13.10    2.60
  22  -8  -1    4.80    2.20
 -14  22  -1    6.30    2.10
 -14  22  -1    4.70    2.70
 -14  22  -1    9.50    2.80
 -22   8   1    8.30    3.00
   8  14   1    9.20    2.50
  23  -9  -1   17.70    3.50
  23  -9  -1   19.00    2.90
 -14  23  -1   14.00    3.30
 -14  23  -1   14.40    2.60
 -14  23  -1   13.20    3.40
 -23   9   1   16.00    3.40
   9  14   1   15.70    2.70
  24 -10  -1    5.40    2.40
 -14  24  -1    8.90    2.30
  24 -10  -1    2.40    2.80
 -14  24  -1    5.70    3.40
 -24  10   1    6.90    3.50
  10  14   1    3.60    2.20
  25 -11  -1    2.60    2.50
 -14  25  -1   -0.40    3.70
 -14  25  -1    1.60    2.40
  25 -11  -1   -3.30    2.90
  11  14   1    2.60    2.30
 -25  11   1    4.20    3.80
  26 -12  -1   -1.70    2.50
  26 -12  -1    4.50    3.30
 -14  26  -1    3.70    4.40
 -14  26  -1    3.50    2.60
  12  14   1    5.80    2.40
 -26  12   1    3.70    4.20
 -14  27  -1   11.40    3.40
  27 -13  -1   13.50    3.20
  27 -13  -1   16.40    3.90
 -14  27  -1    8.30    5.10
 -27  13   1   11.90    4.90
  13  14   1   14.00    3.10
 -14  28  -1    0.10    3.70
  28 -14  -1   -2.10    3.10
  14  14   1    1.70    2.70
 -14  29  -1   -2.40    3.50
  29 -15  -1    3.20    3.50
  29 -15  -1    4.00    4.90
  15  14   1    9.10    3.20
  28 -15  -1    0.10    4.40
  28 -15  -1    2.70    3.30
 -13  28  -1   -1.60    3.40
  15  13   1    1.50    2.80
  27 -15  -1    6.20    3.10
 -12  27  -1    7.00    3.50
  27 -15  -1    8.30    4.20
  15  12   1    7.10    2.70
 -27  15   1    6.40    4.50
  26 -15  -1    9.20    2.90
 -11  26  -1    6.30    2.90
  26 -15  -1   12.80    4.00
 -26  15   1    9.80    4.00
  11 -26   1    7.70    5.50
  15  11   1   10.70    2.80
 -10  25  -1   18.70    3.50
  25 -15  -1   14.60    2.90
  25 -15  -1   19.20    3.80
  10 -25   1   13.60    4.90
  15  10   1   17.50    3.20
 -25  15   1   15.90    3.90
  24 -15  -1    1.90    3.10
  -9  24  -1   -0.10    2.30
  24 -15  -1    2.50    2.40
  15   9   1   -2.00    3.10
   9 -24   1   -1.00    4.00
  15   9   1   -1.10    2.00
 -24  15   1   -1.20    3.00
  -8  23  -1    3.50    2.30
  23 -15  -1    5.30    2.20
  23 -15  -1    4.90    2.90
 -23  15   1    6.30    3.10
  15   8   1    4.70    2.10
  15   8   1    6.80    3.00
   8 -23   1    5.00    3.80
  -7  22  -1    0.40    2.10
  22 -15  -1    4.20    1.90
  22 -15  -1    0.90    2.50
  15   7   1    0.90    1.80
 -22  15   1    5.40    2.70
   7 -22   1    6.60    3.40
  -6  21  -1   -1.60    2.00
  21 -15  -1   -1.40    2.30
  21 -15  -1    1.30    1.90
  15   6   1   -0.90    1.70
 -21  15   1    0.70    2.40
   6 -21   1   -0.60    3.00
  -5  20  -1    4.20    1.90
  20 -15  -1    5.00    2.10
  20 -15  -1    4.70    1.80
  -5  20  -1    3.60    2.50
   5 -20   1    3.20    2.70
 -20  15   1    5.20    2.40
 -15  -4  -1    2.00    1.80
  -4  19  -1    3.50    1.90
  19 -15  -1    4.70    1.70
  -4  19  -1    0.90    1.50
  19 -15  -1    2.90    2.00
   4 -19   1    6.10    2.40
  15   4   1    4.20    1.80
 -19  15   1    1.90    2.00
  -3  18  -1   11.40    2.30
  18 -15  -1   16.10    2.50
  -3  18  -1   16.60    2.50
 -15  -3  -1   12.80    2.10
  15   3   1   13.60    2.50
   3 -18   1   15.60    2.70
  -2  17  -1   23.90    2.70
  17 -15  -1   27.70    2.80
  -2  17  -1   21.30    2.50
 -15  -2  -1   19.80    2.50
   2 -17   1   29.10    3.10
  15   2   1   23.40    2.80
  -1  16  -1   13.20    2.20
 -15  -1  -1   12.80    2.00
  16 -15  -1   13.50    2.30
  -1  16  -1   11.70    1.90
  15   1   1   12.10    2.40
 -16  15   1   16.90    3.20
   1 -16   1   14.10    2.40
  15 -15  -1   89.69    5.50
   0  15  -1   86.99    5.50
 -15   0  -1   72.79    5.40
 -15  15   1   95.79    5.90
  15   0   1   83.79    5.70
   0 -15   1   89.09    5.60
 -15   1  -1   32.80    2.80
  14 -15  -1   36.30    2.90
   1  14  -1   33.50    2.80
 -14  15   1   35.10    3.20
  15  -1   1   34.20    3.00
  -1 -14   1   31.90    2.90
 -15   2  -1    7.90    1.60
  13 -15  -1   11.10    1.90
   2  13  -1    9.50    1.80
 -13  15   1    8.30    1.60
  -2 -13   1   10.30    1.70
  15  -2   1   10.70    1.70
 -15   3  -1   18.90    2.30
   3  12  -1   20.50    2.10
  12 -15  -1   21.30    2.20
 -12  15   1   19.80    2.30
  -3 -12   1   19.60    2.10
   4  11  -1   10.30    1.70
 -15   4  -1    9.20    1.70
  11 -15  -1    9.60    1.80
  15  -4   1    7.20    1.60
 -11  15   1    6.40    1.40
  -4 -11   1    9.40    1.50
  10 -15  -1    3.50    1.20
 -15   5  -1    3.50    1.40
   5  10  -1    1.40    1.20
 -10  15   1    1.50    1.10
  -5 -10   1    1.70    1.00
  15  -5   1    1.20    1.30
   6   9  -1   76.99    4.90
   9 -15  -1   78.59    4.90
 -15   6  -1   80.59    5.10
  -9  15   1   74.39    4.90
  -6  -9   1   68.99    4.90
  15  -6   1   81.49    5.10
   8 -15  -1    9.60    1.80
 -15   7  -1    5.90    1.50
   7   8  -1    9.00    1.60
  15  -7   1    5.50    1.50
  -7  -8   1    3.90    1.30
  -8  15   1    8.30    1.50
   7 -15  -1    7.40    1.30
   8   7  -1    4.30    1.30
   7 -15  -1    5.50    1.30
  -7  15   1    5.30    1.10
  -7  15   1    7.40    1.40
  15  -8   1   12.10    2.00
  -8  -7   1    4.70    1.40
   9   6  -1   12.60    1.80
 -15   9  -1   14.20    2.00
   6 -15  -1   13.40    1.90
   6 -15  -1   11.90    1.80
  -6  15   1   10.10    1.60
  15  -9   1   13.40    2.00
  -9  -6   1    8.80    1.60
  -6  15   1   13.80    1.80
   5 -15  -1   61.69    4.10
   5 -15  -1   59.19    4.10
 -15  10  -1   64.59    4.20
  10   5  -1   61.09    4.10
 -10  -5   1   53.99    4.10
  -5  15   1   59.79    4.20
  -5  15   1   64.29    3.90
  15 -10   1   69.89    4.40
  11   4  -1    2.70    1.20
   4 -15  -1    1.70    1.40
 -15  11  -1    1.80    1.40
  -4  15   1    0.90    1.20
  -4  15   1    4.60    1.10
 -11  -4   1    0.10    1.10
  15 -11   1    0.70    0.80
  15 -11   1    0.70    1.50
 -15  12  -1   22.10    2.40
  12   3  -1   15.70    2.10
   3 -15  -1   14.30    2.20
 -15  12  -1   19.50    2.40
  -3  15   1   17.00    1.90
  15 -12   1   17.60    1.70
  -3  15   1   14.70    2.30
 -12  -3   1   14.40    2.00
  15 -12   1   21.70    2.70
 -15  13  -1   21.50    2.40
   2 -15  -1   18.80    2.40
  13   2  -1   18.30    2.20
 -15  13  -1   19.60    2.60
  -2  15   1   12.30    2.40
  15 -13   1   20.50    2.80
 -13  -2   1   17.70    2.20
  15 -13   1   21.40    1.90
  -2  15   1   18.60    2.10
  14   1  -1    1.50    1.50
 -15  14  -1    2.80    1.80
 -15  14  -1    0.90    1.40
   1 -15  -1    2.80    1.60
  -1  15   1    1.00    1.30
  15 -14   1    1.70    1.10
 -14  -1   1    2.20    1.40
  15 -14   1    0.80    1.70
  15   0  -1   81.89    5.40
 -15  15  -1   93.09    5.40
   0 -15  -1   82.39    5.50
 -15  15  -1   81.69    5.40
 -15  15  -1   88.59    5.60
 -15   0   1   70.69    5.30
   0  15   1   82.39    5.30
   0  15   1   84.19    5.40
  16  -1  -1   13.40    2.10
 -15  16  -1   11.60    2.30
 -15  16  -1   16.60    2.50
  -1 -15  -1   14.60    2.30
 -15  16  -1   14.40    2.80
   1  15   1   11.60    1.70
   1  15   1   12.40    2.20
 -16   1   1   13.80    2.00
 -15  17  -1   11.70    2.00
 -15  17  -1    8.40    2.20
  17  -2  -1    9.60    2.10
  -2 -15  -1   12.10    2.30
 -15  17  -1   11.20    2.00
 -17   2   1   12.30    2.30
   2  15   1   11.20    2.00
   2  15   1   11.20    2.00
  18  -3  -1   56.79    4.40
  -3 -15  -1   53.69    4.70
 -15  18  -1   59.29    4.50
 -15  18  -1   55.79    4.70
 -15  18  -1   62.89    4.30
   3  15   1   55.69    4.30
 -18   3   1   54.79    4.60
   3  15   1   59.39    4.40
  19  -4  -1    4.20    2.00
  -4 -15  -1    5.40    2.50
 -15  19  -1    3.60    2.40
 -15  19  -1    3.50    1.90
 -15  19  -1    3.10    2.10
 -19   4   1    4.00    2.30
   4  15   1    4.50    1.90
   4  15   1    1.80    1.70
 -15  20  -1    2.60    2.20
  -5 -15  -1    0.90    2.50
 -15  20  -1    2.20    2.40
  20  -5  -1    2.50    2.20
 -15  20  -1    1.40    1.90
   5  15   1   -1.40    1.80
 -20   5   1    3.10    2.50
   5  15   1    2.80    1.90
  -6 -15  -1    5.90    2.70
 -15  21  -1    5.20    2.70
 -15  21  -1    5.30    2.40
 -15  21  -1    3.20    2.00
  21  -6  -1    6.00    2.30
 -21   6   1    9.40    2.90
   6  15   1    7.30    2.20
 -15  22  -1   -0.60    2.90
 -15  22  -1   -2.70    1.90
 -15  22  -1   -0.10    2.70
  22  -7  -1    3.10    2.30
 -22   7   1    0.90    2.90
   7  15   1    0.50    2.40
 -15  23  -1    4.70    3.00
 -15  23  -1   -1.20    2.10
  23  -8  -1    0.60    2.60
  23  -8  -1    0.30    2.30
 -15  23  -1   -1.10    2.90
 -23   8   1    4.10    3.10
   8  15   1    1.90    2.30
 -15  24  -1    5.10    3.40
 -15  24  -1    4.80    2.40
  24  -9  -1    2.40    2.60
  24  -9  -1    3.60    2.80
   9  15   1    3.10    2.40
 -24   9   1    4.60    3.30
 -15  25  -1    8.70    4.00
  25 -10  -1    4.90    2.50
  25 -10  -1    3.00    3.10
 -15  25  -1    6.40    2.40
  10  15   1    1.60    2.40
 -25  10   1    6.10    3.70
  26 -11  -1   14.50    3.80
  26 -11  -1   18.90    3.30
 -15  26  -1   14.80    3.10
 -15  26  -1   12.70    4.30
 -26  11   1   14.00    4.90
  11  15   1   17.90    3.40
 -15  27  -1    8.80    3.10
 -15  27  -1    4.60    4.80
  27 -12  -1   10.10    3.10
  12  15   1   14.70    3.00
  28 -13  -1    0.30    4.10
 -15  28  -1   -0.30    3.40
  28 -13  -1    0.30    3.10
  13  15   1    3.80    2.90
  29 -14  -1    2.90    3.40
  29 -14  -1    1.60    4.60
 -15  29  -1    0.50    3.60
  14  15   1    7.60    3.30
  29 -16  -1    1.40    3.40
 -13  29  -1   -0.90    3.30
  29 -16  -1    1.90    5.70
  16  13   1    6.10    2.80
 -12  28  -1   -4.30    3.10
  28 -16  -1    6.40    4.50
  28 -16  -1    1.20    3.30
  16  12   1    3.30    2.70
 -11  27  -1    9.90    3.80
  27 -16  -1   13.40    3.20
  27 -16  -1   12.70    4.40
  16  11   1   12.80    2.70
  26 -16  -1    1.40    3.60
 -10  26  -1    1.10    3.20
  26 -16  -1    4.40    2.70
 -26  16   1    1.60    4.00
  16  10   1    6.50    2.30
  25 -16  -1    1.00    3.40
  -9  25  -1    1.20    2.50
  25 -16  -1    2.50    2.50
  16   9   1    2.10    2.10
 -25  16   1    2.80    3.50
   9 -25   1    2.30    5.40
  24 -16  -1    4.00    3.30
  -8  24  -1    2.80    2.40
  24 -16  -1    4.90    2.40
 -24  16   1    5.30    3.30
  16   8   1    4.50    2.20
   8 -24   1    4.50    4.20
  16   8   1    6.60    3.30
  23 -16  -1    0.00    2.70
  -7  23  -1    1.20    2.20
  23 -16  -1    3.50    2.30
   7 -23   1    2.30    3.80
 -23  16   1    5.50    3.00
  16   7   1   -0.40    1.90
  22 -16  -1    1.60    2.00
  22 -16  -1   -1.40    2.50
  -6  22  -1   -1.20    2.00
 -22  16   1    3.30    2.70
  16   6   1   -0.60    1.80
   6 -22   1    2.00    3.30
  21 -16  -1   10.60    2.60
  21 -16  -1    7.40    2.00
  -5  21  -1    4.60    2.10
  16   5   1    6.40    2.00
   5 -21   1    9.90    3.20
 -21  16   1    6.40    2.60
  -4  20  -1    0.70    1.90
  20 -16  -1    1.60    1.80
  20 -16  -1    3.70    2.30
   4 -20   1    1.50    2.70
  16   4   1    1.70    1.80
  -3  19  -1   15.30    2.30
  -3  19  -1    8.90    1.90
  19 -16  -1   17.00    2.70
   3 -19   1   15.00    3.00
  16   3   1   12.80    2.50
  -2  18  -1    9.20    1.70
 -16  -2  -1    9.70    1.90
  18 -16  -1   14.10    2.50
  -2  18  -1   15.00    2.40
   2 -18   1   14.70    2.70
  16   2   1   13.00    2.60
  17 -16  -1   41.50    3.40
  -1  17  -1   35.20    3.20
 -16  -1  -1   33.60    3.20
  -1  17  -1   38.40    3.40
  16   1   1   39.10    3.50
   1 -17   1   43.40    3.80
 -17  16   1   49.40    4.30
  16 -16  -1    4.70    1.50
 -16   0  -1    4.20    1.60
   0  16  -1    4.10    1.60
   0  16  -1    2.40    1.40
 -16  16   1    2.30    2.20
  16   0   1    3.80    1.70
   0 -16   1    6.50    1.60
 -16   1  -1   11.80    2.20
  15 -16  -1   19.00    2.30
   1  15  -1   14.20    2.10
  -1 -15   1   13.80    2.20
  16  -1   1   13.50    2.50
 -15  16   1   20.40    3.00
   2  14  -1   24.50    2.30
  14 -16  -1   21.80    2.40
 -16   2  -1   15.90    2.50
  16  -2   1   18.10    2.60
 -14  16   1   25.70    2.80
  -2 -14   1   17.10    2.40
   3  13  -1    6.20    1.50
  13 -16  -1    8.00    1.50
 -16   3  -1    4.90    1.70
  -3 -13   1    9.00    1.70
  16  -3   1    9.20    1.80
 -13  16   1    6.50    1.50
   4  12  -1   20.70    2.20
  12 -16  -1   22.90    2.30
 -16   4  -1   19.10    2.40
  -4 -12   1   20.00    2.10
 -12  16   1   16.10    2.40
  16  -4   1   22.00    2.50
   5  11  -1    4.00    1.40
 -16   5  -1    5.20    1.50
  11 -16  -1    5.10    1.30
  16  -5   1    6.30    1.60
  -5 -11   1    6.50    1.30
 -11  16   1    2.80    1.30
   6  10  -1   45.30    3.30
 -16   6  -1   50.09    3.50
  10 -16  -1   48.60    3.40
  16  -6   1   49.80    3.70
  -6 -10   1   43.80    3.30
 -10  16   1   44.90    3.50
   9 -16  -1    9.70    1.80
   7   9  -1    8.90    1.70
 -16   7  -1    7.80    1.70
  -7  -9   1    6.30    1.50
  -9  16   1    3.40    1.30
  16  -7   1    6.70    1.60
   8   8  -1    5.90    1.30
   8 -16  -1    5.00    1.40
   8 -16  -1    5.90    1.30
 -16   8  -1    6.30    1.50
  -8  16   1    5.50    1.20
  -8  -8   1    5.00    1.40
  -8  16   1    6.00    1.20
  16  -8   1    6.20    1.60
   7 -16  -1   62.49    3.90
 -16   9  -1   58.69    4.00
   9   7  -1   49.80    3.80
   7 -16  -1   56.29    3.90
  -9  -7   1   46.80    3.90
  -7  16   1   55.79    3.60
  -7  16   1   60.79    3.80
  16  -9   1   61.89    4.20
  10   6  -1   20.00    2.20
   6 -16  -1   20.00    2.20
   6 -16  -1   23.60    2.30
 -16  10  -1   22.80    2.60
  -6  16   1   22.90    2.00
  -6  16   1   21.30    2.20
  16 -10   1   18.30    2.70
 -10  -6   1   18.80    2.20
 -16  11  -1    5.50    1.80
   5 -16  -1    9.00    2.00
  11   5  -1    6.30    1.50
  16 -11   1    7.10    1.80
 -11  -5   1    5.10    1.50
  -5  16   1    6.60    1.50
  -5  16   1    9.50    1.60
  12   4  -1   12.00    2.00
 -16  12  -1   14.90    2.10
   4 -16  -1   15.10    2.30
  -4  16   1   12.30    1.80
  16 -12   1   16.10    2.60
 -12  -4   1   13.10    1.90
  16 -12   1   14.70    1.60
  -4  16   1   16.20    1.90
 -16  13  -1    7.80    1.90
  13   3  -1    6.90    1.70
   3 -16  -1    6.20    1.80
 -16  13  -1    9.00    1.70
  -3  16   1    5.30    1.50
  16 -13   1    5.50    2.00
  16 -13   1   10.20    1.60
 -13  -3   1    7.40    1.70
  -3  16   1    4.70    1.60
   2 -16  -1    2.30    1.70
 -16  14  -1    1.20    1.50
  14   2  -1    2.80    1.50
 -16  14  -1    1.80    1.80
 -14  -2   1    1.50    1.60
  -2  16   1   -3.20    1.60
  16 -14   1    3.50    1.10
  16 -14   1    0.50    1.90
  -2  16   1    2.60    1.50
  15   1  -1   12.00    2.30
 -16  15  -1   14.10    2.70
 -16  15  -1   12.00    2.00
   1 -16  -1   14.70    2.30
 -15  -1   1   12.30    2.00
  -1  16   1    7.40    1.90
  -1  16   1   13.00    2.20
  16 -15   1   12.70    1.90
  16   0  -1   -0.90    1.60
   0 -16  -1    3.20    2.00
 -16  16  -1    3.50    1.60
 -16  16  -1    3.40    2.10
 -16  16  -1    3.70    1.80
   0  16   1    2.80    1.60
   0  16   1    2.70    1.60
 -16   0   1    0.60    1.60
  -1 -16  -1   21.80    3.20
 -16  17  -1   18.80    3.20
 -16  17  -1   21.70    3.00
  17  -1  -1   17.60    2.60
 -16  17  -1   20.70    2.70
   1  16   1   19.50    2.60
   1  16   1   15.70    2.50
 -17   1   1   18.00    2.70
  18  -2  -1   39.70    3.90
 -16  18  -1   44.30    4.20
  -2 -16  -1   41.20    4.20
 -16  18  -1   47.90    3.80
 -16  18  -1   50.89    4.10
   2  16   1   45.60    3.70
 -18   2   1   46.20    4.10
   2  16   1   46.80    3.80
 -16  19  -1    4.30    1.90
 -16  19  -1    4.10    2.10
 -16  19  -1    1.10    2.40
  -3 -16  -1    1.10    2.40
  19  -3  -1    2.20    2.00
 -19   3   1    4.10    2.50
   3  16   1    1.00    1.90
   3  16   1    4.20    2.10
 -16  20  -1    0.80    2.60
 -16  20  -1    4.60    2.00
 -16  20  -1   -0.10    2.20
  20  -4  -1    3.40    2.20
  -4 -16  -1    3.00    2.80
 -20   4   1    6.20    2.80
   4  16   1    5.30    2.10
 -16  21  -1   30.80    3.40
 -16  21  -1   30.80    4.20
  21  -5  -1   28.10    3.70
  -5 -16  -1   30.50    4.40
 -16  21  -1   37.40    4.20
 -21   5   1   33.70    4.40
   5  16   1   31.30    3.50
 -16  22  -1    7.10    2.80
 -16  22  -1    4.90    3.00
  22  -6  -1    7.90    2.50
 -16  22  -1    8.50    2.10
   6  16   1    6.70    2.90
 -22   6   1   12.60    3.40
 -16  23  -1   10.40    3.40
  23  -7  -1   13.90    2.80
  23  -7  -1   15.30    2.90
 -16  23  -1    8.70    3.30
 -16  23  -1    9.80    2.30
   7  16   1   10.70    2.50
 -23   7   1    9.90    3.30
 -16  24  -1    1.60    3.50
  24  -8  -1    1.70    2.70
 -16  24  -1    1.40    2.30
  24  -8  -1    2.90    3.00
 -24   8   1    6.00    3.80
   8  16   1    4.30    2.60
 -16  25  -1    2.60    3.90
  25  -9  -1    1.10    2.70
 -16  25  -1    1.10    2.40
   9  16   1   -1.60    2.40
 -16  26  -1    6.70    2.70
  26 -10  -1    8.60    2.80
  26 -10  -1    3.30    3.60
 -16  26  -1    9.20    4.40
  10  16   1    5.70    2.90
  27 -11  -1    0.80    3.80
  27 -11  -1    2.90    3.20
 -16  27  -1    4.20    4.60
 -16  27  -1    0.10    2.80
  11  16   1    5.40    2.90
  28 -12  -1    5.90    4.10
  28 -12  -1    3.30    3.20
 -16  28  -1    6.70    3.10
  12  16   1    4.90    3.10
  29 -13  -1    2.10    4.20
  29 -13  -1    5.40    3.50
  13  16   1    8.30    3.40
  29 -17  -1    3.40    5.30
  17  12   1    9.50    2.90
  28 -17  -1    1.70    3.20
  28 -17  -1    1.30    4.70
 -11  28  -1   -1.10    3.30
  17  11   1    4.00    2.70
  27 -17  -1   -0.80    2.90
 -10  27  -1    0.60    3.00
  27 -17  -1   -0.10    4.20
  17  10   1    8.30    2.60
  26 -17  -1    1.60    2.70
  -9  26  -1    0.40    2.90
  26 -17  -1   -3.20    3.70
  17   9   1    4.40    2.20
 -26  17   1    0.50    4.00
  -8  25  -1    1.10    3.80
  25 -17  -1    2.20    3.40
  25 -17  -1    1.20    2.40
  17   8   1    4.80    2.30
  17   8   1    3.30    4.30
 -25  17   1   -0.80    3.50
  -7  24  -1    3.40    2.50
  24 -17  -1    7.20    3.10
  24 -17  -1    1.10    2.40
  17   7   1    5.80    2.20
  17   7   1    5.10    3.30
 -24  17   1    6.10    3.40
  23 -17  -1   -2.40    2.20
  -6  23  -1    0.20    2.20
  23 -17  -1    4.90    3.00
  17   6   1   -0.90    1.90
 -23  17   1    3.40    3.10
   6 -23   1   -1.50    3.90
  22 -17  -1    3.60    2.10
  22 -17  -1    1.30    2.70
  -5  22  -1   -1.30    2.10
 -22  17   1    2.20    2.80
   5 -22   1   -0.90    3.40
  17   5   1   -2.50    1.80
  21 -17  -1    1.30    1.90
  -4  21  -1    1.70    2.10
   4 -21   1   -0.30    3.10
  17   4   1   -1.00    1.90
 -21  17   1    2.20    2.40
  -3  20  -1    0.20    2.00
  20 -17  -1    0.30    1.80
  17   3   1    3.00    1.80
   3 -20   1    0.10    2.90
  19 -17  -1   10.00    2.00
  -2  19  -1    8.20    2.10
   2 -19   1    8.60    2.80
  -1  18  -1   24.10    2.90
  -1  18  -1   19.80    2.60
  18 -17  -1   24.20    2.80
 -17  -1  -1   20.40    2.60
  17   1   1   24.10    2.90
 -18  17   1   32.80    4.20
   1 -18   1   24.10    3.70
   0  17  -1  120.39    8.10
 -17   0  -1  110.89    8.10
   0  17  -1  128.89    8.10
  17 -17  -1  141.19    8.10
  17   0   1  139.09    8.40
   0 -17   1  134.99    8.40
 -17  17   1  156.48    8.80
   1  16  -1   22.30    2.60
 -17   1  -1   21.90    2.70
  16 -17  -1   23.10    2.70
 -16  17   1   29.20    3.70
  17  -1   1   19.10    2.80
  -1 -16   1   21.60    2.70
   2  15  -1   12.10    2.10
  15 -17  -1   11.90    2.30
 -17   2  -1   10.60    2.10
 -15  17   1   13.80    2.40
  17  -2   1   16.70    2.50
  -2 -15   1   11.50    2.20
 -17   3  -1    1.90    1.80
   3  14  -1    2.50    1.40
  -3 -14   1    1.30    1.60
  17  -3   1    3.60    1.70
 -14  17   1   -0.30    1.70
 -17   4  -1   -0.20    1.50
   4  13  -1    2.60    1.40
  13 -17  -1    3.00    1.40
  -4 -13   1    3.20    1.50
 -13  17   1    1.50    1.50
  17  -4   1    2.60    1.70
  12 -17  -1   -1.00    1.20
   5  12  -1    1.60    1.30
 -17   5  -1    0.40    1.50
  17  -5   1    0.00    1.50
 -12  17   1   -0.30    1.30
  -5 -12   1    1.10    1.30
   6  11  -1   17.30    2.10
 -17   6  -1   20.50    2.40
  11 -17  -1   19.50    2.30
 -11  17   1   16.50    2.20
  -6 -11   1   15.10    2.00
  17  -6   1   21.20    2.50
  10 -17  -1    5.60    1.30
 -17   7  -1    6.30    1.50
   7  10  -1    2.60    1.30
  -7 -10   1    2.50    1.20
 -10  17   1    2.10    1.30
  17  -7   1    3.90    1.60
   8   9  -1   26.20    2.60
   9 -17  -1   35.80    2.80
 -17   8  -1   31.50    3.10
  -9  17   1   33.10    2.80
  17  -8   1   29.80    3.00
   9   8  -1    5.10    1.30
 -17   9  -1    7.20    1.80
   8 -17  -1    5.40    1.60
   8 -17  -1    7.20    1.50
  -8  17   1    6.40    1.30
  -9  -8   1    6.60    1.60
  17  -9   1    5.70    1.70
  -8  17   1    5.30    1.30
   7 -17  -1    7.00    1.40
 -17  10  -1    7.70    2.00
  10   7  -1    6.70    1.50
   7 -17  -1    8.60    1.60
 -10  -7   1    4.80    1.50
  17 -10   1    8.80    1.90
  -7  17   1    8.90    1.40
  -7  17   1    8.70    1.40
 -17  11  -1   10.00    2.10
  11   6  -1    5.80    1.50
   6 -17  -1    8.90    2.80
  17 -11   1    6.60    1.90
 -11  -6   1    4.80    1.60
  -6  17   1    6.70    1.40
  -6  17   1    6.30    1.40
  12   5  -1    0.60    1.40
 -17  12  -1    2.20    1.90
   5 -17  -1    1.80    1.70
  17 -12   1   -1.50    1.70
  -5  17   1    1.10    1.30
  17 -12   1   -0.40    1.00
 -12  -5   1    2.30    1.40
  -5  17   1   -0.60    1.30
   4 -17  -1    9.70    2.00
 -17  13  -1   11.10    2.10
  13   4  -1   10.70    1.90
  -4  17   1   10.60    1.70
  -4  17   1    7.40    1.70
 -13  -4   1    9.40    1.60
  17 -13   1   11.80    1.70
  17 -13   1   11.80    2.20
 -17  14  -1    6.20    2.10
  14   3  -1    8.30    1.70
   3 -17  -1    3.70    2.00
  17 -14   1    4.80    1.20
  -3  17   1    4.80    1.60
  -3  17   1    1.10    1.60
  17 -14   1    2.70    2.00
 -14  -3   1    3.40    1.60
 -17  15  -1   31.20    3.90
  15   2  -1   25.90    2.80
   2 -17  -1   25.50    3.20
 -17  15  -1   27.00    3.20
  -2  17   1   22.10    2.60
  -2  17   1   17.20    3.00
  17 -15   1   32.80    3.50
  17 -15   1   24.50    2.30
 -15  -2   1   19.50    2.80
   1 -17  -1   38.40    3.70
 -17  16  -1   40.40    3.80
 -17  16  -1   43.40    3.60
  16   1  -1   34.20    3.30
 -17  16  -1   33.90    3.30
 -16  -1   1   31.30    3.30
  -1  17   1   36.50    3.20
  -1  17   1   32.30    3.30
   0 -17  -1  127.89    8.40
 -17  17  -1  147.69    8.30
 -17  17  -1  148.89    8.40
 -17  17  -1  140.29    8.20
  17   0  -1  128.69    8.20
   0  17   1  118.09    8.00
   0  17   1  132.19    8.20
 -17   0   1  112.89    8.10
 -17  18  -1   74.19    4.80
  -1 -17  -1   64.89    5.30
 -17  18  -1   70.89    5.30
  18  -1  -1   64.69    4.80
 -17  18  -1   75.29    5.10
   1  17   1   59.89    4.80
   1  17   1   66.89    4.80
 -18   1   1   58.29    4.90
 -17  19  -1   14.30    2.80
  -2 -17  -1   17.20    3.00
 -17  19  -1   19.00    3.50
 -17  19  -1   13.80    2.70
  19  -2  -1   14.70    2.60
   2  17   1   14.90    2.80
 -19   2   1   16.50    2.70
 -17  20  -1   11.00    2.60
 -17  20  -1    9.40    2.80
  -3 -17  -1   11.70    3.20
 -17  20  -1   11.70    2.20
  20  -3  -1   13.60    2.60
   3  17   1    9.10    2.40
 -20   3   1   13.40    3.00
  21  -4  -1    1.50    2.40
 -17  21  -1   -0.90    2.00
 -17  21  -1    2.60    2.60
  -4 -17  -1    0.40    3.00
 -17  21  -1    0.30    2.80
 -21   4   1    2.90    3.00
   4  17   1    3.70    2.10
 -17  22  -1   -0.70    3.00
  22  -5  -1    4.50    2.50
 -17  22  -1    3.20    2.10
 -17  22  -1    4.90    2.80
 -22   5   1    3.50    3.20
   5  17   1    6.60    3.80
 -17  23  -1    1.30    3.10
 -17  23  -1    0.60    3.30
  23  -6  -1    3.40    2.70
 -17  23  -1    0.10    2.10
   6  17   1    2.50    2.30
 -17  24  -1    1.30    4.10
 -17  24  -1   -3.90    2.20
 -17  24  -1   -2.60    3.50
  24  -7  -1    3.80    2.60
   7  17   1   -2.30    2.50
  25  -8  -1    6.20    3.20
  25  -8  -1   -0.60    2.70
 -17  25  -1   -1.30    3.70
 -17  25  -1   -0.50    2.40
   8  17   1    2.00    2.70
 -17  26  -1    5.70    4.40
  26  -9  -1    4.60    3.30
 -17  26  -1    1.10    2.50
  26  -9  -1    7.90    3.10
   9  17   1    4.00    2.70
 -17  27  -1   -0.70    2.80
  27 -10  -1   -1.40    3.00
  27 -10  -1   -0.90    3.50
  10  17   1    0.50    2.80
  28 -11  -1   -1.40    3.40
 -17  28  -1    6.00    3.30
  28 -11  -1   -0.50    4.10
  11  17   1    7.10    3.10
  29 -12  -1    3.50    4.50
  12  17   1    2.60    3.30
  28 -18  -1   -1.80    4.60
 -10  28  -1    0.10    3.30
  28 -18  -1    0.50    3.40
  18  10   1    5.90    2.60
  27 -18  -1   -1.00    3.00
  -9  27  -1    2.20    3.20
  27 -18  -1    9.70    4.30
  18   9   1    8.10    2.60
  26 -18  -1   15.80    4.20
  -8  26  -1    8.00    3.00
  26 -18  -1    8.90    3.00
  18   8   1    7.50    2.60
  25 -18  -1    0.50    3.70
  -7  25  -1    0.70    2.70
  25 -18  -1    0.20    2.50
 -25  18   1    2.60    3.70
  18   7   1    2.20    2.30
  18   7   1    6.10    3.70
  24 -18  -1    5.80    2.40
  24 -18  -1   11.90    3.50
 -24  18   1   12.30    3.50
  18   6   1    6.00    2.40
  -5  23  -1    2.30    2.40
  23 -18  -1    6.60    3.10
  23 -18  -1    2.50    2.30
 -23  18   1    4.60    3.00
  18   5   1   -1.60    2.10
  -4  22  -1   16.20    3.10
  22 -18  -1   19.30    3.20
   4 -22   1   19.30    4.80
  18   4   1   18.50    2.80
  -3  21  -1   10.00    2.40
  21 -18  -1   12.40    2.20
   3 -21   1   13.90    3.70
  18   3   1    8.00    2.30
  -2  20  -1   14.90    2.90
  20 -18  -1   15.20    2.80
  18   2   1   14.30    2.40
   2 -20   1   12.50    3.50
  -1  19  -1   39.40    3.50
  19 -18  -1   38.00    3.60
  18   1   1   33.30    3.60
 -19  18   1   45.30    5.00
   1 -19   1   44.50    4.70
   0  18  -1    6.40    1.90
  18 -18  -1    4.90    1.90
   0 -18   1    5.40    2.60
  18   0   1    5.80    2.10
 -18  18   1    7.20    2.90
  17 -18  -1   76.39    4.90
   1  17  -1   64.49    4.80
 -18   1  -1   61.99    5.00
   1  17  -1   67.59    5.50
  -1 -17   1   73.29    5.30
 -17  18   1   77.69    5.80
  18  -1   1   68.19    5.10
   2  16  -1   46.40    3.70
  16 -18  -1   53.99    3.80
 -18   2  -1   41.50    3.90
  -2 -16   1   47.60    4.00
 -16  18   1   50.99    4.50
  18  -2   1   49.20    4.00
  15 -18  -1   63.49    4.20
   3  15  -1   52.79    4.10
 -18   3  -1   50.89    4.30
 -15  18   1   60.89    4.80
  -3 -15   1   51.89    4.40
  18  -3   1   66.59    4.50
  14 -18  -1   18.00    2.40
 -18   4  -1   11.90    2.20
   4  14  -1   14.00    2.20
 -14  18   1    9.90    2.10
  -4 -14   1   11.00    2.10
  18  -4   1   13.20    2.20
 -18   5  -1    7.80    2.00
  13 -18  -1    6.70    1.60
   5  13  -1    8.80    1.70
 -13  18   1    5.80    1.80
  -5 -13   1    8.60    1.80
  18  -5   1   10.10    2.10
 -18   6  -1    0.80    1.60
   6  12  -1    4.40    1.50
  12 -18  -1    0.50    1.40
  -6 -12   1    4.20    1.50
  18  -6   1    3.10    1.70
 -12  18   1    1.90    1.40
   7  11  -1    1.90    1.40
 -18   7  -1   -0.90    1.70
  11 -18  -1    1.90    1.30
 -11  18   1   -0.50    1.30
  18  -7   1   -0.90    1.70
  -7 -11   1   -1.70    1.20
   8  10  -1    0.70    1.30
  10 -18  -1    2.60    1.40
 -18   8  -1    2.00    1.80
 -10  18   1   -0.30    1.40
  -8 -10   1   -2.60    1.40
  18  -8   1    1.30    1.70
   9   9  -1   22.10    2.40
 -18   9  -1   27.60    3.20
   9 -18  -1   25.90    2.70
   9 -18  -1   27.10    2.50
  -9  -9   1   16.80    2.50
  -9  18   1   23.20    2.20
  -9  18   1   18.40    2.60
  18  -9   1   27.40    2.90
   8 -18  -1    1.30    1.70
   8 -18  -1    1.90    1.40
  10   8  -1    1.80    1.40
 -18  10  -1    2.70    2.00
  -8  18   1    3.10    1.40
  -8  18   1    1.90    1.40
  18 -10   1    0.70    1.80
 -18  11  -1   22.00    3.20
  11   7  -1   22.60    2.50
  -7  18   1   25.70    2.70
  18 -11   1   31.90    3.30
  -7  18   1   25.60    2.40
   6 -18  -1    4.90    1.90
  12   6  -1    3.50    1.50
 -18  12  -1    6.50    2.30
  -6  18   1    5.70    1.40
  18 -12   1    4.00    2.10
  -6  18   1    4.60    1.50
 -12  -6   1    2.70    1.60
  13   5  -1   14.10    2.30
   5 -18  -1   15.60    2.90
 -18  13  -1   13.10    2.40
 -13  -5   1   12.40    2.10
  -5  18   1   11.20    2.00
  18 -13   1   15.50    2.90
  -5  18   1   12.60    2.10
  18 -13   1   13.10    1.80
 -18  14  -1   12.50    2.50
  14   4  -1    9.20    1.90
   4 -18  -1   12.30    2.40
  -4  18   1    9.10    1.80
 -14  -4   1    9.70    1.80
  18 -14   1   10.00    1.80
  18 -14   1   15.00    2.50
   3 -18  -1   20.40    3.20
  15   3  -1   17.30    2.50
 -18  15  -1   18.60    2.60
  -3  18   1   11.20    2.20
  18 -15   1   14.70    2.10
 -15  -3   1   15.00    2.50
  18 -15   1   20.60    3.40
  -3  18   1   13.30    2.50
 -18  16  -1   16.40    3.10
 -18  16  -1   15.70    2.60
   2 -18  -1   12.70    2.70
  16   2  -1   14.10    2.30
 -16  -2   1   11.60    2.30
  -2  18   1   13.50    2.10
  18 -16   1   12.50    2.10
  -2  18   1   10.10    2.30
  18 -16   1   16.00    2.80
 -18  17  -1   24.10    3.00
  17   1  -1   13.90    2.80
 -18  17  -1   25.40    3.40
 -18  17  -1   27.20    3.40
   1 -18  -1   21.80    3.60
  -1  18   1   22.00    3.20
  -1  18   1   21.50    2.70
 -17  -1   1   15.30    2.80
  18   0  -1    2.50    1.90
   0 -18  -1    6.20    2.60
 -18  18  -1    5.00    2.40
 -18  18  -1    5.90    2.30
 -18  18  -1    4.70    1.90
 -18   0   1    2.20    2.10
   0  18   1    4.40    2.00
  -1 -18  -1    0.00    2.80
  19  -1  -1   -1.20    2.00
 -18  19  -1    3.90    2.40
 -18  19  -1   -1.40    2.00
 -18  19  -1    4.00    2.70
   1  18   1    1.70    2.10
 -19   1   1    5.60    2.50
  20  -2  -1   10.50    2.50
 -18  20  -1    9.00    2.50
 -18  20  -1    7.80    2.30
  -2 -18  -1    5.40    3.00
 -18  20  -1    7.50    2.80
 -20   2   1    8.10    3.10
   2  18   1    9.40    2.40
  21  -3  -1   19.80    3.30
 -18  21  -1   18.50    3.30
  -3 -18  -1   16.00    3.70
 -18  21  -1   16.40    3.20
 -18  21  -1   17.90    3.10
   3  18   1   18.90    3.20
 -18  22  -1    3.20    2.30
 -18  22  -1   -0.10    2.80
 -18  22  -1    4.60    3.00
 -18  23  -1    3.80    2.30
 -18  23  -1    6.10    3.40
 -18  23  -1    8.20    3.40
  23  -5  -1    6.80    2.60
   5  18   1    9.30    2.70
 -18  24  -1   -2.30    2.30
 -18  24  -1    0.80    3.70
  24  -6  -1    2.20    2.90
   6  18   1    1.40    2.60
  25  -7  -1    2.50    2.90
 -18  25  -1   -3.90    2.50
  25  -7  -1    4.20    3.20
 -18  25  -1   -3.50    3.90
   7  18   1    0.20    2.90
  26  -8  -1    4.30    3.20
 -18  26  -1   -1.20    4.50
 -18  26  -1    3.50    2.70
  26  -8  -1    5.20    3.60
   8  18   1    4.30    2.90
  27  -9  -1   -5.90    3.50
  27  -9  -1   -2.40    3.20
 -18  27  -1   -2.60    2.90
   9  18   1   -3.50    3.00
  28 -10  -1    2.40    3.40
 -18  28  -1    6.00    3.20
  28 -10  -1    6.10    4.10
  10  18   1    6.20    3.20
  28 -19  -1    0.00    5.20
  28 -19  -1    2.90    3.30
  -9  28  -1   -0.10    3.30
  19   9   1   -1.80    2.70
  27 -19  -1    0.30    4.60
  27 -19  -1    1.50    3.00
  -8  27  -1   -1.50    3.00
  19   8   1    2.90    2.70
  26 -19  -1    4.10    2.90
  -7  26  -1    0.80    2.80
  26 -19  -1    1.00    4.00
  19   7   1   -3.60    2.30
  25 -19  -1    2.10    2.50
  25 -19  -1    2.00    3.70
  -6  25  -1   -0.40    2.70
  19   6   1    2.60    2.30
  24 -19  -1    3.40    2.40
  -5  24  -1    2.70    2.60
  19   5   1   -1.00    2.20
  -4  23  -1    0.50    2.30
  23 -19  -1   -0.90    2.20
  19   4   1   -1.90    2.20
  22 -19  -1    7.30    2.30
  19   3   1   11.60    2.40
  21 -19  -1    0.30    2.00
  -2  21  -1   -1.10    2.20
  19   2   1    0.90    1.90
  20 -19  -1    2.50    2.00
  -1  20  -1    2.20    2.20
  19   1   1    5.60    2.10
   0  19  -1    4.30    2.00
  19 -19  -1    3.80    1.90
   0 -19   1    9.50    3.50
  19   0   1   10.60    2.30
 -19  19   1    9.20    3.30
  18 -19  -1    1.00    1.80
   1  18  -1    3.70    1.80
 -18  19   1    3.40    2.70
  -1 -18   1    2.30    2.40
  19  -1   1    0.40    3.20
 -19   2  -1   13.70    2.50
   2  17  -1   14.90    2.50
  17 -19  -1   16.20    2.60
  19  -2   1   23.60    3.00
 -17  19   1   15.10    3.00
  -2 -17   1   17.10    3.00
 -19   3  -1    7.10    2.00
   3  16  -1    4.10    1.70
  16 -19  -1    4.00    1.70
 -16  19   1    2.90    2.40
  19  -3   1    3.50    2.10
  -3 -16   1    1.40    2.00
 -19   4  -1    3.50    1.90
   4  15  -1    3.60    1.60
  15 -19  -1    5.00    1.60
  -4 -15   1    4.00    1.90
 -15  19   1    4.70    2.30
  19  -4   1    4.70    2.00
 -19   5  -1   20.00    2.90
   5  14  -1   20.00    2.50
  14 -19  -1   20.30    2.60
  19  -5   1   20.40    2.90
 -14  19   1   18.30    3.30
  -5 -14   1   19.80    2.70
   6  13  -1    7.60    1.70
  13 -19  -1    9.20    1.70
 -19   6  -1    8.20    2.20
 -13  19   1    5.40    1.80
  19  -6   1    9.20    2.00
  -6 -13   1    7.40    1.80
   7  12  -1   11.60    2.20
 -19   7  -1   10.50    2.30
  12 -19  -1   17.10    2.40
 -12  19   1   14.00    2.40
  -7 -12   1   11.00    2.10
  19  -7   1   14.80    2.50
 -19   8  -1   11.90    2.30
   8  11  -1    9.20    1.70
  11 -19  -1   11.80    2.30
  -8 -11   1    9.40    1.70
 -11  19   1    6.20    1.80
  19  -8   1   15.10    2.80
 -19   9  -1    2.10    2.10
   9  10  -1    1.30    1.50
  10 -19  -1    3.00    1.50
  19  -9   1    1.30    2.00
  -9 -10   1   -2.70    1.50
 -10  19   1   -1.40    1.50
   9 -19  -1    2.40    1.50
  10   9  -1    2.50    1.50
 -19  10  -1    4.70    2.50
   9 -19  -1    0.80    1.90
  -9  19   1    1.40    1.40
 -10  -9   1   -0.30    1.70
  -9  19   1    0.90    1.50
  19 -10   1    1.50    2.00
 -19  11  -1   17.70    3.20
  11   8  -1   13.50    2.10
   8 -19  -1   20.80    3.70
  -8  19   1   13.90    2.30
  19 -11   1   18.40    3.20
  -8  19   1   14.00    2.20
 -11  -8   1   10.70    2.10
  12   7  -1    0.10    1.50
   7 -19  -1   -1.90    1.90
 -19  12  -1   -1.50    2.30
  19 -12   1    0.80    2.20
 -12  -7   1   -2.50    1.50
  -7  19   1    1.80    1.50
  -7  19   1    2.20    1.50
 -19  13  -1    0.80    2.40
  13   6  -1    1.30    1.50
   6 -19  -1    1.20    2.20
  -6  19   1    1.10    1.50
 -13  -6   1    1.60    1.60
  19 -13   1   -2.60    2.10
  -6  19   1    4.90    1.60
   5 -19  -1   15.30    2.70
 -19  14  -1   13.40    2.70
  14   5  -1   16.40    2.40
  19 -14   1   18.10    3.20
 -14  -5   1   11.70    1.90
  19 -14   1   10.80    1.90
  -5  19   1   13.00    2.30
  -5  19   1   10.70    2.00
  15   4  -1    3.70    1.90
   4 -19  -1    5.40    2.40
 -19  15  -1    1.60    2.40
  19 -15   1    3.90    1.30
  -4  19   1    2.60    1.80
 -15  -4   1    2.60    1.80
  19 -15   1   -0.10    2.30
 -19  16  -1   15.10    2.70
   3 -19  -1   14.70    2.90
  16   3  -1   14.70    2.50
  -3  19   1   14.10    2.30
 -16  -3   1   12.50    2.30
  19 -16   1   13.00    2.20
  19 -16   1   23.40    3.60
 -19  17  -1    8.90    2.40
 -19  17  -1    6.60    2.70
  17   2  -1    3.90    2.00
   2 -19  -1    8.40    2.80
  -2  19   1    5.80    2.00
 -17  -2   1    5.80    2.20
  18   1  -1   32.90    3.60
 -19  18  -1   45.20    4.20
 -19  18  -1   41.80    3.60
   1 -19  -1   34.90    4.50
 -19  18  -1   37.90    4.10
 -18  -1   1   33.00    4.40
  -1  19   1   31.70    3.50
  19   0  -1    4.30    2.80
 -19  19  -1    7.00    2.50
 -19  19  -1    6.20    2.10
 -19  19  -1   11.90    2.90
   0 -19  -1    8.40    2.90
   0  19   1    5.40    2.20
 -19  20  -1   44.00    4.70
  20  -1  -1   28.40    4.70
  -1 -19  -1   38.10    5.00
 -19  20  -1   43.40    4.50
 -19  20  -1   40.50    3.80
   1  19   1   34.30    3.90
 -19  21  -1   24.00    3.30
 -19  21  -1   26.90    4.50
  -2 -19  -1   25.60    4.10
  21  -2  -1   23.80    3.50
 -19  21  -1   25.30    4.60
   2  19   1   21.60    3.50
  22  -3  -1   18.80    3.10
 -19  22  -1   17.80    3.40
 -19  22  -1   19.50    3.70
 -19  22  -1   18.20    3.30
  23  -4  -1   13.00    3.30
 -19  23  -1   11.60    3.80
 -19  23  -1   19.60    3.40
 -19  23  -1   14.20    3.80
   4  19   1   22.10    3.70
 -19  24  -1    3.10    3.70
  24  -5  -1    5.50    2.90
 -19  24  -1    1.70    4.00
 -19  24  -1    2.40    2.60
   5  19   1    6.30    2.70
  25  -6  -1    2.50    3.20
 -19  25  -1   -2.20    2.50
 -19  25  -1   -2.20    4.10
   6  19   1    3.40    2.90
 -19  26  -1    4.40    4.70
 -19  26  -1   -2.20    2.80
  26  -7  -1    4.00    3.60
  26  -7  -1    0.60    3.10
   7  19   1    4.70    3.00
  27  -8  -1    4.60    3.70
  27  -8  -1   -0.20    3.50
 -19  27  -1   -2.30    2.90
   8  19   1    1.00    3.00
  28  -9  -1   -4.00    3.60
 -19  28  -1    1.10    3.10
  28  -9  -1   -6.80    4.10
   9  19   1   -4.10    3.50
  -8  28  -1    1.70    3.40
  20   8   1    6.60    2.90
  27 -20  -1    4.90    5.10
  27 -20  -1   -1.30    3.20
  -7  27  -1    5.10    3.40
  20   7   1    0.60    2.60
  26 -20  -1    7.90    3.00
  -6  26  -1   13.10    3.30
  20   6   1   11.80    2.80
  -5  25  -1    4.20    2.90
  25 -20  -1    1.00    2.70
  20   5   1    2.20    2.50
  -4  24  -1    1.10    2.80
  24 -20  -1    3.70    2.60
  20   4   1    6.00    2.40
  -3  23  -1    1.20    2.60
  23 -20  -1    1.60    2.40
  20   3   1   -0.40    2.20
  22 -20  -1    8.00    2.40
  -2  22  -1    4.30    2.50
  20   2   1    7.90    2.20
  -1  21  -1    1.80    2.20
  21 -20  -1    3.70    2.10
  20   1   1    2.90    2.20
  20 -20  -1    0.70    1.90
   0  20  -1   -4.40    2.10
  20   0   1    1.00    2.20
 -20  20   1    1.20    3.20
  19 -20  -1   41.00    3.80
  20  -1   1   42.40    4.00
 -19  20   1   43.70    5.40
  18 -20  -1    5.40    1.90
   2  18  -1    9.00    3.00
 -18  20   1    6.00    2.90
  20  -2   1   12.00    2.40
   3  17  -1   11.50    2.10
  17 -20  -1    8.10    2.00
 -17  20   1    8.50    2.90
   4  16  -1    4.90    1.80
 -20   4  -1    4.70    2.20
  16 -20  -1    4.70    1.80
  20  -4   1    6.00    2.20
 -16  20   1    4.40    2.80
  15 -20  -1    1.50    1.70
 -20   5  -1    1.00    2.00
   5  15  -1    1.80    1.60
  20  -5   1    0.10    2.00
 -15  20   1   -1.50    2.30
  -5 -15   1   -1.60    2.20
 -20   6  -1    6.60    2.30
  14 -20  -1   11.90    2.30
   6  14  -1    4.70    1.70
 -14  20   1    4.10    2.40
  20  -6   1   11.10    2.20
  -6 -14   1    7.50    2.00
  13 -20  -1    0.40    1.60
   7  13  -1    2.80    1.60
 -20   7  -1    0.00    2.30
 -13  20   1   -3.10    1.90
  20  -7   1    1.10    2.20
  -7 -13   1    1.20    1.70
  12 -20  -1   12.60    2.30
 -20   8  -1   11.00    2.60
   8  12  -1    7.90    1.70
  -8 -12   1    4.80    1.60
 -12  20   1    7.20    1.80
  20  -8   1   12.00    2.40
   9  11  -1    6.30    1.70
 -20   9  -1    9.50    2.50
  11 -20  -1    5.00    1.60
  20  -9   1    3.30    2.10
  -9 -11   1    1.00    1.60
  10  10  -1    1.50    1.50
  10 -20  -1   -0.90    1.50
 -20  10  -1    2.40    2.40
  10 -20  -1    1.60    2.10
 -10 -10   1   -1.10    1.80
 -10  20   1    0.80    1.60
 -10  20   1    1.10    1.50
  20 -10   1    3.70    2.20
 -20  11  -1   20.50    3.20
   9 -20  -1   18.90    3.20
  11   9  -1   17.80    2.30
  20 -11   1   23.80    3.40
 -11  -9   1   15.90    2.50
  -9  20   1   12.80    2.20
  -9  20   1   17.20    2.30
   8 -20  -1    4.30    2.20
 -20  12  -1    3.00    2.60
  12   8  -1    1.60    1.50
 -12  -8   1    1.60    1.90
  -8  20   1    6.10    1.70
  -8  20   1    2.70    1.70
  20 -12   1    2.90    2.40
 -20  13  -1    7.70    2.60
  13   7  -1    7.70    1.80
   7 -20  -1    8.90    2.40
  -7  20   1    5.70    1.90
  -7  20   1    7.10    1.80
 -13  -7   1    4.70    2.10
  20 -13   1    5.30    2.60
 -20  14  -1    0.30    2.70
  14   6  -1    2.70    1.70
   6 -20  -1    0.30    2.50
  20 -14   1    0.00    1.20
  -6  20   1    0.70    1.70
  20 -14   1   -1.00    2.30
   5 -20  -1    5.80    2.70
  15   5  -1    6.80    2.00
 -20  15  -1    3.10    2.80
  20 -15   1    3.80    1.30
  -5  20   1    4.40    1.80
  20 -15   1    5.60    2.60
   4 -20  -1    3.90    2.70
 -20  16  -1   -1.50    2.60
  -4  20   1   -0.40    1.80
  20 -16   1    3.30    1.40
  20 -16   1    3.40    2.50
 -20  17  -1    0.00    2.70
   3 -20  -1    0.60    2.60
  17   3  -1    0.20    2.50
  -3  20   1    0.20    2.00
  20 -17   1    0.50    1.50
  20 -17   1    2.20    2.80
 -20  18  -1   16.10    2.90
   2 -20  -1   17.10    3.40
  18   2  -1   13.80    2.50
 -20  18  -1   11.80    3.00
 -20  18  -1   20.10    3.90
  -2  20   1   14.60    2.40
 -20  19  -1    1.60    2.80
 -20  19  -1    1.30    2.70
   1 -20  -1    3.80    3.10
  19   1  -1   -1.00    2.10
 -20  19  -1    3.20    2.20
  -1  20   1    0.70    2.10
 -20  20  -1    1.80    2.90
  20   0  -1   -1.70    2.40
 -20  20  -1    1.70    2.10
 -20  20  -1    2.20    2.80
   0 -20  -1   -1.30    3.30
   0  20   1   -0.20    2.30
 -20  21  -1    9.70    2.60
 -20  21  -1   13.90    3.50
  -1 -20  -1   10.80    3.80
 -20  21  -1    7.00    3.10
  21  -1  -1   12.60    2.90
   1  20   1   11.10    2.70
 -20  22  -1    2.30    2.40
 -20  22  -1    4.10    3.30
 -20  22  -1    0.80    3.20
  22  -2  -1    3.00    2.70
   2  20   1    5.30    3.90
 -20  23  -1    2.60    3.80
 -20  23  -1    5.10    3.70
 -20  23  -1    4.40    2.60
  23  -3  -1    1.50    2.80
   3  20   1    7.00    2.80
 -20  24  -1   -2.80    2.60
 -20  24  -1    2.10    4.10
  24  -4  -1    1.50    2.90
 -20  24  -1    2.30    3.70
   4  20   1    0.70    2.90
 -20  25  -1    0.70    2.70
  25  -5  -1    4.70    3.30
 -20  25  -1    1.80    4.20
   5  20   1    4.30    2.90
  26  -6  -1    4.40    3.50
 -20  26  -1    0.30    2.80
   6  20   1    2.70    3.30
 -20  27  -1    2.90    2.90
  27  -7  -1    4.80    3.40
  27  -7  -1    5.50    4.10
   7  20   1    2.70    3.40
 -20  28  -1   11.40    3.50
  28  -8  -1   15.60    3.90
  28  -8  -1   12.70    4.90
   8  20   1   11.30    3.60
  21   7   1   -1.90    3.00
  -6  27  -1   -1.90    3.00
  27 -21  -1    1.40    3.40
  21   6   1    1.50    2.60
  -5  26  -1   -1.00    2.80
  21   5   1    3.80    2.50
  -4  25  -1    0.60    2.80
  25 -21  -1    0.70    3.10
  21   4   1    4.30    2.50
  24 -21  -1    0.80    2.50
  -3  24  -1   -1.70    2.40
  21   3   1    0.80    2.40
  -2  23  -1   11.30    2.90
  23 -21  -1   10.10    2.70
  21   2   1   18.60    3.10
  22 -21  -1    0.50    2.20
  -1  22  -1   -2.50    2.10
  21   1   1    4.70    2.40
   0  21  -1    4.60    2.30
  21 -21  -1    8.60    2.30
  21   0   1    8.70    2.30
 -21  21   1    5.50    4.00
   1  20  -1    8.10    2.30
  20 -21  -1    9.40    2.20
  21  -1   1   13.40    2.60
 -20  21   1   12.00    3.80
  19 -21  -1   21.50    3.10
   2  19  -1   16.80    3.00
 -19  21   1   16.60    3.80
  21  -2   1   21.70    3.40
  18 -21  -1   14.70    2.90
   3  18  -1   16.00    2.80
 -18  21   1   15.60    3.50
  21  -3   1   21.20    3.30
   4  17  -1    4.50    1.90
  17 -21  -1    2.20    1.80
  21  -4   1    0.50    2.10
 -17  21   1   -2.70    2.70
  16 -21  -1   33.10    3.20
   5  16  -1   28.90    3.00
  21  -5   1   29.00    4.50
 -16  21   1   32.40    4.70
 -21   6  -1    5.60    2.70
   6  15  -1    7.10    2.00
  15 -21  -1    5.20    1.80
 -15  21   1    2.30    2.70
  21  -6   1    9.30    2.30
   7  14  -1   15.20    2.50
  14 -21  -1   18.10    2.70
 -21   7  -1   16.60    3.10
 -14  21   1   16.90    2.80
  21  -7   1   19.60    3.40
  13 -21  -1    2.50    1.70
   8  13  -1    2.30    2.10
 -21   8  -1   -0.40    2.70
  21  -8   1    1.30    2.20
 -13  21   1    2.30    2.10
 -21   9  -1    9.60    2.90
  12 -21  -1   11.80    2.00
   9  12  -1   11.20    2.50
  21  -9   1   15.30    2.60
 -12  21   1    6.90    2.10
 -21  10  -1    3.10    2.80
  10  11  -1   -0.20    1.80
  11 -21  -1    0.30    1.60
  21 -10   1   -1.60    2.20
 -11  21   1   -3.30    2.00
  11  10  -1    6.40    2.00
  10 -21  -1    4.80    2.30
 -21  11  -1    6.70    2.90
  21 -11   1    7.80    2.60
 -10  21   1    3.80    1.70
 -21  12  -1    3.90    3.00
   9 -21  -1    5.40    2.40
  12   9  -1    4.40    1.80
  21 -12   1    6.60    2.60
  -9  21   1    3.80    1.80
   8 -21  -1    7.10    2.70
  13   8  -1    7.60    1.90
 -21  13  -1    4.50    2.90
  21 -13   1    5.70    2.60
  -8  21   1    5.80    1.80
  14   7  -1    4.60    1.90
   7 -21  -1    3.30    2.60
 -21  14  -1    4.10    2.80
  21 -14   1    1.20    2.50
  -7  21   1    5.60    1.90
   6 -21  -1    1.40    2.80
  15   6  -1    2.40    1.90
 -21  15  -1    1.10    2.80
  21 -15   1    4.50    2.50
  -6  21   1    0.20    1.80
  21 -15   1    0.20    1.30
  16   5  -1    7.90    2.00
 -21  16  -1    8.10    3.10
   5 -21  -1    8.50    3.10
  21 -16   1    6.80    1.50
  -5  21   1    5.00    2.20
  21 -16   1    7.60    3.10
 -21  17  -1   -0.40    2.80
  17   4  -1    3.60    2.00
   4 -21  -1    3.00    3.00
  21 -17   1    1.10    1.50
  -4  21   1   -0.80    1.90
  21 -17   1    1.40    2.80
   3 -21  -1   14.60    3.50
 -21  18  -1   11.90    3.20
  18   3  -1    8.30    2.30
  -3  21   1    7.40    2.40
  19   2  -1    0.50    1.90
 -21  19  -1    1.00    2.20
   2 -21  -1   -1.90    3.40
 -21  19  -1    1.60    3.00
  -2  21   1   -0.50    2.20
 -21  20  -1    3.00    2.40
 -21  20  -1   -0.20    3.20
  20   1  -1   -0.90    2.30
   1 -21  -1    5.90    3.70
 -21  20  -1    5.40    3.10
  -1  21   1    2.80    2.40
 -21  21  -1    9.00    3.50
 -21  21  -1    8.00    2.60
   0 -21  -1    7.30    4.10
  21   0  -1    2.80    2.60
 -21  21  -1    5.10    3.30
   0  21   1    8.70    2.70
  22  -1  -1   82.79    6.20
 -21  22  -1   90.09    6.10
 -21  22  -1   91.79    7.10
 -21  22  -1   79.39    6.90
   1  21   1   62.69    7.00
 -21  23  -1   20.00    3.70
 -21  23  -1   17.50    4.10
 -21  23  -1   17.20    4.30
  23  -2  -1   14.50    3.20
   2  21   1   15.40    3.10
 -21  24  -1   34.00    5.80
 -21  24  -1   32.80    4.30
 -21  24  -1   32.70    6.20
  24  -3  -1   27.90    4.60
   3  21   1   35.30    4.30
  25  -4  -1    4.90    3.10
 -21  25  -1    6.60    4.70
 -21  25  -1   -1.10    2.80
   4  21   1    6.70    3.20
  26  -5  -1    2.10    3.60
 -21  26  -1   -3.30    2.90
   5  21   1    1.00    3.30
 -21  27  -1   -4.60    3.10
  27  -6  -1    7.70    4.00
   6  21   1    1.50    3.50
  28  -7  -1    6.20    4.60
   7  21   1   -7.10    3.50
  -5  27  -1    1.60    3.40
  27 -22  -1    1.60    3.20
  22   5   1    5.10    2.80
  -4  26  -1   -4.30    2.90
  26 -22  -1   -2.80    2.90
  22   4   1    0.20    2.60
  -3  25  -1   -0.50    2.90
  25 -22  -1    0.70    2.70
  22   3   1    3.40    2.70
  24 -22  -1    0.70    2.80
  -2  24  -1   -0.30    2.60
  22   2   1    1.80    2.50
  -1  23  -1   19.40    3.50
  22   1   1   31.00    3.90
   0  22  -1    3.30    2.40
  22   0   1    5.00    2.40
   1  21  -1   66.39    5.70
  21 -22  -1   77.59    6.20
  22  -1   1   85.99    6.00
   2  20  -1    3.20    2.20
  20 -22  -1    1.60    2.30
  22  -2   1    1.70    2.50
   3  19  -1   14.80    2.80
  19 -22  -1   16.80    3.10
  22  -3   1   21.80    3.70
   4  18  -1    1.50    1.90
  18 -22  -1    3.50    2.00
  22  -4   1    1.00    2.30
   5  17  -1    4.40    2.00
  17 -22  -1    4.40    1.90
  22  -5   1    3.50    2.50
   6  16  -1    9.70    2.00
  16 -22  -1    6.10    2.10
  22  -6   1   12.90    2.60
   7  15  -1   -1.80    1.70
  15 -22  -1   -0.20    2.10
  22  -7   1   -3.40    3.60
   8  14  -1    6.20    2.10
  14 -22  -1    6.30    3.00
 -22   8  -1    3.60    3.10
  22  -8   1   12.80    2.80
 -22   9  -1    0.70    3.00
   9  13  -1    0.10    1.60
  22  -9   1    0.40    2.40
  12 -22  -1    6.50    2.30
 -22  10  -1   10.80    3.10
  10  12  -1    7.10    1.90
  22 -10   1   12.70    2.90
 -12  22   1   10.40    2.80
 -22  11  -1    2.00    3.00
  11  11  -1    0.00    1.60
  22 -11   1    1.80    2.80
 -11  22   1    0.80    1.70
 -22  12  -1   10.00    3.30
  12  10  -1    1.70    1.70
  10 -22  -1    6.30    2.70
 -10  22   1    5.30    1.80
  22 -12   1    7.20    3.00
   9 -22  -1    8.30    2.80
 -22  13  -1   14.20    3.30
  13   9  -1   10.20    2.00
  22 -13   1   12.10    3.10
  -9  22   1    8.80    2.00
 -22  14  -1    2.30    3.30
   8 -22  -1    6.10    2.80
  14   8  -1    3.70    1.90
  -8  22   1    2.00    1.90
  22 -14   1   -2.70    2.80
 -22  15  -1    4.70    3.10
   7 -22  -1    4.70    3.00
  15   7  -1    6.10    1.90
  22 -15   1    0.40    2.70
  -7  22   1    0.40    1.90
 -22  16  -1   -1.30    3.10
   6 -22  -1    3.10    3.10
  16   6  -1    4.80    2.00
  22 -16   1    1.20    1.40
  -6  22   1   -0.60    2.00
  22 -16   1    2.40    3.00
   5 -22  -1    0.50    3.30
 -22  17  -1    2.90    3.30
  17   5  -1    2.30    2.20
  -5  22   1   -0.30    2.10
  22 -17   1   -0.20    3.00
  22 -17   1    2.40    1.50
  18   4  -1   16.90    2.90
   4 -22  -1   21.30    4.30
 -22  18  -1   24.30    4.50
  -4  22   1   12.90    2.70
  22 -18   1   14.70    2.00
  22 -18   1   24.90    3.90
  19   3  -1    9.40    2.40
 -22  19  -1   11.80    3.50
 -22  19  -1   11.80    2.70
   3 -22  -1   15.50    3.90
  -3  22   1    9.60    2.60
 -22  20  -1    5.50    3.60
 -22  20  -1    6.80    2.70
  20   2  -1    2.40    2.30
   2 -22  -1    5.50    3.80
  -2  22   1    4.70    2.60
 -22  21  -1    3.20    3.60
  21   1  -1    0.20    2.80
 -22  21  -1    0.10    2.50
 -22  21  -1   -3.60    3.60
   1 -22  -1    1.70    4.50
  -1  22   1    0.60    2.60
 -22  22  -1    4.40    2.80
  22   0  -1    1.50    2.60
 -22  22  -1    5.30    3.70
 -22  22  -1   -4.10    3.80
   0  22   1    6.20    3.50
 -22  23  -1    9.00    3.00
 -22  23  -1    7.00    4.20
 -22  23  -1    5.40    4.10
  23  -1  -1    7.80    3.10
   1  22   1    8.60    3.00
 -22  24  -1    5.20    3.00
  24  -2  -1   11.30    3.60
 -22  24  -1    8.20    4.40
 -22  24  -1    8.20    4.40
   2  22   1   11.30    3.10
 -22  25  -1   10.80    5.00
 -22  25  -1   10.20    3.40
  25  -3  -1   12.20    3.80
   3  22   1   13.20    3.80
  26  -4  -1    6.60    3.90
 -22  26  -1   -2.60    3.00
   4  22   1    3.50    3.30
 -22  27  -1   -0.40    3.20
  27  -5  -1    1.70    4.00
   5  22   1   -0.10    3.50
  -4  27  -1    2.50    3.50
  23   4   1    2.80    3.10
  -3  26  -1   -0.10    3.10
  26 -23  -1    0.00    3.00
  23   3   1    6.50    2.90
  -2  25  -1    7.50    3.30
  25 -23  -1    4.80    2.90
  23   2   1    9.10    3.10
  -1  24  -1    0.00    2.80
  24 -23  -1   -1.60    2.60
  23   1   1    1.00    2.60
  23 -23  -1    9.90    2.70
   0  23  -1    9.40    3.00
  23   0   1   20.80    3.60
   1  22  -1    9.90    2.90
  22 -23  -1    6.60    2.60
  23  -1   1    9.50    3.00
  21 -23  -1   16.30    2.70
   2  21  -1   14.30    2.60
  23  -2   1   16.30    3.20
  20 -23  -1    2.10    2.20
   3  20  -1    2.50    2.30
  23  -3   1    2.40    2.60
   4  19  -1   15.50    3.00
  19 -23  -1   20.70    3.20
  23  -4   1   17.90    3.20
   5  18  -1    8.70    2.20
  18 -23  -1    6.10    2.20
  23  -5   1   10.20    2.90
  17 -23  -1    0.10    2.10
   6  17  -1    1.60    1.80
  23  -6   1    2.80    2.60
   7  16  -1    9.30    2.20
  16 -23  -1    8.50    2.20
  23  -7   1   13.00    3.10
   8  15  -1    1.60    1.80
  15 -23  -1    1.00    1.90
  23  -8   1    3.80    2.50
  14 -23  -1   13.30    2.30
   9  14  -1   13.20    2.10
  10  13  -1   -1.10    1.70
  13 -23  -1    0.70    1.80
 -23  10  -1   -2.60    3.90
  23 -10   1   -0.80    2.70
 -23  11  -1    7.80    3.30
  11  12  -1    8.10    1.90
 -12  23   1    8.50    2.70
  23 -11   1   16.20    3.10
 -23  12  -1   16.10    3.60
  12  11  -1   15.10    2.60
 -11  23   1   16.80    2.70
  23 -12   1   25.30    4.40
  10 -23  -1   13.10    3.30
 -23  13  -1   12.90    3.70
  13  10  -1    6.60    1.90
  23 -13   1   10.90    3.20
 -10  23   1    9.30    2.10
   9 -23  -1   -0.10    3.00
  14   9  -1    1.50    1.90
 -23  14  -1    6.80    3.50
  23 -14   1   -1.40    3.00
  -9  23   1    2.30    2.00
 -23  15  -1    7.00    3.60
   8 -23  -1    5.10    3.30
  15   8  -1    5.80    2.00
  -8  23   1    4.30    2.00
  23 -15   1    4.50    2.90
  16   7  -1    4.10    2.00
   7 -23  -1   -0.90    3.40
 -23  16  -1   -3.90    3.40
  23 -16   1    5.00    3.20
  -7  23   1    2.10    2.20
  17   6  -1   -1.70    2.00
   6 -23  -1    2.40    3.50
 -23  17  -1   -0.70    3.40
  23 -17   1   -2.90    3.10
  -6  23   1   -0.50    2.20
  23 -17   1    1.50    1.60
  18   5  -1    1.50    2.20
   5 -23  -1    1.80    3.70
 -23  18  -1    1.50    3.60
  23 -18   1    1.50    1.70
  23 -18   1    3.90    3.40
  -5  23   1   -1.20    2.40
   4 -23  -1    3.30    4.10
  19   4  -1    3.10    2.30
 -23  19  -1   -0.20    3.70
  -4  23   1   -1.00    2.40
   3 -23  -1    4.50    4.40
 -23  20  -1    4.80    2.70
  20   3  -1    2.90    2.40
 -23  20  -1    2.10    3.80
  -3  23   1    0.00    2.50
 -23  21  -1    8.50    4.20
 -23  21  -1   16.30    3.10
   2 -23  -1   19.70    5.60
  21   2  -1   12.40    2.90
  -2  23   1   10.10    3.20
 -23  22  -1   21.80    4.70
  22   1  -1   19.80    4.00
 -23  22  -1   26.80    4.20
  -1  23   1   23.30    3.80
 -23  23  -1   16.40    3.30
  23   0  -1   13.60    3.20
 -23  23  -1    8.40    4.50
 -23  23  -1   18.70    4.60
   0  23   1   12.30    3.40
 -23  24  -1   45.00    5.00
  24  -1  -1   39.00    5.40
   1  23   1   36.90    4.80
 -23  25  -1    0.90    3.30
  25  -2  -1   -5.70    3.30
   2  23   1    5.60    3.60
  26  -3  -1   20.80    4.30
 -23  26  -1   13.30    3.60
   3  23   1   16.10    3.90
  27  -4  -1    1.10    4.30
   4  23   1   -1.10    3.70
  26 -24  -1   -1.30    3.10
  -2  26  -1    2.70    3.30
  24   2   1    3.60    3.10
  25 -24  -1    2.80    2.90
  -1  25  -1    7.60    3.40
  24   1   1   11.10    3.10
  24 -24  -1    7.40    3.00
   0  24  -1    8.80    3.10
  24   0   1   18.70    3.60
  23 -24  -1   33.10    4.50
   1  23  -1   30.10    4.40
  24  -1   1   42.30    4.80
  22 -24  -1    9.10    2.60
   2  22  -1    7.00    3.00
  24  -2   1   11.60    3.00
  21 -24  -1   31.20    4.00
   3  21  -1   25.90    3.80
  24  -3   1   34.80    4.40
   4  20  -1    2.90    2.40
  20 -24  -1    0.50    2.40
  24  -4   1    1.70    2.80
   5  19  -1   -2.70    2.00
  19 -24  -1    3.70    2.30
  24  -5   1    3.50    3.00
  18 -24  -1    1.80    2.20
   6  18  -1   -1.80    2.00
  24  -6   1    1.60    2.70
  17 -24  -1    0.30    2.10
   7  17  -1    0.70    2.10
  24  -7   1   -4.10    2.80
  16 -24  -1    0.70    2.10
   8  16  -1    2.00    1.90
  24  -8   1    5.20    2.70
   9  15  -1    0.20    1.80
  15 -24  -1   -0.60    1.90
  24  -9   1    2.50    2.80
  10  14  -1    5.00    1.90
  24 -10   1    4.80    3.10
  11  13  -1    3.80    2.00
 -13  24   1    2.70    2.80
  12  12  -1   14.00    2.60
 -12  24   1   14.30    2.90
  24 -12   1   27.00    4.20
 -12  24   1   18.10    3.30
  13  11  -1    2.40    2.00
 -24  13  -1    0.30    3.90
 -11  24   1    5.10    2.10
  24 -13   1    4.70    3.30
  14  10  -1    1.10    1.90
 -24  14  -1    6.40    3.80
  10 -24  -1    4.70    3.40
  24 -14   1    4.00    3.30
 -10  24   1    2.40    2.10
 -24  15  -1    3.40    3.80
  15   9  -1    5.90    2.00
   9 -24  -1    0.50    3.50
  -9  24   1    3.20    2.20
  24 -15   1   -6.00    3.00
 -24  16  -1    9.40    4.10
  16   8  -1    7.30    2.20
   8 -24  -1    4.70    3.70
  -8  24   1    4.60    2.40
  24 -16   1    8.90    3.20
  17   7  -1    4.20    2.30
   7 -24  -1    4.00    4.00
 -24  17  -1    1.40    4.10
  -7  24   1    1.50    2.40
  24 -17   1    7.90    3.70
  18   6  -1   13.90    2.60
   6 -24  -1   11.60    4.30
 -24  18  -1    7.40    4.00
  -6  24   1    8.20    2.70
  24 -18   1    5.80    1.80
  24 -18   1   17.80    4.10
  19   5  -1    1.40    2.30
 -24  19  -1   -1.20    3.90
   5 -24  -1    2.00    4.30
  24 -19   1    2.30    3.90
  -5  24   1   -2.20    2.50
 -24  20  -1    7.10    3.00
   4 -24  -1   11.00    4.80
  20   4  -1    8.90    2.50
 -24  20  -1    6.10    4.50
  -4  24   1    4.30    2.80
  21   3  -1   -0.80    2.40
 -24  21  -1    1.50    3.00
 -24  21  -1    2.40    4.40
  -3  24   1   -4.30    2.80
  22   2  -1   -0.80    2.80
 -24  22  -1    2.30    3.10
 -24  22  -1    1.70    4.50
  -2  24   1    0.90    3.00
  23   1  -1   -1.50    3.00
 -24  23  -1   -0.30    5.10
 -24  23  -1    2.20    3.20
  -1  24   1   -0.30    3.50
  24   0  -1    3.70    3.60
 -24  24  -1    9.80    3.60
   0  24   1   13.00    3.50
 -24  25  -1    0.10    3.60
  25  -1  -1    0.40    3.50
   1  24   1    6.50    3.60
 -24  26  -1    1.20    3.80
  26  -2  -1   10.40    4.20
   2  24   1    6.10    3.90
  25 -25  -1    3.00    3.00
   0  25  -1    0.00    3.30
  25   0   1    1.40    3.40
  24 -25  -1    1.30    2.90
   1  24  -1    1.20    3.10
  25  -1   1    7.50    3.50
  23 -25  -1    2.30    2.80
   2  23  -1    3.50    2.80
  25  -2   1    3.10    3.40
  22 -25  -1   12.50    2.80
   3  22  -1    9.10    3.10
  25  -3   1   12.80    3.50
  21 -25  -1    3.50    2.60
   4  21  -1    1.30    2.40
  25  -4   1   -0.60    3.10
   5  20  -1    4.70    2.50
  20 -25  -1    4.70    2.50
  25  -5   1    2.00    3.20
  19 -25  -1    1.70    2.40
   6  19  -1   -1.00    2.40
  25  -6   1    2.80    3.10
  18 -25  -1    1.10    2.40
   7  18  -1   -0.20    2.10
  25  -7   1   -1.70    3.30
   8  17  -1   -0.80    2.00
  17 -25  -1    0.00    2.10
  25  -8   1    0.70    3.10
   9  16  -1   -3.40    2.00
  16 -25  -1    1.00    2.10
  25  -9   1    4.50    3.00
  10  15  -1    6.20    2.10
  25 -10   1    3.30    3.30
  11  14  -1   -1.90    2.10
  25 -11   1    2.80    3.30
 -14  25   1    2.60    3.00
  12  13  -1   19.00    3.00
 -13  25   1   30.20    4.50
  13  12  -1   13.40    2.60
  25 -13   1   18.30    4.00
 -12  25   1   16.60    2.60
 -12  25   1   12.90    3.60
  14  11  -1   22.10    3.20
 -11  25   1   30.40    3.40
  10 -25  -1   17.20    4.20
  15  10  -1   13.10    2.50
  25 -15   1   12.70    4.40
 -10  25   1   16.80    2.70
  16   9  -1    4.80    2.30
 -25  16  -1    5.90    4.80
   9 -25  -1   -0.80    4.00
  -9  25   1    0.70    2.40
  25 -16   1    0.90    3.50
  17   8  -1   -0.60    2.10
 -25  17  -1    1.70    4.40
   8 -25  -1    2.90    4.30
  25 -17   1    1.70    4.00
  -8  25   1   -1.30    2.50
   7 -25  -1    1.50    4.60
  18   7  -1    0.10    2.30
 -25  18  -1    2.30    4.60
  25 -18   1    4.20    4.10
  -7  25   1    0.00    2.60
   6 -25  -1    2.90    4.70
  19   6  -1   -0.60    2.40
 -25  19  -1    2.50    4.50
  25 -19   1    3.80    4.00
  -6  25   1   -1.80    2.70
   5 -25  -1    6.90    5.10
 -25  20  -1    1.90    4.60
  20   5  -1    4.90    2.40
  -5  25   1    1.50    2.90
 -25  21  -1   -1.40    4.70
 -25  21  -1    1.60    3.40
  21   4  -1    4.20    2.60
  -4  25   1   -0.80    3.10
 -25  22  -1    1.50    5.30
  22   3  -1   -2.20    2.90
 -25  22  -1    0.00    3.30
  -3  25   1    0.90    3.20
 -25  23  -1   10.30    3.70
  23   2  -1    6.30    3.20
  -2  25   1    7.60    3.60
 -25  24  -1    8.50    3.80
  24   1  -1    6.90    3.50
  -1  25   1    7.60    3.60
  25   0  -1    1.30    3.90
 -25  25  -1    1.80    3.80
   0  25   1    7.30    3.80
  24 -26  -1    5.70    3.40
   2  24  -1    2.60    3.10
  26  -2   1    2.00    3.60
   3  23  -1    8.30    3.20
  23 -26  -1   11.40    3.20
  26  -3   1    9.40    3.90
  22 -26  -1   -1.40    2.70
   4  22  -1   -2.00    2.90
  26  -4   1   -5.00    3.30
  21 -26  -1    0.00    2.80
   5  21  -1    1.00    2.90
  26  -5   1    1.90    3.40
   6  20  -1    0.90    2.50
  20 -26  -1    4.30    2.70
  26  -6   1    2.00    3.30
  19 -26  -1   -0.70    2.50
   7  19  -1    0.40    2.30
  26  -7   1    3.10    3.70
   8  18  -1    0.10    2.30
  18 -26  -1    3.30    2.30
  26  -8   1   10.50    3.70
   9  17  -1    4.40    2.20
  26  -9   1    9.30    3.60
  10  16  -1    4.50    2.20
  26 -10   1   10.10    3.70
  11  15  -1   12.80    2.60
  26 -11   1   12.70    3.90
  12  14  -1    0.20    2.00
  26 -12   1    6.30    3.60
  13  13  -1    2.10    2.40
  26 -13   1    3.30    3.90
  14  12  -1    0.40    2.10
  26 -14   1    2.10    4.00
 -12  26   1    2.80    2.40
  11 -26  -1   10.30    5.50
  15  11  -1    7.10    2.40
 -11  26   1    9.40    2.70
  26 -15   1    8.50    4.20
  10 -26  -1    4.00    4.90
  16  10  -1   -3.10    2.10
  26 -16   1    0.40    4.00
 -10  26   1    1.20    2.70
  17   9  -1    3.00    2.30
   9 -26  -1   -0.90    4.50
  -9  26   1    2.70    2.70
  26 -17   1    8.90    5.40
  18   8  -1    8.30    2.60
   8 -26  -1   11.60    5.20
  -8  26   1    5.50    2.90
   7 -26  -1   -0.50    5.20
  19   7  -1   -1.50    2.40
  26 -19   1    3.20    5.10
  -7  26   1   -0.30    2.90
 -26  20  -1   16.60    7.10
   6 -26  -1    9.80    5.60
  20   6  -1   13.30    3.00
  -6  26   1   12.60    3.40
  26 -20   1   13.10    5.00
  21   5  -1    0.50    2.70
 -26  21  -1    5.40    6.70
 -26  21  -1   -1.00    3.40
  -5  26   1   -2.60    3.30
  22   4  -1   -1.60    3.00
 -26  22  -1    4.10    3.70
  -4  26   1   -4.80    3.30
  23   3  -1    3.60    3.20
 -26  23  -1    5.40    3.70
  -3  26   1   -0.10    3.80
 -26  24  -1   -0.60    3.90
  24   2  -1    6.60    3.50
  -2  26   1    4.70    3.80
   4  23  -1   -4.10    3.10
  27  -4   1    0.90    4.50
   5  22  -1    3.40    2.90
  22 -27  -1    0.00    3.00
  27  -5   1    4.40    3.80
   6  21  -1   -3.10    2.80
  21 -27  -1   -1.60    2.80
  27  -6   1   -4.90    3.70
  20 -27  -1    0.80    2.60
   7  20  -1   -3.00    2.70
  27  -7   1    2.20    4.10
   8  19  -1   -2.00    2.30
  27  -8   1    3.20    4.00
   9  18  -1   -1.50    2.20
  27  -9   1    2.60    3.70
  10  17  -1   -3.80    2.40
  27 -10   1    2.10    4.00
  11  16  -1   -0.80    2.40
  27 -11   1   -2.30    3.70
  12  15  -1    7.50    2.60
  27 -12   1   11.50    4.30
  13  14  -1   12.50    2.70
  27 -13   1   15.70    4.80
  14  13  -1   15.60    2.90
  27 -14   1   24.00    4.90
  15  12  -1    6.30    2.50
 -12  27   1    7.70    2.80
  27 -15   1    2.40    4.40
  16  11  -1    8.20    2.50
  27 -16   1    8.90    4.50
 -11  27   1   10.30    3.10
  17  10  -1   -6.00    2.40
  27 -17   1    6.50    4.30
 -10  27   1    1.20    2.90
  18   9  -1    3.30    2.60
  27 -18   1    2.80    4.80
  -9  27   1    1.80    3.10
  19   8  -1   -0.90    2.50
  27 -19   1    4.00    4.90
  -8  27   1   -2.00    3.10
  20   7  -1    1.20    2.60
  -7  27   1    5.00    3.20
  27 -20   1    4.20    5.20
  21   6  -1    0.90    2.70
  -6  27   1   -1.20    4.40
 -27  22  -1    7.40    4.20
  22   5  -1    4.20    3.10
  -5  27   1    3.80    3.80
  23   4  -1    2.80    3.20
  -4  27   1    0.30    4.00
   7  21  -1    1.30    2.90
  28  -7   1    1.20    4.40
   8  20  -1   10.50    3.00
  28  -8   1   18.00    4.40
   9  19  -1   -2.50    2.80
  28  -9   1    7.10    4.50
  10  18  -1   -1.00    2.80
  28 -10   1    5.30    4.60
  11  17  -1    2.40    2.50
  28 -11   1    1.70    4.30
  12  16  -1    2.10    2.80
  28 -12   1    4.20    4.50
  13  15  -1   -0.30    2.30
  28 -13   1    1.40    4.80
  14  14  -1    3.10    2.30
  28 -14   1    2.10    4.50
  15  13  -1   -0.20    2.50
  28 -15   1   -2.10    4.60
 -13  28   1    0.30    3.40
  16  12  -1    3.00    2.40
  28 -16   1   -2.70    4.60
 -12  28   1   -0.30    3.10
  17  11  -1    2.70    2.60
  28 -17   1    7.30    4.80
 -11  28   1    4.20    3.20
  18  10  -1   -6.30    2.60
  28 -18   1    7.60    5.10
 -10  28   1   -4.10    3.20
  19   9  -1   -0.10    2.60
  -9  28   1   -0.80    3.30
  28 -19   1   -0.30    5.20
  20   8  -1    6.10    2.70
  28 -20   1    9.20    5.60
  -8  28   1    0.90    3.50
  21   7  -1    1.10    2.90
  28 -21   1   -5.30    5.80
  12  17  -1   -3.70    2.80
  29 -12   1   10.20    5.20
  13  16  -1    6.30    2.70
  29 -13   1    8.70    5.70
  14  15  -1    6.70    2.80
  29 -14   1    5.70    5.30
  15  14  -1    4.20    2.70
  29 -15   1    6.50    5.30
  16  13  -1    0.60    2.60
  29 -16   1   -1.60    5.50
  17  12  -1    0.00    2.70
  29 -17   1    0.80    5.30
   0   0  -2 9210.08  536.15
   0   0  -2 9999.00  535.75
  -1   0  -2  378.06   21.50
   0   1  -2  371.86   21.50
   1  -1  -2  407.76   21.50
   1  -1  -2  393.76   21.40
   0   1  -2  362.86   21.50
   1   0   2  373.46   21.50
   0  -1  -2  359.26   20.30
  -1   1  -2  369.86   20.40
  -1   1  -2  357.66   20.30
   0  -1  -2  386.76   20.30
   0   1   2  330.27   20.40
  -1   2  -2   55.89    3.60
  -1   2  -2   58.09    3.70
   2  -1  -2   61.09    3.50
  -1  -1  -2   58.99    3.60
  -1  -1  -2   49.50    3.60
   1   1   2   61.09    3.60
  -2   1   2   60.79    3.50
  -2  -1  -2  196.88   11.00
  -2  -1  -2  188.18   11.10
  -1   3  -2  196.88   11.20
   3  -2  -2  196.98   11.00
   2   1   2  193.18   11.10
   2   1   2  187.98   11.00
   1  -3   2  198.98   11.20
  -3   2   2  198.08   11.00
  -2   0  -2   57.49    3.60
  -2   0  -2   55.89    3.50
   2  -2  -2   56.69    3.70
   0   2  -2   59.49    3.70
   2  -2  -2   59.69    3.50
   2  -2  -2   60.49    3.60
   2   0   2   58.89    3.70
   0  -2   2   59.49    3.60
  -2   1  -2   55.59    3.60
   1  -2  -2   57.09    3.50
   1  -2  -2   58.79    3.50
   1   1  -2   54.79    3.50
  -1   2   2   57.69    3.50
  -1  -1   2   58.09    3.50
   2  -1   2   57.39    3.60
   0  -2  -2   62.49    3.60
   2   0  -2   52.49    3.70
  -2   2  -2   59.19    3.80
   0  -2  -2   62.09    3.60
   0   2   2   61.19    3.60
  -2   0   2   61.39    3.60
   2  -2   2   56.49    3.80
   0   2   2   58.89    3.70
   3  -1  -2   91.99    5.30
  -2   3  -2   89.09    5.50
  -1  -2  -2   86.99    5.40
  -1  -2  -2   91.39    5.40
  -2   3  -2   87.99    5.50
  -3   1   2   94.09    5.30
   1   2   2   96.19    5.40
   1   2   2   93.59    5.40
   4  -2  -2    6.40    1.00
  -2  -2  -2    8.50    1.10
  -2   4  -2    6.70    1.10
   2   2   2    7.90    1.30
   2   2   2    8.30    1.10
  -4   2   2    6.80    0.90
  -3  -2  -2   18.00    1.70
   5  -3  -2   19.00    1.40
  -2   5  -2   20.70    1.90
  -5   3   2   19.20    1.50
   3   2   2   21.50    1.60
   3   2   2   18.90    1.80
   2  -5   2   19.80    1.90
  -1   4  -2   20.20    1.80
   4  -3  -2   19.00    1.80
  -3  -1  -2   19.90    1.50
  -3  -1  -2   21.80    1.70
   4  -3  -2   18.20    1.40
   3   1   2   18.90    1.60
  -4   3   2   19.70    1.50
   1  -4   2   19.50    1.80
   3   1   2   20.90    1.80
   3  -3  -2  155.78    9.10
  -3   0  -2  156.08    9.10
   3  -3  -2  158.88    8.90
   0   3  -2  162.18    9.10
  -3   0  -2  152.88    8.90
   3  -3  -2  164.08    9.00
   0  -3   2  158.38    9.10
   3   0   2  150.38    9.10
  -3   1  -2   91.09    5.40
   2  -3  -2   91.19    5.40
   1   2  -2   93.69    5.40
  -3   1  -2   85.09    5.20
   2  -3  -2   91.69    5.30
   3  -1   2   85.09    5.40
  -1  -2   2   93.69    5.30
   1  -3  -2  198.88   11.10
   2   1  -2  191.88   11.10
  -3   2  -2  195.68   11.20
   1  -3  -2  191.78   11.00
  -2  -1   2  193.58   11.10
   3  -2   2  188.28   11.20
  -1   3   2  196.58   11.10
  -1   3   2  201.58   11.10
  -3   3  -2  158.88    9.40
   3   0  -2  161.98    9.30
   0  -3  -2  156.68    9.20
   0  -3  -2  165.28    9.30
  -3   0   2  163.38    9.30
   0   3   2  170.58    9.30
   0   3   2  155.48    9.30
   3  -3   2  166.88    9.50
  -1  -3  -2   84.49    5.10
  -3   4  -2   83.59    5.30
  -3   4  -2   88.09    5.30
  -1  -3  -2   90.39    5.10
  -4   1   2   88.59    5.10
   1   3   2   87.09    5.20
   1   3   2   88.79    5.20
  -3   5  -2    4.90    1.20
  -2  -3  -2    5.60    1.10
  -2  -3  -2    4.80    0.90
   5  -2  -2    4.70    0.80
  -3   5  -2    4.30    1.10
   2   3   2    5.00    1.00
   2   3   2    6.20    1.20
  -5   2   2    5.20    0.80
  -3  -3  -2    3.30    0.80
   6  -3  -2    3.30    0.70
  -3  -3  -2    2.00    0.90
  -3   6  -2    2.10    1.10
   3   3   2    2.20    0.70
  -6   3   2    2.00    0.80
   3  -6   2    3.40    1.20
   3   3   2    1.80    1.10
   7  -4  -2   21.40    1.50
  -4  -3  -2   16.10    1.90
  -3   7  -2   20.40    2.20
  -4  -3  -2   19.40    1.70
   4   3   2   15.70    2.10
   3  -7   2   16.30    2.10
   4   3   2   20.10    1.70
  -7   4   2   19.50    1.60
   6  -4  -2    5.40    1.20
   6  -4  -2    6.60    0.90
  -4  -2  -2    7.30    1.10
  -2   6  -2    4.80    1.20
   4   2   2    6.10    1.20
   2  -6   2    6.40    1.30
  -6   4   2    5.30    1.00
   4   2   2    5.10    1.20
  -1   5  -2   -0.20    0.90
  -4  -1  -2    0.50    0.80
   5  -4  -2   -0.40    0.80
  -4  -1  -2    0.70    0.60
   4   1   2   -0.30    0.90
   4   1   2    1.70    0.60
   1  -5   2   -0.20    0.90
  -4   0  -2    0.70    0.50
   0   4  -2    1.60    0.90
  -4   0  -2    0.40    0.80
   4  -4  -2    0.20    0.80
   4   0   2    1.30    0.50
   0  -4   2    1.70    0.80
   4   0   2    1.30    1.00
   3  -4  -2   87.79    5.20
  -4   1  -2   83.69    5.00
   3  -4  -2   80.79    5.00
  -4   1  -2   88.39    5.20
   1   3  -2   87.69    5.20
  -3   4   2   88.19    5.20
  -1  -3   2   88.39    5.20
   4  -1   2   84.79    5.20
   2  -4  -2    5.90    0.90
   2   2  -2    8.10    1.20
   2  -4  -2    8.00    1.20
  -4   2  -2    6.30    1.10
  -2  -2   2    6.80    1.10
  -2   4   2    6.50    1.30
  -2   4   2    5.50    1.10
   4  -2   2    6.50    1.20
  -4   3  -2   18.70    2.00
   1  -4  -2   19.70    1.50
   1  -4  -2   21.50    1.70
   3   1  -2   21.20    1.70
  -1   4   2   20.40    1.60
  -3  -1   2   20.50    1.60
  -1   4   2   21.20    1.70
   4  -3   2   19.20    2.00
   4   0  -2    2.00    0.70
  -4   4  -2    0.80    0.90
   0  -4  -2    1.80    0.70
   0  -4  -2    2.10    0.70
   0   4   2    0.90    0.90
   0   4   2    1.00    0.70
  -4   0   2    0.90    0.70
   4  -4   2    0.50    1.00
  -1  -4  -2  111.69    6.50
  -4   5  -2  116.29    6.70
   5  -1  -2  109.99    6.40
  -1  -4  -2  111.89    6.50
  -4   5  -2  105.79    6.60
   1   4   2  115.59    6.50
  -5   1   2  109.59    6.40
   1   4   2  106.69    6.50
  -2  -4  -2   16.20    1.70
  -4   6  -2   15.30    2.00
  -2  -4  -2   17.50    1.60
  -4   6  -2   15.60    2.00
   6  -2  -2   18.30    1.50
  -6   2   2   14.60    1.50
   2   4   2   13.80    1.80
   2   4   2   15.50    1.60
  -4   7  -2   24.00    2.40
  -3  -4  -2   25.70    1.90
  -4   7  -2   23.30    2.40
   7  -3  -2   25.60    2.30
  -3  -4  -2   22.10    2.10
   3   4   2   25.20    2.00
  -7   3   2   23.60    1.90
   3   4   2   19.50    2.20
  -4  -4  -2   52.79    3.50
  -4   8  -2   52.99    3.70
  -4  -4  -2   50.79    3.30
   4   4   2   54.89    3.40
  -8   4   2   51.19    3.30
   4   4   2   51.39    3.60
  -4   9  -2    2.80    1.20
  -5  -4  -2    4.40    1.30
   9  -5  -2    2.30    1.30
  -5  -4  -2    4.10    1.00
   9  -5  -2    3.80    1.10
   4  -9   2    2.10    1.10
   5   4   2    3.80    1.30
   5   4   2    3.30    1.00
  -9   5   2    4.70    0.90
  -5  -3  -2   12.10    1.40
  -5  -3  -2    9.50    1.70
   8  -5  -2    7.20    1.50
  -3   8  -2   10.60    1.90
   5   3   2   11.20    1.40
   3  -8   2    5.80    1.40
   5   3   2    5.80    1.40
  -8   5   2    9.80    1.20
  -5  -2  -2    4.60    1.20
  -5  -2  -2    6.30    1.40
   7  -5  -2    3.30    1.20
  -2   7  -2    4.50    1.30
   5   2   2    4.80    0.90
   2  -7   2    4.50    1.20
   5   2   2    3.80    1.30
   6  -5  -2    2.10    1.00
  -1   6  -2    4.60    1.20
  -5  -1  -2    1.90    1.00
  -5  -1  -2    3.90    0.70
   5   1   2    3.90    0.70
   1  -6   2    3.70    1.20
   5   1   2    2.60    1.10
   0   5  -2    1.70    1.00
  -5   0  -2    0.60    0.90
  -5   0  -2    2.40    0.60
   5  -5  -2    0.80    0.80
   5   0   2    1.50    0.60
   0  -5   2    1.60    1.00
   5   0   2   -0.10    1.00
   1   4  -2  111.79    6.50
   4  -5  -2  107.09    6.50
  -5   1  -2  110.59    6.50
  -1  -4   2  110.19    6.50
   5  -1   2  102.59    6.50
  -4   5   2  113.59    6.50
   2   3  -2    6.10    1.00
   3  -5  -2    4.50    0.90
  -5   2  -2    4.80    1.10
   5  -2   2    4.70    1.20
  -2  -3   2    6.30    1.20
  -3   5   2    3.20    1.00
   2  -5  -2   19.90    1.50
   3   2  -2   22.40    1.80
   2  -5  -2   21.50    1.90
  -5   3  -2   18.40    2.00
   5  -3   2   19.80    2.10
  -3  -2   2   22.10    1.70
  -2   5   2   17.30    1.60
  -2   5   2   20.90    1.80
  -5   4  -2    0.10    1.00
   1  -5  -2    0.50    0.70
   1  -5  -2    1.20    0.80
   4   1  -2    1.60    0.80
  -4  -1   2    1.20    0.80
   5  -4   2    1.30    1.10
  -1   5   2    0.20    0.70
  -1   5   2    1.20    0.80
   5   0  -2    3.90    0.90
   0  -5  -2    1.00    0.80
   0  -5  -2    1.80    0.90
  -5   5  -2    1.80    1.10
   0   5   2    1.10    0.90
   0   5   2    1.70    0.80
   5  -5   2    1.20    1.20
  -5   0   2    2.20    0.90
   6  -1  -2   10.30    1.40
  -5   6  -2   10.40    1.70
  -1  -5  -2   12.70    1.50
  -5   6  -2   10.00    1.50
  -1  -5  -2    8.80    1.50
   1   5   2    9.90    1.50
  -6   1   2    9.80    1.40
   1   5   2   10.90    1.30
   7  -2  -2    1.30    0.90
  -5   7  -2   -0.30    1.10
  -2  -5  -2    2.30    0.90
  -5   7  -2    0.70    1.20
  -2  -5  -2    1.10    1.00
  -7   2   2    1.80    0.90
   2   5   2    1.90    0.90
   2   5   2    1.50    1.10
   8  -3  -2    1.50    0.90
  -5   8  -2    2.30    1.40
  -3  -5  -2    4.10    1.00
  -3  -5  -2    2.90    1.20
  -8   3   2    2.40    0.90
   3   5   2    3.50    1.30
   3   5   2    4.10    1.00
  -5   9  -2    4.40    1.30
  -4  -5  -2    5.60    1.40
  -4  -5  -2    9.40    1.50
   9  -4  -2    7.60    1.30
   4   5   2    7.60    1.50
   4   5   2    7.50    1.40
  10  -5  -2   23.10    1.90
  -5  -5  -2   24.70    2.10
  -5  10  -2   21.90    2.30
   5   5   2   26.70    2.40
 -10   5   2   23.10    1.80
   5 -10   2   23.10    2.10
   5   5   2   23.40    2.00
  -6  -5  -2    1.80    1.10
  -5  11  -2    1.80    1.20
  11  -6  -2   -2.00    1.10
  11  -6  -2    1.50    1.00
   6   5   2    1.30    1.20
   6   5   2    1.00    1.00
 -11   6   2    1.70    0.90
   5 -11   2    0.80    1.00
  10  -6  -2   10.10    2.00
  -6  -4  -2   13.20    1.70
  -4  10  -2   13.90    2.00
  10  -6  -2   13.10    1.60
   6   4   2   12.80    1.60
 -10   6   2   14.40    1.40
   4 -10   2   13.20    1.70
   6   4   2   13.80    2.00
  -6  -3  -2   -0.70    1.10
  -3   9  -2   -0.10    1.20
   9  -6  -2    1.10    1.10
   6   3   2    1.30    0.80
   3  -9   2   -0.20    1.00
   6   3   2    1.20    1.30
   8  -6  -2   13.50    2.10
  -6  -2  -2   15.60    2.10
  -2   8  -2   16.20    2.00
   2  -8   2   13.60    1.90
   6   2   2   11.10    2.10
   6   2   2   17.10    1.50
  -6  -1  -2    0.20    1.20
   7  -6  -2    0.50    1.00
  -6  -1  -2    1.20    0.70
  -1   7  -2   -0.40    1.10
   6   1   2   -1.40    1.10
   6   1   2    0.70    0.70
   6  -6  -2   12.80    1.90
  -6   0  -2   11.80    1.80
   0   6  -2   13.90    1.80
   0  -6   2   12.80    1.80
   6   0   2   14.10    1.20
   6   0   2   11.60    1.90
   5  -6  -2   10.10    1.60
   1   5  -2    9.90    1.60
  -6   1  -2    8.40    1.70
  -5   6   2    8.40    1.30
   6  -1   2    9.10    1.40
  -1  -5   2   10.30    1.60
  -6   2  -2   15.40    1.90
   4  -6  -2   16.30    1.80
   2   4  -2   17.70    1.80
  -2  -4   2   15.20    1.80
   6  -2   2   15.00    2.10
  -4   6   2   19.00    1.90
  -6   3  -2    0.30    1.10
   3   3  -2    1.60    0.90
   3  -6  -2    2.50    0.90
   6  -3   2    1.80    1.10
  -3   6   2    1.80    0.90
  -3  -3   2    2.80    0.90
   2  -6  -2    6.70    0.90
  -6   4  -2    4.90    1.30
   2  -6  -2    6.60    1.10
   4   2  -2    7.40    1.10
  -4  -2   2    6.40    1.10
  -2   6   2    4.40    0.90
  -2   6   2    6.60    1.10
   6  -4   2    5.30    1.30
   5   1  -2    3.80    1.00
  -6   5  -2    2.10    1.20
   1  -6  -2    3.00    0.90
   1  -6  -2    3.50    1.00
   6  -5   2    3.30    1.30
  -1   6   2    2.10    0.90
  -5  -1   2    2.20    0.90
  -1   6   2    1.90    0.90
   0  -6  -2   15.50    1.70
   0  -6  -2   12.30    1.50
   6   0  -2   15.30    1.60
  -6   6  -2   13.40    2.00
   0   6   2   10.10    1.60
   0   6   2   13.60    1.60
  -6   0   2   13.70    1.60
   6  -6   2   11.60    2.20
  -1  -6  -2   28.50    2.20
  -6   7  -2   24.20    2.40
  -6   7  -2   22.10    2.40
  -1  -6  -2   26.30    2.10
   7  -1  -2   27.10    2.10
   1   6   2   27.70    2.20
  -7   1   2   27.40    2.10
   1   6   2   23.00    2.20
  -2  -6  -2   27.50    2.30
  -6   8  -2   25.70    2.60
  -2  -6  -2   28.10    2.30
  -6   8  -2   23.80    2.80
   8  -2  -2   28.10    2.20
   2   6   2   30.30    2.30
  -8   2   2   29.50    2.20
   2   6   2   27.10    2.40
  -3  -6  -2   47.70    3.20
  -6   9  -2   43.40    3.40
  -3  -6  -2   45.30    3.10
   9  -3  -2   46.20    3.00
  -6   9  -2   42.90    3.30
  -9   3   2   48.40    3.00
   3   6   2   45.30    3.30
   3   6   2   49.20    3.20
  10  -4  -2   50.09    3.20
  -4  -6  -2   48.30    3.30
  -4  -6  -2   49.70    3.40
  -6  10  -2   46.60    3.60
  -6  10  -2   50.99    3.60
 -10   4   2   52.79    3.20
   4   6   2   54.29    3.50
   4   6   2   50.19    3.30
  -5  -6  -2   28.80    2.40
  -6  11  -2   29.50    2.60
  11  -5  -2   29.00    2.20
 -11   5   2   29.90    2.20
   5   6   2   27.00    2.40
   5   6   2   27.70    2.50
  -6  -6  -2   37.10    2.80
  12  -6  -2   36.60    2.60
  -6  12  -2   37.60    2.90
  12  -6  -2   31.10    3.10
   6 -12   2   37.90    2.90
 -12   6   2   36.40    2.60
   6   6   2   36.40    2.90
   6   6   2   39.30    3.10
  -6  13  -2    5.00    1.30
  13  -7  -2    0.70    1.30
  -7  -6  -2    9.80    1.70
  13  -7  -2    5.90    1.20
   7   6   2    3.70    1.50
 -13   7   2    5.60    1.20
   7   6   2    3.70    1.20
   6 -13   2    5.50    1.40
  12  -7  -2   63.29    3.80
  -5  12  -2   63.09    4.20
  12  -7  -2   54.59    4.30
  -7  -5  -2   59.39    4.00
   7   5   2   59.99    4.00
 -12   7   2   65.69    3.80
   5 -12   2   64.79    4.20
   7   5   2   61.39    4.20
  -7  -4  -2   19.70    1.90
  11  -7  -2   17.20    2.30
  -4  11  -2   22.70    2.10
   4 -11   2   18.30    1.90
   7   4   2   22.20    1.90
   7   4   2   22.10    2.30
  -3  10  -2   15.40    2.00
  -7  -3  -2   18.00    1.90
  10  -7  -2   15.60    2.10
   7   3   2   16.30    2.10
   7   3   2   19.20    1.70
   3 -10   2   16.70    1.80
   9  -7  -2   12.80    1.90
  -7  -2  -2   15.00    1.80
  -2   9  -2   14.00    1.90
   2  -9   2   13.80    1.70
   7   2   2   11.70    2.00
   7   2   2   13.80    1.50
  -7  -1  -2   38.90    3.10
  -1   8  -2   45.40    3.20
   8  -7  -2   43.40    3.20
   1  -8   2   42.40    3.10
   7   1   2   45.00    2.70
   7   1   2   41.70    3.30
  -7   0  -2    3.70    1.30
   0   7  -2    3.90    1.20
   7  -7  -2    4.30    1.20
   7   0   2    2.80    1.40
  -7   7   2    2.90    1.30
   0  -7   2    3.50    1.20
   1   6  -2   25.90    2.20
   6  -7  -2   26.10    2.30
   7  -1   2   20.40    2.30
   5  -7  -2    1.90    1.00
  -7   2  -2    1.30    1.20
   2   5  -2    1.40    1.10
  -5   7   2    2.00    1.10
  -2  -5   2    1.40    1.10
   7  -2   2    2.10    1.20
   3   4  -2   25.50    2.10
  -7   3  -2   23.30    2.40
   4  -7  -2   26.80    2.30
   7  -3   2   21.90    2.40
  -3  -4   2   23.20    2.10
  -4   7   2   25.60    2.30
   4   3  -2   18.40    1.90
   3  -7  -2   21.20    2.10
  -7   4  -2   17.40    2.10
   7  -4   2   15.30    2.20
  -3   7   2   21.20    2.10
  -4  -3   2   19.50    1.80
   2  -7  -2    4.20    0.90
   2  -7  -2    4.00    1.10
   5   2  -2    5.90    1.10
  -7   5  -2    3.70    1.30
  -5  -2   2    8.30    1.40
   7  -5   2    5.10    1.50
  -2   7   2    5.10    1.10
  -2   7   2    4.00    0.90
   6   1  -2    1.10    1.00
  -7   6  -2   -0.10    1.30
   1  -7  -2    1.10    1.00
   1  -7  -2   -0.40    0.90
  -1   7   2    0.60    0.90
  -6  -1   2   -0.30    1.00
  -1   7   2   -1.10    1.20
   7  -6   2    0.50    1.30
   0  -7  -2    5.20    1.10
   7   0  -2    3.60    1.10
   0  -7  -2    3.50    1.10
   0   7   2    5.00    1.10
   7  -7   2    3.30    1.50
  -7   0   2    5.70    1.10
   0   7   2    3.80    1.20
  -7   8  -2    5.80    1.40
  -7   8  -2    3.40    1.30
  -1  -7  -2    6.60    1.20
   8  -1  -2    9.20    1.50
  -1  -7  -2    7.70    1.50
  -8   1   2    8.90    1.20
   1   7   2    9.90    1.40
   1   7   2    6.20    1.20
  -2  -7  -2    1.10    1.00
  -2  -7  -2    2.70    1.10
  -7   9  -2    0.60    1.20
   9  -2  -2    0.30    1.00
  -7   9  -2    0.70    1.10
  -9   2   2    0.50    0.90
   2   7   2    2.90    1.80
   2   7   2    0.10    1.10
  10  -3  -2    8.60    1.40
  -7  10  -2    6.60    1.50
  -7  10  -2    8.50    1.40
  -3  -7  -2    9.00    1.50
   3   7   2    8.20    1.50
 -10   3   2    7.80    1.40
   3   7   2    8.80    1.50
  -7  11  -2   27.40    2.50
  -4  -7  -2   29.40    2.30
  11  -4  -2   28.80    2.20
  -7  11  -2   24.50    2.50
   4   7   2   26.70    2.50
 -11   4   2   26.90    2.20
   4   7   2   29.70    2.30
  -7  12  -2   30.70    2.70
  12  -5  -2   33.20    2.40
  -5  -7  -2   35.60    2.60
  -7  12  -2   31.60    2.80
 -12   5   2   31.70    2.50
   5   7   2   31.20    2.50
   5   7   2   32.90    2.70
  -7  13  -2   28.00    2.60
  -6  -7  -2   30.10    2.40
  13  -6  -2   27.50    2.30
   6   7   2   26.20    2.60
 -13   6   2   31.90    2.30
   6   7   2   22.30    2.40
  14  -7  -2    5.50    1.30
  -7  -7  -2    5.80    1.40
  -7  14  -2    6.80    1.20
  14  -7  -2    2.60    1.50
  -7  14  -2    6.60    1.50
   7 -14   2    6.40    1.40
   7   7   2    5.50    1.60
   7   7   2    4.70    1.20
 -14   7   2    3.90    1.30
  15  -8  -2    1.70    1.40
  15  -8  -2    1.00    1.20
  -7  15  -2   -2.50    1.10
  -7  15  -2   -0.90    1.30
  -8  -7  -2    0.50    1.30
   7 -15   2   -1.70    1.30
 -15   8   2    1.40    1.40
   8   7   2   -1.00    1.40
   8   7   2    0.00    1.40
  14  -8  -2   16.70    1.70
  -8  -6  -2   15.80    1.90
  14  -8  -2   12.50    2.40
  -6  14  -2   14.90    2.10
 -14   8   2   16.00    1.90
   6 -14   2   15.80    2.10
   8   6   2   15.00    2.20
   8   6   2   13.70    2.10
  -5  13  -2  121.69    7.00
  13  -8  -2  114.49    6.70
  -8  -5  -2  107.19    6.90
  13  -8  -2  117.69    7.10
   5 -13   2  127.09    7.10
   8   5   2  114.09    7.00
 -13   8   2  113.99    6.70
   8   5   2   99.39    7.50
  12  -8  -2   -0.90    1.20
  -8  -4  -2    2.60    1.10
  -4  12  -2    4.40    1.20
   4 -12   2    1.60    1.20
   8   4   2    1.60    1.00
   8   4   2    2.70    1.30
  -3  11  -2  139.99    8.10
  11  -8  -2  133.89    8.10
  -8  -3  -2  131.49    8.00
   8   3   2  133.69    8.10
   8   3   2  138.59    7.90
   3 -11   2  133.99    8.00
  10  -8  -2   29.70    2.70
  -8  -2  -2   31.10    2.50
  -2  10  -2   31.80    2.60
   8   2   2   33.80    2.70
   2 -10   2   29.50    2.40
   8   2   2   35.20    2.30
  -1   9  -2   10.50    1.80
   9  -8  -2   10.90    1.80
  -8  -1  -2    9.90    1.80
   8   1   2    9.70    1.60
   1  -9   2    7.80    1.50
   8   1   2   10.20    1.30
   0   8  -2   17.70    2.00
   8  -8  -2   18.60    2.10
  -8   0  -2   16.20    2.00
   0  -8   2   15.00    1.90
   8   0   2   16.30    2.10
  -8   8   2   15.50    2.00
   7  -8  -2    5.80    1.20
  -8   1  -2    7.40    1.40
   1   7  -2    8.50    1.30
   8  -1   2    6.60    1.50
  -1  -7   2    6.50    1.30
  -7   8   2    6.80    1.40
  -8   2  -2   22.70    2.40
   6  -8  -2   30.00    2.40
   2   6  -2   28.00    2.30
   8  -2   2   23.40    2.50
  -6   8   2   29.50    2.50
  -2  -6   2   24.40    2.40
  -8   3  -2    2.40    1.30
   3   5  -2    1.10    1.10
   5  -8  -2    2.90    1.10
  -5   8   2    1.60    1.10
   8  -3   2    2.80    1.30
  -3  -5   2    1.90    1.10
   4  -8  -2   53.99    3.70
  -8   4  -2   52.69    3.80
   4   4  -2   58.19    3.60
   8  -4   2   48.50    3.80
  -4   8   2   54.29    3.70
   5   3  -2    9.80    1.70
  -8   5  -2   10.00    1.90
   3  -8  -2   10.50    1.80
  -3   8   2    9.30    1.80
   8  -5   2    5.20    1.50
  -5  -3   2   10.90    1.60
  -8   6  -2   11.90    2.00
   6   2  -2   16.20    1.80
   2  -8  -2   15.40    1.90
   2  -8  -2   14.70    1.50
  -2   8   2   16.40    1.90
   8  -6   2   12.30    2.30
  -6  -2   2   14.80    1.80
  -8   7  -2   43.50    3.30
   1  -8  -2   45.70    2.90
   7   1  -2   45.10    3.00
   1  -8  -2   45.20    3.10
  -1   8   2   44.10    3.00
  -7  -1   2   44.70    3.10
   8  -7   2   42.40    3.50
  -1   8   2   44.40    3.10
   8   0  -2   19.80    1.80
   0  -8  -2   18.10    1.90
  -8   8  -2   15.70    2.10
   0  -8  -2   18.00    1.70
   0   8   2   18.00    1.90
   0   8   2   15.60    1.90
   8  -8   2   14.70    2.40
  -8   0   2   19.60    1.80
  -8   9  -2   -0.20    1.10
  -8   9  -2    0.50    0.80
  -1  -8  -2    1.20    1.00
   9  -1  -2    0.20    1.00
  -1  -8  -2   -0.40    1.00
  -8   9  -2    0.70    1.10
   1   8   2   -0.30    0.90
   1   8   2    0.00    1.10
  -9   1   2    1.50    1.00
  -8  10  -2   -0.40    1.10
  -8  10  -2    0.00    1.10
  -2  -8  -2    1.90    1.00
  -8  10  -2    0.20    0.80
  10  -2  -2    0.10    1.00
  -2  -8  -2    1.50    1.00
 -10   2   2   -0.40    0.90
   2   8   2    0.00    1.00
   2   8   2   -0.40    1.20
  11  -3  -2    2.10    1.10
  -3  -8  -2    1.60    1.10
  -8  11  -2   -1.20    1.00
  -8  11  -2   -0.90    1.20
  -8  11  -2   -1.00    0.90
  -3  -8  -2    1.20    1.00
 -11   3   2    0.90    1.00
   3   8   2    0.00    1.00
   3   8   2    0.10    1.10
  12  -4  -2   98.59    6.00
  -8  12  -2   96.29    6.20
  -8  12  -2  102.89    6.00
  -4  -8  -2   96.39    6.00
  -8  12  -2  100.49    6.20
   4   8   2  102.79    6.20
 -12   4   2  103.69    6.00
   4   8   2   97.99    6.10
  -5  -8  -2   12.20    1.80
  -8  13  -2   11.90    2.10
  -8  13  -2   11.70    2.00
  13  -5  -2   16.70    1.80
  -8  13  -2   10.90    1.70
   5   8   2   14.90    2.00
   5   8   2   12.50    1.90
 -13   5   2   13.60    1.80
  -8  14  -2   75.89    4.80
  -8  14  -2   76.79    4.90
  -8  14  -2   72.49    5.00
  14  -6  -2   74.29    4.70
  -6  -8  -2   72.39    4.80
   6   8   2   78.59    5.00
 -14   6   2   77.29    4.80
   6   8   2   73.59    4.90
  -8  15  -2   -2.10    1.30
  -7  -8  -2    0.00    1.20
  -8  15  -2    0.10    1.30
  15  -7  -2    0.80    1.40
  15  -7  -2   -0.30    1.30
 -15   7   2    1.90    1.50
   7   8   2   -0.20    1.40
   7   8   2   -1.30    1.30
  16  -8  -2    1.20    1.40
  -8  16  -2   -1.20    1.40
  16  -8  -2   -1.30    1.50
  -8  16  -2   -0.80    1.40
  -8  -8  -2    1.70    1.30
   8   8   2    0.30    1.60
   8   8   2    0.90    1.50
   8 -16   2    2.50    1.50
  -8  17  -2    0.90    1.50
  -8  17  -2   -0.60    1.60
  -9  -8  -2   -0.40    1.50
  17  -9  -2   -0.50    1.70
  17  -9  -2    2.70    1.50
   9   8   2    1.10    1.60
   9   8   2   -2.20    1.70
 -17   9   2    3.00    2.20
   8 -17   2   -0.20    1.80
  -9  -7  -2   20.50    2.40
  16  -9  -2   21.70    2.90
  -7  16  -2   20.80    2.40
  -7  16  -2   16.50    2.40
  16  -9  -2   22.90    2.30
   9   7   2   20.90    2.50
   9   7   2   18.70    2.70
 -16   9   2   22.00    2.40
   7 -16   2   24.70    2.50
  15  -9  -2   -0.80    1.20
  15  -9  -2   -0.60    1.30
  -6  15  -2    0.30    1.30
  -9  -6  -2    1.10    1.20
   9   6   2   -2.60    1.30
   6 -15   2   -1.30    1.20
   9   6   2   -1.80    1.30
 -15   9   2   -0.60    1.30
  14  -9  -2   10.90    1.60
  14  -9  -2   10.80    2.20
  -5  14  -2   13.20    2.00
  -9  -5  -2   15.20    1.80
   5 -14   2   13.30    2.00
   9   5   2   11.90    2.00
   9   5   2   14.00    2.10
  -4  13  -2   15.50    2.00
  13  -9  -2   11.90    2.20
  -9  -4  -2   12.50    1.70
   4 -13   2   14.00    2.00
   9   4   2   13.40    2.10
   9   4   2   15.00    1.90
  12  -9  -2   29.20    2.70
  -9  -3  -2   27.20    2.40
  -3  12  -2   30.80    2.60
   3 -12   2   31.60    2.40
   9   3   2   29.50    2.40
   9   3   2   27.70    2.70
  -2  11  -2   39.60    2.90
  -9  -2  -2   37.30    2.80
  11  -9  -2   36.00    2.90
   2 -11   2   35.90    2.70
   9   2   2   37.30    3.00
   9   2   2   38.70    2.60
  -1  10  -2    8.10    1.40
  10  -9  -2    9.00    1.80
  -9  -1  -2   10.30    1.80
   9   1   2    9.50    1.30
   1 -10   2   10.20    1.50
   9  -9  -2   30.10    2.50
  -9   0  -2   24.60    2.40
   0   9  -2   27.80    2.40
  -9   9   2   30.70    2.50
   9   0   2   25.40    2.50
   0  -9   2   28.80    2.30
   8  -9  -2    0.40    1.00
   1   8  -2    2.70    1.10
  -9   1  -2    2.70    1.20
  -8   9   2   -0.10    1.00
   9  -1   2   -0.50    1.20
  -1  -8   2    0.30    1.10
   2   7  -2    0.20    1.10
  -9   2  -2    1.10    1.30
   7  -9  -2    1.30    1.10
   9  -2   2    0.20    1.20
  -2  -7   2    0.90    1.10
  -7   9   2    0.40    1.00
  -9   3  -2   41.20    3.30
   6  -9  -2   44.80    3.20
   3   6  -2   46.10    3.10
  -6   9   2   46.70    3.30
  -3  -6   2   47.00    3.20
   9  -3   2   39.70    3.30
   4   5  -2    3.80    1.20
  -9   4  -2    5.10    1.30
   5  -9  -2    4.00    1.20
   9  -4   2    4.80    1.40
  -4  -5   2    3.60    1.00
  -5   9   2    5.70    1.30
  -9   5  -2    2.50    1.20
   5   4  -2    3.60    1.20
   4  -9  -2    3.70    1.20
  -5  -4   2    2.70    1.10
  -4   9   2    4.20    1.10
   9  -5   2    2.40    1.40
   6   3  -2    0.50    1.10
   3  -9  -2    3.50    1.10
  -9   6  -2    0.20    1.00
  -6  -3   2    1.20    1.00
   9  -6   2   -1.10    1.20
  -3   9   2    3.80    1.10
   7   2  -2   14.90    1.70
   2  -9  -2   12.60    1.40
  -9   7  -2   10.60    1.90
   2  -9  -2   15.50    1.80
  -2   9   2   16.00    1.80
   9  -7   2   14.80    2.30
  -7  -2   2   12.40    1.70
  -2   9   2   10.40    1.60
   8   1  -2    9.90    1.50
   1  -9  -2   11.20    1.70
  -9   8  -2    9.10    1.50
   1  -9  -2    9.00    1.30
  -8  -1   2    9.20    1.60
  -1   9   2    8.60    1.60
  -1   9   2   10.90    1.50
   9  -8   2   10.70    2.00
  -9   9  -2   28.30    1.90
   0  -9  -2   26.60    2.10
  -9   9  -2   28.10    2.60
   0  -9  -2   27.80    2.30
   9   0  -2   27.20    2.20
   0   9   2   28.10    2.30
   0   9   2   26.60    2.30
   9  -9   2   27.20    2.80
  -9   0   2   26.60    2.30
  -1  -9  -2   31.80    2.50
  -1  -9  -2   34.10    2.40
  -9  10  -2   34.70    2.80
  -9  10  -2   29.80    2.60
  10  -1  -2   35.10    2.50
  -9  10  -2   31.20    2.30
   1   9   2   34.10    2.60
 -10   1   2   30.50    2.50
   1   9   2   35.20    2.60
  -2  -9  -2   34.70    2.50
  -2  -9  -2   33.30    2.60
  -9  11  -2   33.70    2.40
  -9  11  -2   33.40    2.90
  11  -2  -2   35.50    2.60
  -9  11  -2   32.80    2.80
   2   9   2   38.10    2.70
   2   9   2   36.10    2.70
 -11   2   2   31.40    2.60
  -9  12  -2    1.40    1.30
  -3  -9  -2    2.80    1.00
  -9  12  -2    0.70    1.20
  -9  12  -2    1.80    1.00
  12  -3  -2    3.00    1.10
   3   9   2    3.50    1.30
   3   9   2    0.00    1.10
 -12   3   2    1.20    1.20
  -9  13  -2    6.20    1.40
  13  -4  -2    6.30    1.40
  -4  -9  -2    7.50    1.40
  -9  13  -2    6.80    1.50
   4   9   2    8.50    1.50
   4   9   2    6.20    1.30
 -13   4   2    6.30    1.50
  14  -5  -2    2.20    1.30
  -9  14  -2    2.60    1.30
  -9  14  -2    3.40    1.40
  -5  -9  -2    5.00    1.30
  -9  14  -2    2.50    1.20
   5   9   2    1.10    1.30
   5   9   2    4.00    1.40
 -14   5   2    3.70    1.40
  15  -6  -2    6.20    1.50
  -9  15  -2    5.90    1.60
  -6  -9  -2    6.00    1.50
  -9  15  -2    5.30    1.40
  -9  15  -2    6.20    1.70
   6   9   2    8.40    1.70
 -15   6   2    8.00    1.60
   6   9   2    4.70    1.50
  -9  16  -2   -0.70    1.60
  -9  16  -2   -0.90    1.40
  16  -7  -2   -0.80    1.60
  -7  -9  -2    0.50    1.40
  16  -7  -2    1.30    1.40
  -9  16  -2   -1.80    1.40
 -16   7   2    1.40    1.50
   7   9   2    0.30    1.50
   7   9   2   -2.90    1.50
  -9  17  -2   11.50    2.00
  17  -8  -2   14.40    2.20
  -9  17  -2   13.30    2.30
  17  -8  -2   12.50    2.10
  -8  -9  -2   10.80    1.80
  -9  17  -2   11.60    2.30
   8   9   2   12.50    2.20
   8   9   2   14.60    2.40
 -17   8   2   12.90    2.10
  -9  18  -2   14.10    2.90
  -9  -9  -2   13.90    2.40
  18  -9  -2   16.60    2.40
  18  -9  -2   19.30    3.10
  -9  18  -2   20.00    2.60
 -18   9   2   15.80    2.80
   9   9   2   16.30    2.50
   9   9   2   18.50    2.60
  -9  19  -2   -0.50    2.00
  19 -10  -2   -0.40    1.90
  19 -10  -2    3.00    1.70
 -10  -9  -2    2.10    1.80
  -9  19  -2    1.40    1.80
  10   9   2    6.90    2.00
  10   9   2   -1.30    1.90
 -19  10   2   -0.60    2.10
  -8  18  -2    1.40    1.60
 -10  -8  -2    2.20    1.70
  18 -10  -2    5.00    1.60
  -8  18  -2    1.10    1.70
  18 -10  -2    1.00    1.70
  10   8   2    0.70    1.60
  10   8   2   -0.60    1.90
   8 -18   2    0.80    2.10
 -18  10   2    3.60    1.90
  17 -10  -2   11.80    2.00
  17 -10  -2   14.90    2.10
 -10  -7  -2   12.20    2.20
  -7  17  -2   15.00    2.40
  -7  17  -2    9.40    1.90
 -17  10   2   13.50    2.00
  10   7   2   12.00    2.00
   7 -17   2   13.30    2.50
  10   7   2   12.00    2.10
  16 -10  -2    8.60    1.80
  -6  16  -2   12.30    1.90
  16 -10  -2   10.10    1.80
  -6  16  -2   13.30    2.10
 -10  -6  -2   10.10    1.90
 -16  10   2   10.50    2.00
   6 -16   2   11.50    2.20
  10   6   2    9.20    1.90
  10   6   2   10.00    1.80
 -10  -5  -2   20.60    2.10
  -5  15  -2   22.90    2.30
  15 -10  -2   20.80    2.60
   5 -15   2   22.60    2.30
  10   5   2   20.60    2.40
  10   5   2   19.50    2.50
  -4  14  -2    4.40    1.30
  14 -10  -2    2.30    1.30
 -10  -4  -2    4.00    1.30
   4 -14   2    2.50    1.30
  10   4   2    2.80    1.50
  10   4   2    2.90    1.30
  13 -10  -2   54.69    3.80
 -10  -3  -2   47.10    3.60
  -3  13  -2   56.79    3.80
   3 -13   2   56.79    3.80
  10   3   2   54.29    3.90
  10   3   2   52.99    3.60
 -10  -2  -2    0.40    1.20
  12 -10  -2    1.10    1.10
  -2  12  -2    2.00    1.10
   2 -12   2   -1.30    0.90
  10   2   2    0.30    1.00
  10   2   2    1.60    1.30
 -10  -1  -2   47.90    3.50
  -1  11  -2   51.49    3.50
  11 -10  -2   48.60    3.50
   1 -11   2   49.99    3.30
  10   1   2   49.20    3.20
  10   1   2   47.70    3.60
  10 -10  -2    3.70    1.10
 -10   0  -2    3.60    1.30
   0  10  -2    4.40    1.20
 -10  10   2    2.70    1.10
   0 -10   2    2.90    1.00
  10   0   2    4.90    1.40
 -10   1  -2   33.20    2.80
   9 -10  -2   34.80    2.70
   1   9  -2   37.30    2.70
  -1  -9   2   31.00    2.60
  -9  10   2   33.60    2.70
  10  -1   2   36.50    2.80
 -10   2  -2    0.10    1.20
   8 -10  -2    1.70    1.10
   2   8  -2    0.20    1.00
  10  -2   2   -0.20    1.10
  -8  10   2    1.50    0.90
  -2  -8   2    0.10    1.00
   7 -10  -2    9.70    1.80
   3   7  -2    8.20    1.60
 -10   3  -2    7.70    1.50
  10  -3   2    7.90    1.50
  -3  -7   2    9.60    1.60
  -7  10   2    7.30    1.30
   4   6  -2   51.99    3.40
 -10   4  -2   46.90    3.50
   6 -10  -2   50.39    3.50
  10  -4   2   51.39    3.70
  -6  10   2   51.89    3.50
  -4  -6   2   49.90    3.40
   5 -10  -2   24.10    2.20
   5   5  -2   24.00    2.10
 -10   5  -2   25.40    2.30
  -5  10   2   20.90    2.30
  10  -5   2   23.00    2.50
  -5  -5   2   22.40    2.10
   6   4  -2   13.30    1.70
 -10   6  -2   13.30    1.80
   4 -10  -2   16.00    1.90
  -6  -4   2   15.30    1.60
  -4  10   2   15.10    1.90
  10  -6   2   11.80    2.20
   3 -10  -2   18.60    2.00
   3 -10  -2   16.80    1.50
   7   3  -2   20.10    1.90
 -10   7  -2   16.70    1.90
  10  -7   2   15.40    2.30
  -3  10   2   15.20    1.90
  -7  -3   2   17.30    1.80
 -10   8  -2   33.90    2.70
   2 -10  -2   31.90    2.50
   2 -10  -2   32.00    2.30
   8   2  -2   35.10    2.40
  -2  10   2   32.90    2.40
  -8  -2   2   30.00    2.50
  -2  10   2   29.70    2.50
  10  -8   2   29.40    2.90
   1 -10  -2    6.90    1.20
   1 -10  -2    8.30    1.60
 -10   9  -2    7.80    1.40
   9   1  -2    8.60    1.50
  -9  -1   2    7.60    1.50
  10  -9   2    7.30    1.50
  -1  10   2    6.50    1.10
  -1  10   2    8.20    1.60
   0 -10  -2    3.40    1.10
 -10  10  -2    2.80    1.10
  10   0  -2    4.10    1.10
   0 -10  -2    2.60    1.10
   0  10   2    4.60    1.20
   0  10   2    4.60    1.10
 -10   0   2    3.30    1.10
  -1 -10  -2   13.20    1.80
 -10  11  -2   13.60    1.50
  -1 -10  -2   10.40    2.10
 -10  11  -2   14.20    2.10
  11  -1  -2   11.60    1.70
 -10  11  -2   13.40    1.90
 -11   1   2   13.10    1.70
   1  10   2   15.30    1.90
   1  10   2   11.80    1.80
  12  -2  -2   33.80    2.60
 -10  12  -2   38.70    2.90
 -10  12  -2   36.80    2.50
  -2 -10  -2   32.20    2.50
  -2 -10  -2   32.30    2.60
 -10  12  -2   31.70    2.80
   2  10   2   29.30    2.70
   2  10   2   33.80    2.80
 -12   2   2   32.70    2.60
  13  -3  -2    9.40    1.50
 -10  13  -2   10.40    1.70
  -3 -10  -2   10.00    1.60
 -10  13  -2   10.70    1.60
 -10  13  -2    9.00    1.70
   3  10   2    8.90    1.50
 -13   3   2   10.60    1.60
   3  10   2   10.00    1.70
 -10  14  -2   35.10    2.90
  -4 -10  -2   30.40    2.70
 -10  14  -2   37.40    2.80
 -10  14  -2   32.90    3.00
  14  -4  -2   34.70    2.80
 -14   4   2   33.70    2.80
   4  10   2   35.80    2.90
   4  10   2   32.90    2.90
 -10  15  -2    0.60    1.40
 -10  15  -2    3.50    1.50
  -5 -10  -2    1.40    1.40
 -10  15  -2    1.20    1.40
  15  -5  -2    1.30    1.40
   5  10   2   -1.50    1.40
   5  10   2    2.30    1.40
 -15   5   2    2.80    1.60
  16  -6  -2   10.60    1.80
 -10  16  -2    6.80    1.80
  -6 -10  -2    9.30    1.70
 -10  16  -2   10.80    1.90
 -10  16  -2   10.30    1.80
 -16   6   2   12.90    2.30
   6  10   2   10.90    1.90
   6  10   2    6.40    1.80
 -10  17  -2   12.40    2.30
  -7 -10  -2   10.80    2.10
 -10  17  -2   14.10    2.60
  17  -7  -2   12.30    2.20
 -10  17  -2   11.20    2.00
  17  -7  -2   13.20    2.20
   7  10   2   13.60    2.40
 -17   7   2   13.80    2.20
   7  10   2    9.60    2.10
  18  -8  -2   -3.90    1.80
 -10  18  -2    0.90    2.00
 -10  18  -2   -1.10    1.80
  -8 -10  -2    1.30    1.70
 -10  18  -2    0.50    1.60
  18  -8  -2    0.10    1.70
   8  10   2    2.20    1.80
 -18   8   2   -1.00    2.00
   8  10   2   -0.70    2.00
  19  -9  -2    4.10    1.80
 -10  19  -2    0.10    1.70
  19  -9  -2    0.70    1.90
  -9 -10  -2   -0.20    1.70
 -10  19  -2    0.20    2.10
 -10  19  -2    1.70    2.40
 -19   9   2    2.10    2.20
   9  10   2    0.00    2.10
   9  10   2    4.10    1.80
 -10  20  -2    4.60    2.00
 -10  20  -2    3.90    2.60
  20 -10  -2    9.10    2.10
  20 -10  -2    4.60    2.30
 -10 -10  -2    6.80    2.00
 -10  20  -2    7.60    2.60
  10  10   2    7.70    2.00
 -20  10   2    5.40    2.30
  10  10   2    2.00    2.30
 -10  21  -2    2.00    2.80
 -10  21  -2    1.00    2.50
 -10  21  -2    2.10    2.10
  21 -11  -2    0.40    2.20
  21 -11  -2    1.90    2.10
  11  10   2    1.00    2.40
  11  10   2    0.80    2.10
 -21  11   2    0.30    2.50
  20 -11  -2   37.20    3.80
  -9  20  -2   34.50    3.40
  20 -11  -2   33.50    3.30
  -9  20  -2   32.80    3.90
  11   9   2   28.70    3.90
 -20  11   2   32.30    3.70
   9 -20   2   39.80    4.50
  11   9   2   33.90    3.40
  19 -11  -2    7.50    2.10
  19 -11  -2    9.90    1.80
  -8  19  -2    4.70    2.10
 -11  -8  -2    7.30    1.90
  -8  19  -2    9.20    2.00
 -19  11   2    7.60    2.20
  11   8   2    5.80    2.20
   8 -19   2    8.00    2.60
  11   8   2    8.80    2.00
  18 -11  -2   20.50    2.50
  -7  18  -2   22.10    2.70
 -11  -7  -2   20.90    2.40
  -7  18  -2   17.60    2.90
  18 -11  -2   21.40    3.00
 -18  11   2   22.60    2.80
   7 -18   2   26.50    3.30
  11   7   2   15.80    3.20
  11   7   2   22.00    2.80
  -6  17  -2    0.50    1.40
  -6  17  -2    1.50    1.60
  17 -11  -2   -0.40    1.30
 -11  -6  -2    1.80    1.30
  17 -11  -2    0.10    1.50
 -17  11   2    1.90    1.60
  11   6   2    0.30    1.60
   6 -17   2   -0.20    1.70
  11   6   2    0.00    1.70
  -5  16  -2    0.60    1.50
  16 -11  -2    1.40    1.40
 -11  -5  -2    0.70    1.20
  11   5   2    0.70    1.50
   5 -16   2    1.20    1.50
  11   5   2    1.00    1.60
 -11  -4  -2    5.50    1.30
  15 -11  -2    2.00    1.30
  -4  15  -2    5.40    1.50
  11   4   2    2.50    1.50
   4 -15   2    3.30    1.40
  11   4   2    4.40    1.70
  14 -11  -2   26.60    2.50
  -3  14  -2   23.60    2.40
  11   3   2   23.00    2.30
   3 -14   2   23.80    2.40
  11   3   2   22.70    2.50
  13 -11  -2    0.50    1.10
  -2  13  -2    4.00    1.20
 -11  -2  -2   -0.20    1.20
  11   2   2    3.70    1.40
  11   2   2   -0.90    1.10
   2 -13   2    0.20    1.10
  12 -11  -2   21.80    2.30
  -1  12  -2   21.50    2.30
 -11  -1  -2   23.60    2.30
  11   1   2   21.50    2.00
   1 -12   2   25.20    2.10
  11   1   2   21.00    2.40
  11 -11  -2   25.00    2.40
   0  11  -2   26.10    2.30
 -11   0  -2   22.30    2.40
  11   0   2   23.00    2.50
   0 -11   2   26.40    2.20
 -11  11   2   27.40    2.50
  10 -11  -2   15.00    2.00
   1  10  -2   16.70    1.90
 -11   1  -2   13.90    2.10
 -10  11   2   12.70    1.90
  -1 -10   2   17.30    1.80
  11  -1   2   12.60    2.10
 -11   2  -2   36.10    2.90
   9 -11  -2   37.10    2.80
   2   9  -2   37.00    2.70
  -2  -9   2   35.30    2.80
  -9  11   2   35.20    2.80
  11  -2   2   33.70    3.00
 -11   3  -2    0.40    1.20
   3   8  -2    0.70    1.10
   8 -11  -2    1.70    1.10
  -3  -8   2    2.20    1.00
  11  -3   2    2.20    1.20
  -8  11   2    0.80    0.90
   7 -11  -2   27.10    2.50
   4   7  -2   27.90    2.40
 -11   4  -2   29.60    2.50
  -7  11   2   28.10    2.40
  11  -4   2   29.30    2.60
  -4  -7   2   27.90    2.40
 -11   5  -2   25.80    2.40
   5   6  -2   32.00    2.40
   6 -11  -2   32.10    2.50
  11  -5   2   29.50    2.70
  -6  11   2   27.10    2.50
  -5  -6   2   31.00    2.40
   6   5  -2    0.90    1.10
 -11   6  -2    1.90    1.00
   5 -11  -2    1.00    1.00
  11  -6   2    0.50    1.20
  -6  -5   2    1.50    0.90
  -5  11   2    3.10    1.10
 -11   7  -2   23.00    2.10
   4 -11  -2   20.00    2.10
   7   4  -2   22.10    2.00
  -4  11   2   19.60    2.10
  -7  -4   2   20.80    1.90
  11  -7   2   16.70    2.40
 -11   8  -2  134.59    8.00
   3 -11  -2  133.69    7.80
   8   3  -2  136.89    7.80
   3 -11  -2  132.29    7.60
  -3  11   2  131.79    7.70
  11  -8   2  135.19    8.10
  -3  11   2  125.19    7.90
  -8  -3   2  130.49    7.80
   2 -11  -2   35.90    2.60
   9   2  -2   39.90    2.70
   2 -11  -2   35.00    2.80
 -11   9  -2   36.80    2.90
  11  -9   2   31.30    3.10
  -2  11   2   38.10    2.80
  -2  11   2   37.60    2.70
  -9  -2   2   36.90    2.70
   1 -11  -2   47.70    3.30
   1 -11  -2   48.70    3.40
  10   1  -2   50.09    3.30
 -11  10  -2   48.00    3.60
  -1  11   2   49.50    3.40
  11 -10   2   51.39    3.80
  -1  11   2   50.79    3.40
 -10  -1   2   48.30    3.40
  11   0  -2   25.00    2.10
   0 -11  -2   24.30    2.20
 -11  11  -2   24.00    2.50
 -11  11  -2   21.30    1.80
   0 -11  -2   19.80    2.20
   0  11   2   21.90    2.30
 -11   0   2   20.70    2.10
   0  11   2   24.70    2.20
  -1 -11  -2    1.40    1.10
  12  -1  -2    3.00    1.20
 -11  12  -2    3.60    1.00
  -1 -11  -2    0.70    1.30
 -11  12  -2    3.20    1.20
 -11  12  -2    4.70    1.40
   1  11   2    1.60    1.30
 -12   1   2    2.30    1.20
   1  11   2   -0.30    1.20
  13  -2  -2    1.70    1.30
  -2 -11  -2   -0.70    1.20
 -11  13  -2    1.10    1.30
 -11  13  -2    2.60    1.40
 -11  13  -2    2.00    1.10
 -13   2   2    1.20    1.30
   2  11   2    1.20    1.40
   2  11   2   -1.60    1.20
 -11  14  -2    9.20    1.90
  -3 -11  -2    9.50    1.60
  14  -3  -2   10.90    1.90
 -11  14  -2    9.80    1.70
   3  11   2    9.30    1.70
 -14   3   2    9.60    1.70
   3  11   2    7.30    1.50
 -11  15  -2   -0.40    1.40
 -11  15  -2    1.50    1.30
  15  -4  -2    0.10    1.40
  -4 -11  -2   -0.80    1.40
 -11  15  -2    1.30    1.40
   4  11   2   -0.90    1.30
 -15   4   2   -0.50    1.60
   4  11   2    1.00    1.50
  16  -5  -2    9.80    1.80
 -11  16  -2   10.00    1.80
 -11  16  -2   11.70    1.90
  -5 -11  -2   10.60    1.80
 -11  16  -2   12.20    1.90
 -16   5   2   12.40    2.00
   5  11   2    5.40    1.80
   5  11   2   12.10    2.00
 -11  17  -2    8.50    1.90
  -6 -11  -2    9.50    1.80
 -11  17  -2    9.30    2.20
 -11  17  -2    6.80    1.80
  17  -6  -2    8.50    1.90
 -17   6   2    9.50    2.10
   6  11   2    7.10    1.90
   6  11   2    8.40    2.00
  -7 -11  -2    2.60    1.70
 -11  18  -2   -0.40    2.10
  18  -7  -2   -0.80    1.70
 -11  18  -2   -2.40    1.70
 -11  18  -2   -1.60    1.80
 -18   7   2    0.20    2.00
   7  11   2   -4.00    1.80
   7  11   2   -1.20    1.70
  19  -8  -2    3.30    2.20
 -11  19  -2    5.30    2.20
 -11  19  -2    5.70    1.90
  19  -8  -2    8.90    2.10
 -11  19  -2    3.70    2.40
  -8 -11  -2    8.90    2.20
 -19   8   2    6.20    2.30
   8  11   2    7.80    2.10
   8  11   2    4.90    2.50
 -11  20  -2    0.90    2.40
  -9 -11  -2    5.60    2.00
 -11  20  -2    0.40    1.70
  20  -9  -2    0.20    2.10
  20  -9  -2    3.40    2.10
 -11  20  -2    2.60    2.60
   9  11   2    2.60    2.00
 -20   9   2    1.70    2.50
   9  11   2    0.70    2.30
 -11  21  -2   -0.50    2.60
  21 -10  -2   -2.70    2.20
  21 -10  -2    2.70    2.20
 -11  21  -2    2.90    2.00
 -11  21  -2    2.50    2.90
 -21  10   2    1.40    2.60
  10  11   2    0.00    2.50
  22 -11  -2    0.30    2.20
  22 -11  -2   -0.20    2.30
 -11  22  -2    0.10    3.00
 -11  22  -2    3.50    2.10
 -11  22  -2   -1.10    3.10
 -22  11   2    0.00    2.80
  11  11   2    0.00    2.70
  11  11   2    0.50    2.00
 -11  23  -2   31.10    3.70
  23 -12  -2   31.80    4.30
 -11  23  -2   34.30    5.60
  23 -12  -2   36.80    3.70
 -23  12   2   26.60    4.60
  12  11   2   23.90    4.90
  12  11   2   26.50    3.60
  22 -12  -2    6.90    2.20
  22 -12  -2    3.30    2.30
 -10  22  -2    7.00    2.20
  12  10   2    4.10    2.10
 -22  12   2    2.90    2.90
  12  10   2    3.70    2.70
  -9  21  -2   -2.00    2.60
  21 -12  -2    2.60    1.90
  -9  21  -2   -0.40    1.90
  21 -12  -2   -2.20    2.00
 -21  12   2   -0.10    2.40
  12   9   2    0.40    2.00
   9 -21   2    2.50    2.90
  12   9   2    1.90    2.50
  20 -12  -2    6.10    2.00
  -8  20  -2    9.20    2.10
  -8  20  -2    3.10    2.30
  20 -12  -2    5.40    2.10
   8 -20   2    6.70    2.90
  12   8   2    7.70    2.40
 -20  12   2   10.00    2.40
  12   8   2    7.00    2.40
  -7  19  -2    4.50    1.80
  19 -12  -2    5.40    1.80
  -7  19  -2   -0.20    1.80
 -12  -7  -2    2.50    1.70
  19 -12  -2    0.90    1.80
  12   7   2    4.60    2.10
 -19  12   2    3.50    2.10
   7 -19   2    7.10    2.40
  12   7   2    3.50    1.90
  -6  18  -2    3.40    1.60
  -6  18  -2    1.80    1.60
 -12  -6  -2    2.30    1.60
  18 -12  -2    2.20    1.70
  12   6   2    2.10    1.70
   6 -18   2    1.20    2.00
  12   6   2    2.30    1.80
 -12  -5  -2    2.20    1.40
  -5  17  -2    1.70    1.50
  -5  17  -2    1.50    1.30
  17 -12  -2    0.90    1.60
   5 -17   2    1.00    1.70
  12   5   2    2.30    1.60
  12   5   2    0.80    1.70
  16 -12  -2    4.90    1.60
  -4  16  -2    3.40    1.50
 -12  -4  -2    5.80    1.40
  12   4   2    3.10    1.70
  12   4   2    3.90    1.60
   4 -16   2    5.60    1.60
 -12  -3  -2    0.50    1.40
  15 -12  -2    0.90    1.30
  -3  15  -2    2.20    1.50
   3 -15   2    0.00    1.30
  12   3   2    2.00    1.40
  12   3   2    1.20    1.50
 -12  -2  -2   -0.50    1.40
  14 -12  -2    0.20    1.20
  -2  14  -2    2.40    1.30
  12   2   2    1.70    1.20
  12   2   2    1.70    1.40
   2 -14   2    0.60    1.20
  13 -12  -2   15.70    2.10
  -1  13  -2   13.70    2.00
 -12  -1  -2   10.80    1.80
  12   1   2   12.30    1.80
   1 -13   2   12.40    1.80
  12   1   2   11.90    2.10
   0  12  -2    6.90    1.40
  12 -12  -2    7.40    1.40
 -12   0  -2    8.10    1.60
   0 -12   2    6.00    1.20
 -12  12   2    7.00    1.50
  12   0   2    6.80    1.50
 -12   1  -2    5.80    1.50
   1  11  -2    2.40    1.20
  11 -12  -2    4.40    1.20
  -1 -11   2    2.50    1.00
  12  -1   2    1.80    1.40
 -11  12   2    1.90    1.30
   2  10  -2   35.70    2.80
 -12   2  -2   34.00    2.90
  10 -12  -2   36.40    2.80
 -10  12   2   37.60    2.90
  12  -2   2   34.50    3.00
  -2 -10   2   36.00    2.80
 -12   3  -2    2.20    1.20
   9 -12  -2    1.70    1.10
   3   9  -2    4.50    1.20
  -9  12   2    2.20    1.00
  12  -3   2    2.70    1.20
  -3  -9   2    3.30    1.20
   8 -12  -2  101.59    6.10
   4   8  -2  102.29    6.10
 -12   4  -2   99.39    6.10
  -8  12   2  102.59    6.20
  12  -4   2   97.79    6.20
  -4  -8   2   94.79    6.10
   7 -12  -2   33.50    2.70
   5   7  -2   32.00    2.60
 -12   5  -2   34.10    2.60
  -5  -7   2   31.90    2.60
  12  -5   2   30.60    2.90
  -7  12   2   34.50    2.70
 -12   6  -2   34.90    2.80
   6   6  -2   37.00    2.70
   6 -12  -2   36.50    2.80
  -6  12   2   38.00    2.90
  12  -6   2   36.10    3.10
  -6  -6   2   35.50    2.70
   7   5  -2   62.39    3.90
 -12   7  -2   61.69    4.00
   5 -12  -2   59.69    4.00
  -7  -5   2   54.99    3.80
  12  -7   2   59.59    4.20
  -5  12   2   58.59    4.00
   4 -12  -2    2.70    1.10
   8   4  -2    4.50    1.20
 -12   8  -2    1.30    1.10
  -8  -4   2    5.10    1.10
  -4  12   2    3.50    1.20
  12  -8   2    0.60    1.40
   3 -12  -2   29.30    2.40
   3 -12  -2   30.80    2.20
   9   3  -2   29.00    2.40
 -12   9  -2   30.10    2.70
  -9  -3   2   26.20    2.40
  -3  12   2   27.10    2.40
  12  -9   2   31.50    2.90
  -3  12   2   27.10    2.30
   2 -12  -2    0.30    1.10
  10   2  -2    2.60    1.10
   2 -12  -2    0.50    1.10
 -12  10  -2    1.10    1.30
  12 -10   2    0.70    1.40
 -10  -2   2   -0.20    1.10
  -2  12   2   -1.00    0.90
  -2  12   2    0.40    1.10
   1 -12  -2   23.30    2.20
  11   1  -2   21.30    2.10
   1 -12  -2   19.90    2.10
 -12  11  -2   25.20    2.50
  12 -11   2   25.70    2.80
  -1  12   2   20.40    2.10
  -1  12   2   20.00    2.20
 -11  -1   2   17.40    2.10
 -12  12  -2    6.60    1.10
 -12  12  -2    6.30    1.50
   0 -12  -2    5.10    1.50
 -12  12  -2    9.10    1.60
   0 -12  -2    5.30    1.30
  12   0  -2    7.60    1.40
   0  12   2    6.00    1.50
 -12   0   2    6.20    1.40
   0  12   2    5.00    1.40
  -1 -12  -2   18.20    2.20
  13  -1  -2   19.60    2.10
 -12  13  -2   20.70    2.40
 -12  13  -2   17.90    2.20
 -12  13  -2   17.10    1.90
   1  12   2   18.20    2.20
   1  12   2   14.20    2.20
 -13   1   2   15.40    2.10
 -12  14  -2   16.20    2.00
 -12  14  -2   20.20    2.40
 -12  14  -2   14.40    2.20
  14  -2  -2   17.80    2.10
  -2 -12  -2   14.70    2.20
   2  12   2   15.90    2.20
   2  12   2   10.80    2.20
 -14   2   2   13.10    2.20
 -12  15  -2    8.20    1.90
 -12  15  -2    7.20    1.50
  -3 -12  -2    6.90    1.90
 -12  15  -2    9.10    1.70
  15  -3  -2    7.60    1.70
   3  12   2    7.30    1.90
   3  12   2    3.70    1.50
 -15   3   2    6.70    1.90
  -4 -12  -2    8.10    2.00
 -12  16  -2   14.30    2.30
 -12  16  -2   12.10    1.90
 -12  16  -2   15.40    2.80
  16  -4  -2    9.60    1.90
   4  12   2   12.90    2.10
   4  12   2   12.20    2.00
 -16   4   2    9.50    2.10
 -12  17  -2   -0.70    1.70
 -12  17  -2    0.10    1.80
  -5 -12  -2    0.00    1.80
 -12  17  -2   -2.00    1.60
  17  -5  -2   -1.00    1.60
   5  12   2    1.80    1.80
 -17   5   2    1.60    2.00
  18  -6  -2   -0.30    1.80
 -12  18  -2   -1.20    2.00
 -12  18  -2    0.50    1.80
  -6 -12  -2   -1.50    2.00
 -12  18  -2    1.00    2.10
 -18   6   2   -1.20    2.10
   6  12   2    0.40    1.90
 -12  19  -2    9.30    2.60
 -12  19  -2   12.10    2.20
  19  -7  -2   12.90    2.20
  -7 -12  -2   12.00    2.40
 -12  19  -2    9.30    2.40
 -19   7   2   13.90    2.50
   7  12   2   10.50    2.30
   7  12   2    8.00    2.40
 -12  20  -2   -0.30    1.90
 -12  20  -2    2.40    2.70
 -12  20  -2    0.40    2.40
  20  -8  -2   -1.60    2.10
  -8 -12  -2    4.00    2.50
  20  -8  -2    4.20    2.00
   8  12   2    3.30    2.50
   8  12   2    1.50    2.00
 -20   8   2    6.30    2.50
  21  -9  -2   22.70    3.80
  21  -9  -2   21.60    3.10
 -12  21  -2   20.60    3.40
 -12  21  -2   20.00    3.30
 -12  21  -2   20.00    3.00
   9  12   2   18.70    3.70
   9  12   2   20.50    4.10
 -21   9   2   22.30    3.20
  22 -10  -2   16.10    2.70
 -12  22  -2    8.20    3.20
  22 -10  -2   10.10    2.70
 -12  22  -2    8.50    3.20
 -12  22  -2   11.10    2.50
  10  12   2    8.10    3.00
  10  12   2   10.60    2.50
 -22  10   2   10.80    3.20
 -12  23  -2    3.20    3.40
  23 -11  -2    2.70    2.40
 -12  23  -2    3.30    2.20
  23 -11  -2    3.20    2.40
  11  12   2    7.30    2.30
 -23  11   2    2.50    3.30
  11  12   2    0.80    3.10
  24 -12  -2   33.30    4.30
 -12  24  -2   30.80    3.90
  24 -12  -2   34.00    4.00
 -24  12   2   29.50    4.30
  12  12   2   32.10    3.90
  25 -13  -2   24.60    4.10
 -12  25  -2   21.90    3.90
  25 -13  -2   15.00    3.10
  13  12   2   18.30    3.60
 -25  13   2   17.60    4.20
  24 -13  -2    4.00    2.80
  24 -13  -2   -1.20    2.40
 -24  13   2    2.10    3.40
  13  11   2    4.20    2.40
  13  11   2   -2.00    3.80
  23 -13  -2   12.90    2.70
 -10  23  -2   17.30    3.20
  23 -13  -2   24.70    3.50
 -23  13   2   16.00    3.40
  13  10   2   13.20    3.20
  13  10   2   13.60    2.60
  22 -13  -2    7.50    2.40
  22 -13  -2   13.50    2.60
  -9  22  -2   11.70    2.50
  13   9   2   10.20    2.40
  13   9   2    7.40    2.90
 -22  13   2   11.80    3.00
   9 -22   2   10.80    3.60
  21 -13  -2    3.00    2.20
  21 -13  -2    7.90    2.20
  -8  21  -2    6.20    2.10
  -8  21  -2    1.20    2.70
  13   8   2    3.20    2.40
  13   8   2    3.20    2.00
 -21  13   2    5.60    2.40
   8 -21   2    6.50    3.30
  -7  20  -2   21.70    3.00
  20 -13  -2   23.70    3.20
  -7  20  -2   14.80    2.50
  20 -13  -2   23.70    2.70
   7 -20   2   17.30    3.30
  13   7   2   15.50    2.60
  -6  19  -2   -2.80    1.70
  -6  19  -2    0.00    1.80
  19 -13  -2    3.00    1.80
 -13  -6  -2    1.60    1.60
   6 -19   2   -0.40    2.20
  13   6   2    1.90    1.80
  13   6   2    0.40    1.90
  -5  18  -2   12.90    2.10
 -13  -5  -2    9.10    1.70
  18 -13  -2   10.20    2.00
  -5  18  -2    6.70    1.70
  13   5   2   10.70    2.00
  13   5   2    8.10    2.10
   5 -18   2   11.10    2.40
  17 -13  -2    7.10    1.80
  -4  17  -2    6.60    1.80
 -13  -4  -2    6.10    1.50
  13   4   2   11.70    2.10
  13   4   2    4.90    1.70
   4 -17   2    7.90    1.80
 -13  -3  -2    4.40    1.60
  16 -13  -2    3.80    1.50
  -3  16  -2    6.10    1.70
   3 -16   2    2.80    1.50
  13   3   2    4.20    1.70
  13   3   2    3.00    1.60
 -13  -2  -2   11.40    1.90
  -2  15  -2   11.10    2.20
  15 -13  -2   16.80    2.30
  13   2   2   13.00    2.10
   2 -15   2   12.60    2.10
  13   2   2   16.40    2.40
  -1  14  -2    8.90    1.60
  14 -13  -2    8.90    1.60
 -13  -1  -2    6.60    1.60
  13   1   2    7.90    1.30
  13   1   2    9.80    1.80
   1 -14   2    7.10    1.60
   0  13  -2   11.80    2.00
  13 -13  -2   10.20    2.00
 -13   0  -2   13.40    2.10
 -13  13   2   12.90    2.30
  13   0   2   12.90    2.10
   0 -13   2   13.80    1.90
  12 -13  -2   18.00    2.30
 -13   1  -2   19.70    2.30
   1  12  -2   18.60    2.20
 -12  13   2   16.90    2.40
  -1 -12   2   21.50    2.00
  13  -1   2   18.90    2.40
  11 -13  -2    1.50    1.10
 -13   2  -2    1.00    1.40
   2  11  -2    2.40    1.20
  -2 -11   2    0.10    1.10
  13  -2   2    1.40    1.30
 -11  13   2    0.30    1.20
 -13   3  -2    8.90    1.50
  10 -13  -2   11.40    1.90
   3  10  -2   12.70    1.90
 -10  13   2   12.30    1.90
  -3 -10   2   10.70    1.80
  13  -3   2    9.30    1.70
 -13   4  -2    7.40    1.40
   9 -13  -2    9.70    1.80
   4   9  -2    7.20    1.40
  13  -4   2    7.20    1.50
  -4  -9   2    7.20    1.40
  -9  13   2    7.10    1.20
   5   8  -2   13.10    1.80
 -13   5  -2   13.70    1.80
   8 -13  -2   12.60    1.90
  -8  13   2   13.80    1.80
  13  -5   2   13.50    2.10
  -5  -8   2   12.10    1.90
   7 -13  -2   29.50    2.50
 -13   6  -2   30.00    2.50
   6   7  -2   28.80    2.40
  -7  13   2   26.50    2.50
  -6  -7   2   22.10    2.40
  13  -6   2   30.30    2.70
   7   6  -2    5.70    1.30
 -13   7  -2    4.30    1.40
   6 -13  -2    5.10    1.20
  13  -7   2    6.60    1.60
  -6  13   2    8.90    1.70
  -7  -6   2    3.90    1.10
   5 -13  -2  111.69    6.80
 -13   8  -2  121.39    6.90
   8   5  -2  112.39    6.70
  13  -8   2  117.19    7.00
  -5  13   2  104.69    6.80
  -8  -5   2  105.29    6.70
   4 -13  -2   17.30    1.70
   9   4  -2   16.00    1.90
   4 -13  -2   15.20    2.00
  -4  13   2   14.80    1.80
  -9  -4   2   14.00    1.80
  -4  13   2   16.80    2.00
   3 -13  -2   51.19    3.50
   3 -13  -2   49.20    3.40
  10   3  -2   50.79    3.50
 -13  10  -2   57.09    3.80
 -10  -3   2   47.70    3.50
  13 -10   2   57.09    4.00
  -3  13   2   48.90    3.60
  -3  13   2   48.40    3.40
  11   2  -2    2.10    1.20
   2 -13  -2    0.10    1.10
 -13  11  -2    0.50    1.30
   2 -13  -2    1.20    1.30
  13 -11   2    1.90    1.50
  -2  13   2    0.80    1.00
  -2  13   2    0.90    1.20
 -11  -2   2   -0.40    1.20
   1 -13  -2   12.80    2.00
  12   1  -2   10.00    1.80
   1 -13  -2   11.50    1.90
  13 -12   2   15.60    2.60
  -1  13   2    9.50    1.90
 -12  -1   2    8.00    1.60
  -1  13   2    9.50    1.90
   0 -13  -2   10.30    1.80
  13   0  -2   10.00    1.70
 -13  13  -2    9.60    1.60
 -13  13  -2    8.90    1.80
   0 -13  -2   11.40    1.90
 -13  13  -2    8.50    1.70
 -13   0   2   11.00    1.60
   0  13   2    8.60    1.60
   0  13   2   11.70    1.80
  -1 -13  -2    1.10    1.70
  14  -1  -2    2.30    1.40
 -13  14  -2    2.80    1.20
 -13  14  -2    3.20    1.50
 -13  14  -2    2.70    1.60
   1  13   2    2.10    1.50
 -14   1   2   -1.40    1.30
 -13  15  -2    0.90    1.50
  15  -2  -2    1.30    1.50
 -13  15  -2   -0.40    1.60
 -13  15  -2    0.60    1.50
  -2 -13  -2   -0.40    1.80
   2  13   2   -1.80    1.30
   2  13   2    1.10    1.50
 -15   2   2   -1.40    1.60
 -13  16  -2    1.50    1.60
 -13  16  -2    0.70    1.90
  16  -3  -2    1.50    1.70
 -13  16  -2    0.00    1.50
  -3 -13  -2    4.70    2.00
 -16   3   2    0.70    2.00
   3  13   2    2.10    1.70
   3  13   2   -3.50    1.50
 -13  17  -2    2.10    1.70
  17  -4  -2   -0.50    1.70
  -4 -13  -2    1.70    2.10
 -13  17  -2    3.50    2.10
 -13  17  -2    4.10    1.80
   4  13   2   -0.10    1.80
 -17   4   2    1.00    2.10
   4  13   2    0.20    1.80
  18  -5  -2    7.40    1.90
 -13  18  -2    6.20    1.90
 -13  18  -2    6.60    2.00
 -13  18  -2    7.60    2.30
  -5 -13  -2    3.60    2.40
 -18   5   2    8.70    2.40
   5  13   2    3.30    2.00
  -6 -13  -2   11.50    2.80
 -13  19  -2   14.00    2.40
 -13  19  -2   16.00    2.80
  19  -6  -2   16.30    2.60
 -13  19  -2   14.10    2.40
   6  13   2   10.00    2.40
   6  13   2    8.80    2.50
 -19   6   2   13.10    2.70
  20  -7  -2    0.10    2.00
 -13  20  -2    0.80    1.90
 -13  20  -2    0.80    2.50
 -13  20  -2   -0.80    2.30
  -7 -13  -2   -4.90    2.70
   7  13   2   -0.40    2.40
   7  13   2   -0.20    2.10
 -20   7   2    3.10    2.60
  21  -8  -2    3.20    2.40
  21  -8  -2    9.80    2.30
 -13  21  -2    6.30    2.80
 -13  21  -2    5.10    2.10
 -13  21  -2    7.60    2.80
   8  13   2    7.70    2.70
 -21   8   2    8.00    2.90
   8  13   2    7.20    2.30
  22  -9  -2    2.80    2.40
  22  -9  -2   -2.90    2.40
 -13  22  -2    0.10    3.00
 -13  22  -2    0.60    3.10
 -13  22  -2   -0.60    1.90
 -22   9   2   -0.70    3.00
   9  13   2   -1.30    2.10
   9  13   2    1.20    3.00
  23 -10  -2    0.10    2.50
  23 -10  -2    4.40    2.60
 -13  23  -2    3.90    2.30
 -13  23  -2    0.50    3.50
 -13  23  -2    6.80    3.50
 -23  10   2    3.60    3.40
  10  13   2    5.40    2.40
  24 -11  -2    1.70    2.60
  24 -11  -2    0.00    2.50
 -13  24  -2    4.00    2.50
 -13  24  -2    2.50    4.50
  11  13   2    5.00    2.40
 -24  11   2    4.60    3.70
  25 -12  -2   43.50    5.10
 -13  25  -2   38.90    4.40
  25 -12  -2   43.70    4.60
 -25  12   2   36.80    5.80
  12  13   2   36.20    4.30
  26 -13  -2    2.40    3.00
  26 -13  -2    6.10    3.30
 -13  26  -2    5.60    3.00
 -26  13   2    3.80    4.30
  13  13   2    2.60    2.90
  27 -14  -2   26.90    5.00
 -13  27  -2   22.40    3.70
  27 -14  -2   29.20    5.10
  14  13   2   23.40    4.10
 -12  26  -2    4.50    2.90
  26 -14  -2    0.30    2.90
  26 -14  -2    0.30    3.30
  14  12   2    4.50    2.70
 -11  25  -2   57.49    5.00
  25 -14  -2   53.89    5.20
  25 -14  -2   58.09    5.90
 -25  14   2   49.30    6.10
  14  11   2   43.70    4.60
  24 -14  -2    0.70    2.50
 -10  24  -2    3.00    2.60
  24 -14  -2    1.90    2.80
  14  10   2    0.10    2.20
  14  10   2   -1.00    3.20
 -24  14   2    1.10    3.40
  23 -14  -2    2.30    2.30
  -9  23  -2    1.10    2.60
  23 -14  -2    1.50    2.60
  14   9   2    1.70    2.20
  14   9   2    0.10    2.90
 -23  14   2    0.20    3.10
  -8  22  -2    4.80    2.30
  22 -14  -2    4.70    2.30
  22 -14  -2    5.90    2.40
  14   8   2    3.30    2.10
 -22  14   2    1.60    2.70
  14   8   2    4.90    2.60
   8 -22   2    2.40    3.60
  21 -14  -2    2.00    2.10
  -7  21  -2    5.40    2.20
  21 -14  -2    6.80    2.20
  14   7   2    2.80    2.00
   7 -21   2    3.50    3.00
  14   7   2    2.80    2.40
  -6  20  -2    3.40    2.10
  20 -14  -2    1.10    2.00
  -6  20  -2   -4.30    1.80
   6 -20   2   -0.20    2.60
  14   6   2    0.40    1.60
  14   6   2    2.60    2.20
  -5  19  -2    9.80    1.90
  -5  19  -2   14.40    2.70
  19 -14  -2   13.10    2.20
  14   5   2    8.00    2.20
   5 -19   2   14.10    2.80
  14   5   2   14.20    2.60
  18 -14  -2    5.60    1.80
  -4  18  -2    4.50    1.50
  -4  18  -2    7.10    2.00
 -14  -4  -2    7.20    1.80
  14   4   2    4.40    1.90
   4 -18   2    9.10    2.00
  14   4   2    9.20    2.00
  17 -14  -2    1.80    1.60
  -3  17  -2    5.50    1.70
 -14  -3  -2    3.60    1.70
   3 -17   2    0.80    1.70
  14   3   2    0.00    1.60
  14   3   2    2.60    1.70
 -14  -2  -2    3.10    1.80
  16 -14  -2    2.10    1.60
  -2  16  -2    3.60    1.60
   2 -16   2    3.20    1.60
  14   2   2    2.90    1.70
  14   2   2    2.00    1.50
  15 -14  -2    0.90    1.30
  -1  15  -2    0.80    1.50
 -14  -1  -2    0.40    1.50
  14   1   2    4.30    1.60
   1 -15   2    1.90    1.50
  14   1   2    1.30    1.30
 -14   0  -2    5.30    1.60
   0  14  -2    5.00    1.60
  14 -14  -2    7.20    1.50
  14   0   2    5.50    1.70
   0 -14   2    3.10    1.50
 -14  14   2    5.10    1.60
   1  13  -2    2.50    1.30
 -14   1  -2    3.50    1.50
  13 -14  -2    3.00    1.30
  14  -1   2    1.70    1.40
 -13  14   2    2.40    1.50
  -1 -13   2    2.70    1.20
   2  12  -2   20.80    2.30
 -14   2  -2   16.90    2.20
  12 -14  -2   17.10    2.20
  14  -2   2   19.00    2.40
 -12  14   2   19.00    2.50
  -2 -12   2   20.00    2.00
 -14   3  -2   14.20    2.00
  11 -14  -2   10.90    2.00
   3  11  -2   10.00    1.90
 -11  14   2   12.30    2.10
  -3 -11   2   12.30    1.80
  14  -3   2    8.80    1.90
 -14   4  -2   32.40    2.80
   4  10  -2   36.60    2.80
  10 -14  -2   37.20    2.90
 -10  14   2   37.60    2.90
  -4 -10   2   31.10    2.80
  14  -4   2   37.50    3.00
   5   9  -2    3.90    1.30
 -14   5  -2    5.70    1.40
   9 -14  -2    2.90    1.20
  14  -5   2    3.80    1.40
  -5  -9   2    4.30    1.40
  -9  14   2    2.10    1.00
 -14   6  -2   78.19    4.90
   6   8  -2   74.79    4.70
   8 -14  -2   75.59    4.80
  14  -6   2   77.59    5.00
  -8  14   2   70.79    4.80
  -6  -8   2   65.39    4.70
 -14   7  -2    4.40    1.40
   7 -14  -2    6.10    1.30
   7   7  -2    5.30    1.30
  14  -7   2    5.40    1.70
  -7  -7   2    5.30    1.30
  -7  14   2   10.70    1.80
 -14   8  -2   16.40    2.20
   8   6  -2   14.40    1.80
   6 -14  -2   16.10    2.00
  -6  14   2   13.70    2.00
  14  -8   2   18.00    2.50
  -8  -6   2   14.40    1.80
   9   5  -2    9.10    1.70
   5 -14  -2   11.20    1.80
  14  -9   2   11.30    1.90
  -9  -5   2    9.80    1.50
  -5  14   2   11.30    2.00
  10   4  -2    2.70    1.20
   4 -14  -2    3.10    1.20
   4 -14  -2    2.80    1.20
 -14  10  -2    2.70    1.30
  14 -10   2    3.20    1.60
  -4  14   2    1.30    1.10
  -4  14   2    0.10    1.20
 -10  -4   2    2.50    1.30
   3 -14  -2   22.80    2.30
  11   3  -2   23.50    2.20
   3 -14  -2   23.10    2.20
 -14  11  -2   28.30    2.60
  -3  14   2   17.40    2.20
  -3  14   2   18.60    2.20
  14 -11   2   24.40    2.80
 -11  -3   2   16.70    2.30
   2 -14  -2    2.10    1.80
   2 -14  -2    0.80    1.20
  12   2  -2    2.00    1.20
 -14  12  -2    0.80    1.40
  14 -12   2    0.80    1.60
 -12  -2   2   -1.70    1.20
  -2  14   2    1.30    1.10
  -2  14   2    0.50    1.40
  13   1  -2    6.90    1.60
   1 -14  -2    6.50    1.80
 -14  13  -2    6.60    1.60
   1 -14  -2    7.70    1.40
 -13  -1   2    5.50    1.50
  -1  14   2    5.10    1.60
  -1  14   2    5.70    1.40
  14 -13   2    5.70    1.90
 -14  14  -2    6.40    1.80
 -14  14  -2    4.80    1.30
  14   0  -2    5.10    1.60
   0 -14  -2    7.20    1.90
 -14  14  -2    2.80    1.60
 -14   0   2    2.80    1.50
   0  14   2    4.60    1.70
   0  14   2    0.30    1.40
  -1 -14  -2    6.40    2.00
  15  -1  -2    5.90    1.80
 -14  15  -2    6.10    2.00
 -14  15  -2    4.70    1.50
 -14  15  -2    6.30    1.70
   1  14   2    5.80    1.80
   1  14   2    2.00    1.70
 -15   1   2    1.20    1.70
 -14  16  -2    5.10    2.20
  -2 -14  -2    4.10    2.20
 -14  16  -2    4.80    1.60
 -14  16  -2    1.90    1.60
  16  -2  -2    5.30    1.90
 -16   2   2    0.80    2.00
   2  14   2    3.50    1.80
 -14  17  -2    6.00    2.20
  -3 -14  -2    5.30    2.50
  17  -3  -2    2.70    2.00
 -14  17  -2    7.00    2.10
 -14  17  -2    7.00    1.80
 -17   3   2    4.50    2.20
   3  14   2    1.30    1.70
   3  14   2    3.60    2.00
  18  -4  -2   10.90    2.20
 -14  18  -2   14.60    2.70
  -4 -14  -2    9.60    2.80
 -14  18  -2   15.70    2.80
 -14  18  -2   15.50    2.80
   4  14   2   10.40    2.30
   4  14   2   10.40    2.30
 -18   4   2   14.30    2.60
  -5 -14  -2   18.70    3.20
 -14  19  -2   21.20    3.10
 -14  19  -2   23.40    3.30
  19  -5  -2   20.50    3.00
 -14  19  -2   22.10    3.80
   5  14   2   16.10    2.80
   5  14   2   21.30    3.10
 -19   5   2   25.30    3.50
  -6 -14  -2    0.00    2.90
 -14  20  -2    0.40    2.30
  20  -6  -2    1.10    2.10
 -14  20  -2    2.80    2.50
 -14  20  -2    0.70    2.00
   6  14   2   -4.20    2.50
   6  14   2    2.60    2.20
 -20   6   2    2.30    2.50
  21  -7  -2   19.30    3.20
 -14  21  -2   17.30    3.40
 -14  21  -2   16.40    3.00
 -14  21  -2   15.20    3.00
  -7 -14  -2   18.90    4.60
   7  14   2   19.60    3.00
 -21   7   2   21.70    4.00
   7  14   2   14.70    3.20
  22  -8  -2    8.20    2.40
 -14  22  -2    5.70    3.10
 -14  22  -2    3.50    2.20
  22  -8  -2    4.80    2.50
 -14  22  -2    5.90    3.10
 -22   8   2    6.60    3.20
   8  14   2    6.30    2.40
 -14  23  -2    9.70    3.40
  23  -9  -2   13.70    3.00
 -14  23  -2   10.50    2.50
 -14  23  -2    6.80    3.50
  23  -9  -2   14.10    2.90
   9  14   2   11.50    2.60
 -23   9   2   10.90    3.50
  24 -10  -2    3.60    2.90
 -14  24  -2    8.20    3.90
 -14  24  -2    6.70    2.50
  24 -10  -2    8.10    3.00
 -24  10   2    8.40    3.70
  10  14   2    8.60    2.70
  25 -11  -2    0.40    2.80
  25 -11  -2    1.70    2.70
 -25  11   2    3.20    4.00
  11  14   2    7.40    2.80
  26 -12  -2    4.60    3.20
  26 -12  -2   -1.10    3.20
 -14  26  -2    2.70    2.60
 -26  12   2    6.60    4.40
  12  14   2    8.30    2.90
  27 -13  -2   17.30    3.90
 -14  27  -2   16.30    3.50
  27 -13  -2   10.00    3.50
  13  14   2   10.30    3.30
  28 -14  -2    2.60    3.70
  28 -14  -2    5.00    4.00
 -14  28  -2    3.50    3.40
  14  14   2    5.70    3.20
  28 -15  -2    5.30    4.30
  28 -15  -2   -2.70    3.70
 -13  28  -2    2.70    3.40
  15  13   2    2.60    3.10
  27 -15  -2   11.40    4.00
  27 -15  -2    7.00    3.50
 -12  27  -2    8.50    3.20
  15  12   2    7.90    2.90
 -11  26  -2   11.80    3.00
  26 -15  -2    8.20    3.20
  26 -15  -2   15.90    3.90
  15  11   2    7.50    2.80
  25 -15  -2   39.20    4.70
 -10  25  -2   30.30    4.10
 -25  15   2   24.20    4.30
  15  10   2   21.20    3.70
  24 -15  -2    6.40    3.00
  24 -15  -2    1.10    2.60
  -9  24  -2    5.30    2.60
  15   9   2    1.40    3.20
  15   9   2   -0.40    2.30
 -24  15   2   -1.20    3.40
  -8  23  -2    4.70    3.10
  23 -15  -2    9.70    2.90
  23 -15  -2    6.20    2.50
  15   8   2    2.00    2.80
 -23  15   2    3.30    3.00
  15   8   2    1.50    2.30
  -7  22  -2    3.30    2.30
  22 -15  -2    4.30    2.50
  22 -15  -2   -0.70    2.10
  15   7   2    1.00    2.50
  15   7   2    4.80    2.10
  21 -15  -2    1.40    2.00
  -6  21  -2    3.20    2.10
   6 -21   2    1.60    3.00
  15   6   2    4.20    1.90
  15   6   2    0.00    2.30
  20 -15  -2    4.00    2.00
  -5  20  -2    8.40    2.20
  15   5   2    3.10    2.10
   5 -20   2    1.90    2.80
  15   5   2    9.70    2.10
  -4  19  -2    4.00    1.70
  -4  19  -2    4.20    2.10
  19 -15  -2    5.00    2.00
  15   4   2   -0.30    1.90
   4 -19   2    6.40    2.40
  15   4   2    3.90    3.00
  -3  18  -2    5.80    2.00
  18 -15  -2    7.60    2.00
 -15  -3  -2    6.10    2.00
  15   3   2    5.80    1.90
  15   3   2    3.80    1.80
   3 -18   2    3.70    2.10
  -2  17  -2   30.40    3.10
  17 -15  -2   29.80    3.10
 -15  -2  -2   19.70    3.10
  15   2   2   31.70    3.10
   2 -17   2   25.50    2.90
 -15  -1  -2   10.40    2.20
  16 -15  -2   12.60    2.50
  -1  16  -2   14.50    2.20
  15   1   2   14.60    2.50
  15   1   2    9.30    1.70
   1 -16   2   12.60    2.10
 -15   0  -2   37.50    3.60
   0  15  -2   45.10    3.60
  15 -15  -2   47.90    3.70
 -15  15   2   57.69    4.00
  15   0   2   39.10    3.30
  15   0   2   49.90    3.80
   0 -15   2   46.20    3.80
 -15   1  -2    7.40    1.60
  14 -15  -2    4.00    1.50
   1  14  -2    6.30    1.60
  -1 -14   2    6.70    1.50
  15  -1   2    5.80    1.70
 -14  15   2    5.00    1.70
  13 -15  -2    1.60    1.40
   2  13  -2    0.80    1.40
 -15   2  -2    3.90    1.40
  -2 -13   2    1.10    1.30
  15  -2   2    0.80    1.60
 -13  15   2   -0.70    1.50
   3  12  -2    6.40    1.60
  12 -15  -2    6.90    1.50
 -15   3  -2    6.50    1.50
  -3 -12   2    9.20    1.70
  15  -3   2    4.80    1.70
 -12  15   2    6.90    1.60
  11 -15  -2    1.20    1.20
 -15   4  -2   -0.70    1.40
   4  11  -2    0.40    1.30
  15  -4   2   -0.20    1.30
 -11  15   2   -0.60    1.30
  -4 -11   2    0.40    1.20
   5  10  -2    3.80    1.40
 -15   5  -2    1.70    1.40
  10 -15  -2    1.80    1.30
 -10  15   2    1.00    1.20
  -5 -10   2    3.10    1.40
  15  -5   2    2.60    1.40
   6   9  -2    7.40    1.50
 -15   6  -2   13.50    2.10
   9 -15  -2    9.50    1.90
  15  -6   2   12.60    2.20
  -6  -9   2    6.70    1.60
  -9  15   2    5.80    1.40
 -15   7  -2    0.60    1.30
   8 -15  -2    0.50    1.20
   7   8  -2   -0.90    1.10
  -7  -8   2    0.00    1.20
  -8  15   2   -1.50    1.10
  15  -7   2    1.70    1.50
   7 -15  -2    1.20    1.10
   8   7  -2    0.10    1.10
 -15   8  -2    0.80    1.50
  15  -8   2    0.70    1.60
  -8  -7   2    1.00    1.20
  -7  15   2    0.70    1.20
 -15   9  -2    0.20    1.40
   6 -15  -2    0.00    1.10
   9   6  -2    0.40    1.20
  15  -9   2    0.60    1.50
  -9  -6   2   -0.70    1.10
  -6  15   2    1.30    1.30
  10   5  -2   20.10    2.10
 -15  10  -2   23.60    2.40
   5 -15  -2   20.50    2.20
 -10  -5   2   15.50    2.00
  -5  15   2   16.00    2.20
  -5  15   2   16.50    2.00
  15 -10   2   19.40    2.70
 -15  11  -2    7.20    1.60
   4 -15  -2    3.60    1.40
  11   4  -2    4.70    1.40
   4 -15  -2    4.40    1.30
 -11  -4   2    4.40    1.50
  15 -11   2    7.80    1.90
  -4  15   2    0.70    1.40
  -4  15   2    3.10    1.40
   3 -15  -2    1.70    1.30
 -15  12  -2    7.30    1.70
  12   3  -2    3.00    1.30
 -12  -3   2   -0.90    1.40
  -3  15   2    1.00    1.20
  -3  15   2    0.20    1.40
  15 -12   2    2.30    1.80
  13   2  -2   10.50    2.00
 -15  13  -2   14.00    2.20
   2 -15  -2   12.70    2.10
   2 -15  -2   14.80    2.40
  -2  15   2   11.60    1.90
  15 -13   2   17.20    2.90
  -2  15   2   11.50    2.10
 -13  -2   2   11.90    1.90
 -15  14  -2    1.50    1.70
   1 -15  -2    2.90    1.80
  14   1  -2    0.10    1.40
 -15  14  -2    0.20    1.20
  -1  15   2    0.10    1.30
 -14  -1   2    0.00    1.50
  -1  15   2   -0.40    1.60
  15   0  -2   43.70    3.60
 -15  15  -2   49.40    3.70
   0 -15  -2   42.70    3.80
 -15  15  -2   52.99    4.10
 -15  15  -2   47.10    3.40
   0  15   2   46.30    3.60
   0  15   2   38.90    3.70
 -15   0   2   38.80    3.60
  -1 -15  -2    0.60    2.10
 -15  16  -2   -1.40    2.20
 -15  16  -2    2.20    1.60
  16  -1  -2    2.90    1.80
 -15  16  -2    1.00    1.70
 -16   1   2   -3.30    1.90
   1  15   2    0.40    1.80
   1  15   2   -3.10    1.60
  17  -2  -2    1.10    1.90
 -15  17  -2    1.90    1.80
 -15  17  -2    3.00    1.70
  -2 -15  -2    3.70    2.30
 -15  17  -2   -0.60    2.20
 -17   2   2    1.80    2.20
   2  15   2   -0.20    1.90
   2  15   2   -1.80    1.70
 -15  18  -2   20.00    3.60
 -15  18  -2   20.70    3.00
  18  -3  -2   17.60    2.80
 -15  18  -2   21.30    2.90
  -3 -15  -2   19.80    3.50
 -18   3   2   19.30    3.00
   3  15   2   14.70    2.90
 -15  19  -2   15.60    3.00
 -15  19  -2   18.90    3.20
 -15  19  -2   22.70    3.10
  19  -4  -2   14.10    2.80
  -4 -15  -2   20.00    3.70
   4  15   2   12.80    2.60
   4  15   2   16.00    3.00
 -19   4   2   15.40    3.00
 -15  20  -2    3.20    2.50
 -15  20  -2    5.20    2.10
  20  -5  -2    4.60    2.30
  -5 -15  -2    2.40    2.90
 -15  20  -2    5.90    2.80
   5  15   2   -0.30    2.60
 -20   5   2    6.30    2.80
   5  15   2    3.50    2.30
 -15  21  -2   18.00    2.60
 -15  21  -2   11.00    2.80
  21  -6  -2   13.90    2.60
 -15  21  -2   14.40    3.30
  -6 -15  -2   11.90    3.60
 -21   6   2   16.30    3.20
   6  15   2   11.70    2.70
 -15  22  -2    4.70    3.20
 -15  22  -2    0.30    2.10
 -15  22  -2    0.90    2.90
  22  -7  -2    1.20    2.50
   7  15   2    0.40    2.50
 -22   7   2    6.10    3.10
 -15  23  -2    2.30    3.50
  23  -8  -2   -0.70    2.60
 -15  23  -2   -3.80    2.10
  23  -8  -2    4.40    2.60
 -15  23  -2    1.30    3.30
   8  15   2   -0.90    2.40
 -23   8   2    1.20    3.50
 -15  24  -2    7.90    2.60
  24  -9  -2    4.50    2.90
  24  -9  -2    5.80    2.90
 -15  24  -2    5.00    4.10
 -24   9   2    7.40    3.80
   9  15   2    4.50    2.60
  25 -10  -2    2.10    3.30
  25 -10  -2    4.10    3.30
  10  15   2    4.90    2.90
 -25  10   2    5.70    4.10
 -15  26  -2   16.20    3.20
  26 -11  -2   13.80    3.50
  26 -11  -2   18.00    3.50
 -26  11   2   15.10    4.80
  11  15   2   25.00    4.00
  27 -12  -2    9.80    3.70
  27 -12  -2   16.20    3.70
 -15  27  -2   11.30    3.30
  12  15   2   17.40    3.40
  28 -13  -2    2.90    4.10
  28 -13  -2    1.60    3.50
 -15  28  -2    6.50    3.50
  13  15   2    0.00    3.40
  28 -16  -2    2.00    5.90
  28 -16  -2   -1.20    3.60
 -12  28  -2    1.50    3.70
  16  12   2    3.50    3.20
  27 -16  -2   16.70    3.60
 -11  27  -2   16.80    3.80
  27 -16  -2   21.90    4.50
  16  11   2   15.30    3.40
 -10  26  -2    3.80    3.10
  26 -16  -2    3.30    3.10
  26 -16  -2    1.40    3.70
  16  10   2    2.50    2.70
  -9  25  -2    8.20    3.10
  25 -16  -2    8.90    3.50
  25 -16  -2    2.10    3.60
  16   9   2    3.90    3.70
  16   9   2    6.90    2.50
  24 -16  -2    9.40    3.00
  24 -16  -2   12.00    3.20
  -8  24  -2    9.70    3.00
  16   8   2   10.40    2.50
  16   8   2    7.00    3.20
  23 -16  -2    8.50    2.60
  -7  23  -2   10.00    2.70
  16   7   2    9.60    2.30
  16   7   2    4.60    2.90
  -6  22  -2    8.40    3.70
  22 -16  -2   11.70    2.50
  16   6   2    9.90    2.20
  16   6   2    4.10    2.60
  21 -16  -2    9.10    2.30
  -5  21  -2    6.70    2.50
  16   5   2   10.20    2.40
  16   5   2    4.60    2.50
  -4  20  -2   -1.30    2.00
  20 -16  -2    2.10    1.90
  16   4   2   -3.30    2.00
  16   4   2    1.40    1.80
   4 -20   2    4.90    2.80
  19 -16  -2    3.00    1.90
  -3  19  -2    3.00    1.90
  16   3   2    4.30    1.90
   3 -19   2    1.30    2.40
  16   3   2   -1.30    1.80
  18 -16  -2   39.80    3.60
  -2  18  -2   32.50    3.40
  16   2   2   26.60    3.30
   2 -18   2   37.30    3.50
  16   2   2   40.40    4.90
  -1  17  -2    3.20    1.70
 -16  -1  -2    2.10    1.80
  17 -16  -2    4.10    1.80
  16   1   2    2.30    1.60
   1 -17   2    1.80    1.80
  16   1   2    1.60    1.90
  16 -16  -2   18.90    2.70
 -16   0  -2   15.00    2.40
   0  16  -2   19.40    2.60
   0 -16   2   16.20    2.70
  16   0   2   14.00    2.30
 -16  16   2   23.00    3.50
  16   0   2   17.10    2.70
 -16   1  -2    3.90    1.60
  15 -16  -2    1.00    1.60
   1  15  -2    4.00    1.70
 -15  16   2    3.60    1.80
  -1 -15   2    4.30    1.70
  16  -1   2   -1.00    1.50
  14 -16  -2    4.40    1.50
 -16   2  -2    3.70    1.60
   2  14  -2    3.50    1.60
 -14  16   2    5.40    1.70
  -2 -14   2    6.30    1.70
  16  -2   2    4.60    1.80
 -16   3  -2    3.30    1.50
  13 -16  -2    2.10    1.50
   3  13  -2    1.80    1.50
  16  -3   2    2.50    1.50
 -13  16   2    2.10    1.60
  -3 -13   2    2.50    1.30
   4  12  -2   11.00    2.10
 -16   4  -2   12.20    1.90
  12 -16  -2   12.30    2.10
  16  -4   2   13.60    2.40
  -4 -12   2    9.20    1.60
 -12  16   2   10.90    1.80
  11 -16  -2   11.60    2.20
   5  11  -2   10.10    2.00
 -16   5  -2   15.80    2.40
  16  -5   2   12.70    2.40
  -5 -11   2   11.60    2.10
 -11  16   2   13.30    2.40
   6  10  -2    8.90    1.60
  10 -16  -2   11.60    2.00
 -16   6  -2    8.00    1.80
  -6 -10   2    9.50    1.70
 -10  16   2    9.10    1.50
  16  -6   2   10.80    1.90
   9 -16  -2    0.50    1.30
 -16   7  -2    2.90    1.60
   7   9  -2    0.40    1.30
  -9  16   2   -2.20    1.10
  -7  -9   2   -2.20    1.30
  16  -7   2    3.90    1.80
   8 -16  -2    0.90    1.20
   8   8  -2    0.10    1.20
 -16   8  -2    2.10    1.50
  16  -8   2    0.50    1.70
  -8  -8   2    1.30    1.30
  -8  16   2   -0.60    1.20
   9   7  -2   20.40    2.20
   7 -16  -2   21.10    2.30
 -16   9  -2   26.60    2.60
  -7  16   2   20.10    2.30
  16  -9   2   21.80    2.90
  -9  -7   2   16.10    2.10
   6 -16  -2   12.60    2.10
 -16  10  -2    9.30    1.80
  10   6  -2   12.00    1.90
 -10  -6   2    9.40    1.80
  16 -10   2    9.20    2.10
  -6  16   2    9.30    1.70
   5 -16  -2    2.40    1.20
  11   5  -2    1.50    1.30
   5 -16  -2   -0.70    1.40
 -16  11  -2   -0.60    1.50
  16 -11   2   -0.40    1.60
  -5  16   2    0.10    1.40
 -11  -5   2   -2.20    1.30
  -5  16   2    1.30    1.50
 -16  12  -2    5.10    1.80
  12   4  -2    4.30    1.50
   4 -16  -2    3.10    1.80
   4 -16  -2    2.30    1.40
  -4  16   2    3.20    1.60
  -4  16   2    0.60    1.40
  16 -12   2    4.30    2.00
 -12  -4   2    2.60    1.60
  13   3  -2    3.90    1.60
   3 -16  -2    5.40    1.80
 -16  13  -2    6.10    1.90
   3 -16  -2    4.30    1.50
  -3  16   2    4.70    1.50
 -13  -3   2    1.10    1.50
  -3  16   2    2.60    1.70
  16 -13   2    6.50    2.10
  14   2  -2    0.50    1.50
   2 -16  -2    1.60    1.90
 -16  14  -2   -0.10    2.10
 -14  -2   2    0.10    1.60
  -2  16   2   -1.40    1.60
  16 -14   2    2.10    2.20
  -2  16   2   -1.30    1.50
  15   1  -2   12.10    2.20
 -16  15  -2   11.70    2.20
   1 -16  -2   13.40    2.40
 -16  15  -2   16.20    2.60
 -16  15  -2   13.80    2.20
  -1  16   2    9.70    1.80
  -1  16   2    8.20    2.00
 -15  -1   2    7.90    2.00
 -16  16  -2   18.50    2.70
 -16  16  -2   18.90    3.30
 -16  16  -2   22.30    3.60
  16   0  -2   18.20    2.60
   0 -16  -2   19.10    3.20
   0  16   2   11.60    2.20
 -16   0   2   13.40    2.40
   0  16   2   16.10    2.40
 -16  17  -2   40.60    3.50
  -1 -16  -2   32.20    4.00
 -16  17  -2   37.60    4.10
 -16  17  -2   36.40    3.30
  17  -1  -2   37.60    3.50
   1  16   2   31.30    3.40
 -17   1   2   28.80    3.70
 -16  18  -2   58.59    4.20
  -2 -16  -2   53.39    4.90
 -16  18  -2   56.09    5.00
  18  -2  -2   54.19    4.40
 -16  18  -2   59.19    4.50
   2  16   2   54.39    4.40
 -18   2   2   46.70    4.70
   2  16   2   43.00    4.30
  19  -3  -2    3.30    2.20
 -16  19  -2    3.90    2.70
 -16  19  -2    6.70    2.10
 -16  19  -2    3.70    2.00
  -3 -16  -2    4.50    2.90
 -19   3   2    8.40    2.80
   3  16   2    1.50    3.00
   3  16   2    5.40    2.20
  -4 -16  -2    1.10    2.90
 -16  20  -2    2.50    2.10
 -16  20  -2   -1.20    2.30
  20  -4  -2   -0.80    2.20
 -16  20  -2    0.80    2.90
 -20   4   2    0.30    2.80
   4  16   2   -0.10    2.10
  -5 -16  -2   12.70    3.60
 -16  21  -2   12.10    2.70
 -16  21  -2   13.80    2.60
  21  -5  -2   14.40    2.70
 -16  21  -2   12.10    3.20
   5  16   2   11.30    2.70
 -21   5   2   15.60    3.40
 -16  22  -2   -0.30    2.80
 -16  22  -2    0.50    2.20
 -16  22  -2    0.30    3.20
  22  -6  -2   -1.30    2.40
   6  16   2   -0.60    3.00
 -22   6   2    4.00    3.30
 -16  23  -2    9.70    3.70
  23  -7  -2   10.60    2.80
 -16  23  -2   12.30    3.50
  23  -7  -2   12.00    3.10
 -16  23  -2    8.20    2.50
   7  16   2    9.00    2.90
 -23   7   2   12.80    3.60
  24  -8  -2    0.40    3.00
 -16  24  -2   -2.90    3.60
 -16  24  -2   -0.30    2.40
  24  -8  -2    3.10    2.90
 -16  24  -2   -0.50    4.10
 -24   8   2    7.10    4.00
   8  16   2    1.90    2.80
  25  -9  -2    5.40    3.20
   9  16   2    4.20    2.90
 -25   9   2    7.00    4.30
  26 -10  -2    6.40    3.50
 -16  26  -2    2.90    2.80
  26 -10  -2    6.10    3.30
 -26  10   2   10.30    5.80
  10  16   2    7.90    3.20
  27 -11  -2   -2.70    3.20
  27 -11  -2    0.20    5.60
 -16  27  -2    2.30    3.00
  11  16   2    6.80    3.20
 -16  28  -2    3.90    3.30
  28 -12  -2    2.10    3.90
  28 -12  -2    3.40    4.00
  12  16   2    3.00    3.40
  28 -17  -2    4.00    3.80
 -11  28  -2    2.10    3.70
  17  11   2    9.40    3.10
  27 -17  -2   -1.80    3.50
  27 -17  -2    0.90    4.60
 -10  27  -2    0.10    3.30
  17  10   2    6.70    2.70
  26 -17  -2   -5.00    3.70
  -9  26  -2    4.00    3.20
  26 -17  -2    0.00    3.10
  17   9   2    5.40    2.60
  25 -17  -2   -1.70    3.30
  -8  25  -2    1.30    2.80
  25 -17  -2    2.10    2.80
  17   8   2    0.90    3.60
  17   8   2    3.70    2.40
  -7  24  -2   -0.30    2.70
  17   7   2    3.90    2.30
  17   7   2    1.70    3.10
  23 -17  -2    3.00    2.40
  -6  23  -2   -0.10    2.60
  17   6   2    1.00    2.80
  17   6   2    4.00    2.20
  -5  22  -2    0.30    2.50
  22 -17  -2    1.80    2.30
  17   5   2    1.60    2.00
  17   5   2    2.30    2.50
  21 -17  -2    3.10    2.20
  -4  21  -2    2.70    2.50
  17   4   2    0.50    2.30
  17   4   2    3.50    2.00
  20 -17  -2    4.40    2.10
  17   3   2    4.40    2.00
  17   3   2    0.70    2.00
  19 -17  -2   -0.50    1.80
  -2  19  -2    0.30    1.90
  17   2   2   -2.70    1.70
  17   2   2    3.60    2.10
  18 -17  -2   25.10    3.20
  -1  18  -2   24.30    3.10
  17   1   2   16.90    3.30
   1 -18   2   24.80    3.20
  17   1   2   25.60    3.40
   0  17  -2   79.19    5.90
  17 -17  -2   94.49    6.10
 -17  17   2   97.29    6.80
  17   0   2   87.29    6.20
   0 -17   2   91.39    6.20
   1  16  -2   34.10    3.40
  16 -17  -2   43.20    3.50
 -16  17   2   47.50    4.30
  -1 -16   2   41.80    3.70
  17  -1   2   33.50    3.50
 -17   2  -2    0.80    1.60
  15 -17  -2    4.90    1.60
   2  15  -2    3.50    1.70
 -15  17   2    4.30    1.90
  -2 -15   2    1.10    1.90
  17  -2   2    1.50    1.90
   3  14  -2    6.20    1.80
  14 -17  -2    7.10    1.70
 -17   3  -2    6.30    1.80
  17  -3   2    8.30    2.00
  -3 -14   2    9.60    1.80
 -14  17   2    6.30    1.90
  13 -17  -2    2.00    1.50
 -17   4  -2    4.10    1.80
   4  13  -2    3.90    1.70
  -4 -13   2    0.50    1.40
 -13  17   2    1.90    1.80
  17  -4   2    1.80    1.90
   5  12  -2    0.80    1.50
  12 -17  -2    1.60    1.40
 -17   5  -2    3.20    1.80
  -5 -12   2    1.50    1.40
  17  -5   2    4.30    1.80
 -12  17   2    0.40    1.70
  11 -17  -2    5.90    1.60
   6  11  -2    9.90    1.70
 -17   6  -2    9.80    2.10
  17  -6   2    9.40    1.90
  -6 -11   2    6.90    1.80
 -11  17   2    7.10    1.70
  10 -17  -2   12.90    2.10
   7  10  -2    9.60    1.80
 -17   7  -2   11.80    2.00
 -10  17   2   11.00    1.70
  17  -7   2   14.60    2.60
  -7 -10   2   12.10    1.90
 -17   8  -2   18.10    2.60
   8   9  -2   10.00    2.00
   9 -17  -2   10.60    2.20
  17  -8   2   15.00    2.40
  -8  -9   2   13.60    2.10
  -9  17   2   14.20    2.10
 -17   9  -2    3.60    1.70
   9   8  -2    0.30    1.30
   8 -17  -2    1.00    1.40
  17  -9   2    2.10    1.90
  -9  -8   2    2.00    1.40
  -8  17   2    1.10    1.20
  10   7  -2   14.90    2.10
 -17  10  -2   13.90    2.50
   7 -17  -2   12.60    2.20
 -10  -7   2   10.30    1.60
  17 -10   2   13.20    2.30
  -7  17   2   10.40    1.80
 -17  11  -2   -0.20    1.70
   6 -17  -2    3.70    1.60
  11   6  -2    1.30    1.50
   6 -17  -2    1.70    1.40
  17 -11   2   -1.30    1.90
  -6  17   2    0.30    1.50
   5 -17  -2    2.20    1.70
   5 -17  -2    1.30    1.40
 -17  12  -2    2.50    2.00
  12   5  -2    2.80    1.40
  17 -12   2    3.70    2.10
 -12  -5   2   -2.00    1.50
  -5  17   2    0.70    1.70
  -5  17   2   -2.30    1.50
   4 -17  -2    6.80    1.90
   4 -17  -2    4.40    1.60
  13   4  -2    6.10    1.70
 -17  13  -2    6.80    2.20
  17 -13   2    7.40    2.40
  -4  17   2    5.00    1.80
  -4  17   2    3.50    1.60
 -13  -4   2    3.70    1.70
   3 -17  -2    3.00    2.00
 -17  14  -2    1.40    2.20
  14   3  -2    0.40    1.50
  -3  17   2   -0.30    1.70
  17 -14   2    4.00    2.20
 -14  -3   2   -3.10    1.70
  -3  17   2    1.50    1.50
 -17  15  -2   31.90    3.60
   2 -17  -2   29.60    3.20
  15   2  -2   20.00    2.80
  -2  17   2   21.70    2.90
 -15  -2   2   18.50    2.90
  17 -15   2   31.70    3.90
  -2  17   2   20.10    2.90
 -17  16  -2    3.40    1.70
 -17  16  -2    2.80    1.90
 -17  16  -2    3.10    2.50
  16   1  -2    2.00    1.90
   1 -17  -2    0.70    2.20
 -16  -1   2   -0.70    1.90
  -1  17   2    1.50    2.00
  -1  17   2   -1.10    1.70
 -17  17  -2   82.59    5.50
  17   0  -2   84.39    5.70
 -17  17  -2   85.39    6.10
   0 -17  -2   82.29    6.00
 -17  17  -2   86.79    5.80
   0  17   2   79.49    5.70
 -17   0   2   69.59    5.80
   0  17   2   78.19    5.90
  -1 -17  -2   32.20    4.20
  18  -1  -2   30.50    3.50
 -17  18  -2   37.40    3.50
 -17  18  -2   34.80    3.50
 -17  18  -2   32.30    4.20
 -18   1   2   30.90    4.00
   1  17   2   28.20    3.50
  -2 -17  -2    1.10    2.80
  19  -2  -2   -4.90    2.00
 -17  19  -2    3.10    2.10
 -17  19  -2    1.60    2.10
 -17  19  -2    1.80    2.70
   2  17   2   -1.30    2.10
 -19   2   2   -1.60    2.70
 -17  20  -2    6.50    2.50
  20  -3  -2    7.70    2.40
 -17  20  -2    8.60    2.30
 -17  20  -2    6.50    3.10
  -3 -17  -2    8.20    3.30
   3  17   2    9.40    2.40
 -20   3   2   10.10    3.20
 -17  21  -2    4.80    2.30
 -17  21  -2    3.30    2.60
 -17  21  -2    2.10    3.10
  -4 -17  -2    4.00    3.60
  21  -4  -2    1.90    2.50
   4  17   2    4.30    2.40
 -21   4   2    4.90    3.30
 -17  22  -2    2.50    2.40
 -17  22  -2   -0.70    2.70
  22  -5  -2    5.10    2.70
 -17  22  -2    3.10    3.50
 -22   5   2    2.90    3.40
 -17  23  -2    0.40    3.60
 -17  23  -2    1.90    3.20
 -17  23  -2    0.70    2.40
  23  -6  -2    1.10    2.70
   6  17   2    1.10    2.60
 -23   6   2    1.30    3.80
 -17  24  -2    0.90    4.90
 -17  24  -2    3.10    2.50
 -17  24  -2    6.20    4.00
  24  -7  -2    4.60    3.20
  24  -7  -2    5.70    3.20
   7  17   2    3.20    2.90
  25  -8  -2    0.30    3.60
   8  17   2    0.50    2.90
  26  -9  -2    6.60    3.70
  26  -9  -2    2.00    3.30
 -17  26  -2    0.00    2.80
   9  17   2    6.70    3.00
 -17  27  -2   -0.50    3.00
  27 -10  -2   -3.00    3.50
  27 -10  -2   -1.10    3.90
  10  17   2    7.80    3.30
  28 -11  -2   -0.20    4.10
  28 -11  -2   -0.40    3.70
 -17  28  -2   -0.10    3.30
  11  17   2    9.70    3.50
  28 -18  -2    0.90    3.80
 -10  28  -2    0.10    3.50
  18  10   2    3.80    2.90
  27 -18  -2    3.80    3.50
  -9  27  -2    2.80    3.40
  18   9   2    4.00    2.80
  26 -18  -2   18.30    4.80
  -8  26  -2   10.30    3.30
  26 -18  -2   11.50    3.50
  18   8   2    8.90    2.80
  18   8   2    8.40    4.10
  -7  25  -2    4.30    2.90
  25 -18  -2    6.30    3.00
  18   7   2    1.70    3.50
  18   7   2    6.30    2.60
  -6  24  -2   16.80    3.30
  24 -18  -2   14.70    3.10
  18   6   2   12.00    3.30
  18   6   2   17.50    3.00
  -5  23  -2    1.30    2.60
  18   5   2    3.50    2.80
  18   5   2    6.40    2.30
  -4  22  -2   25.60    3.60
  22 -18  -2   17.90    3.60
  18   4   2   14.90    2.80
  18   4   2   16.70    3.10
  21 -18  -2    8.70    2.30
  -3  21  -2    9.90    2.50
  18   3   2   13.50    2.40
  18   3   2    6.10    2.40
  20 -18  -2   10.80    2.40
  -2  20  -2   10.40    2.40
  18   2   2    7.50    2.20
  18   2   2   15.30    2.90
  19 -18  -2   20.40    3.10
  -1  19  -2   19.40    3.50
  18   1   2   15.30    2.90
  18   1   2   19.60    3.10
   0  18  -2    0.70    2.20
  18 -18  -2    1.90    1.80
  18   0   2   -0.20    1.80
  18   0   2    1.00    1.80
  17 -18  -2   35.40    3.40
   1  17  -2   35.50    3.30
  18  -1   2   27.50    4.20
 -17  18   2   37.20    4.70
  16 -18  -2   64.39    4.60
   2  16  -2   60.19    4.50
  -2 -16   2   56.29    4.70
  18  -2   2   62.29    4.80
 -16  18   2   64.99    5.40
 -18   3  -2   20.70    2.80
   3  15  -2   22.80    2.70
  15 -18  -2   21.00    2.80
 -15  18   2   20.40    3.40
  18  -3   2   25.20    3.00
  -3 -15   2   23.70    3.00
   4  14  -2   13.60    2.40
  14 -18  -2   12.20    2.50
 -18   4  -2   12.60    2.30
  -4 -14   2   12.60    2.40
 -14  18   2   12.20    2.10
  18  -4   2   12.50    2.50
 -18   5  -2   10.00    2.10
  13 -18  -2    7.00    1.70
   5  13  -2    7.50    1.80
 -13  18   2    6.60    2.00
  18  -5   2    8.80    2.20
  -5 -13   2    8.70    1.70
 -18   6  -2    1.60    1.90
  12 -18  -2   -1.30    1.50
   6  12  -2   -0.30    1.50
  -6 -12   2    1.20    1.60
  18  -6   2    0.40    1.80
 -12  18   2   -0.40    1.70
 -18   7  -2   -0.10    1.90
   7  11  -2   -2.90    1.30
  11 -18  -2    1.30    1.40
  18  -7   2   -0.10    1.90
 -11  18   2   -2.20    1.60
  -7 -11   2    0.20    1.60
   8  10  -2   -2.00    1.40
  10 -18  -2   -1.50    1.40
 -18   8  -2   -1.50    1.70
 -10  18   2   -2.20    1.40
  -8 -10   2   -0.40    1.70
  18  -8   2    1.70    1.90
   9   9  -2   17.90    2.30
   9 -18  -2   13.40    2.40
 -18   9  -2   25.20    2.90
  -9  -9   2   16.60    2.40
  -9  18   2   15.70    2.30
  18  -9   2   21.70    3.20
   8 -18  -2    2.80    1.50
 -18  10  -2    4.50    2.00
  10   8  -2    3.50    1.50
  -8  18   2    0.40    1.30
 -10  -8   2   -0.10    1.50
  18 -10   2    2.70    2.10
  11   7  -2   21.40    2.40
 -18  11  -2   22.40    3.10
   7 -18  -2   21.60    2.50
 -11  -7   2   16.30    2.30
  18 -11   2   23.00    3.40
  -7  18   2   15.90    2.70
   6 -18  -2    5.60    1.80
  12   6  -2    2.30    1.50
   6 -18  -2    2.20    1.50
 -18  12  -2    3.60    2.20
  18 -12   2    2.20    2.20
  -6  18   2    1.30    1.60
 -12  -6   2    0.80    1.60
  -6  18   2    1.50    1.50
  13   5  -2    6.60    1.80
   5 -18  -2    8.70    1.70
 -18  13  -2    4.40    2.50
   5 -18  -2   10.30    2.10
  18 -13   2   12.10    2.60
 -13  -5   2    6.90    1.90
  -5  18   2    8.10    2.00
  -5  18   2    5.50    1.80
   4 -18  -2    5.70    2.10
  14   4  -2    3.60    1.70
 -18  14  -2    8.40    2.40
  -4  18   2    4.40    2.00
  -4  18   2    2.90    1.70
  18 -14   2    5.90    2.40
 -14  -4   2    0.80    1.80
 -18  15  -2    8.80    2.60
   3 -18  -2    4.60    2.20
  15   3  -2    3.60    1.90
  18 -15   2   10.00    2.50
  -3  18   2    3.60    2.10
  -3  18   2    3.80    1.80
 -15  -3   2    1.40    1.90
 -18  16  -2   40.80    4.10
  16   2  -2   35.90    3.30
   2 -18  -2   33.20    3.80
 -16  -2   2   27.30    3.40
  -2  18   2   31.50    3.50
  17   1  -2   28.00    3.10
   1 -18  -2   23.30    3.80
 -18  17  -2   27.30    4.20
 -18  17  -2   26.60    3.20
 -17  -1   2   20.70    3.10
  -1  18   2   18.90    3.20
 -18  18  -2   -0.60    2.80
   0 -18  -2    2.10    2.60
 -18  18  -2    1.20    2.10
  18   0  -2    1.80    2.10
 -18  18  -2    1.10    2.00
 -18   0   2   -1.20    2.50
   0  18   2   -1.40    2.10
 -18  19  -2    5.40    3.00
  -1 -18  -2    2.10    3.00
  19  -1  -2    0.30    2.30
 -18  19  -2    2.70    2.20
 -18  19  -2    5.40    2.10
   1  18   2    1.00    2.20
 -19   1   2   -1.80    2.80
 -18  20  -2    6.90    2.40
  20  -2  -2    0.70    2.30
 -18  20  -2    6.50    3.10
  -2 -18  -2    1.10    3.40
 -18  20  -2    4.40    2.40
   2  18   2    7.80    2.50
 -20   2   2    1.30    3.20
 -18  21  -2    6.00    2.30
  -3 -18  -2    3.80    3.60
  21  -3  -2    2.20    2.50
 -18  21  -2   -0.70    2.50
 -18  21  -2    0.10    3.20
   3  18   2    4.00    2.40
 -21   3   2    0.90    5.40
 -18  22  -2   -0.60    2.40
  22  -4  -2    2.70    3.90
 -18  22  -2   -1.80    3.70
 -18  22  -2   -1.20    2.90
 -18  23  -2    1.40    3.30
  23  -5  -2    5.00    3.30
 -18  23  -2    1.80    3.90
 -18  23  -2    3.40    2.60
   5  18   2    3.60    2.70
 -18  24  -2    0.40    2.70
  24  -6  -2   -0.40    3.00
 -18  24  -2   -1.70    3.80
 -18  24  -2   -0.30    4.20
   6  18   2   -0.30    2.90
  25  -7  -2    5.00    3.30
  25  -7  -2    3.40    3.20
   7  18   2    1.40    3.20
 -18  26  -2   -1.70    2.70
  26  -8  -2   -0.90    3.30
  26  -8  -2    3.00    3.50
   8  18   2    5.40    3.20
 -18  27  -2   -0.50    3.20
  27  -9  -2    1.30    3.60
  27  -9  -2    3.10    3.80
   9  18   2    0.90    3.20
  28 -10  -2   -1.60    3.90
  28 -10  -2   -2.20    4.20
 -18  28  -2    3.30    3.40
  10  18   2   11.00    3.60
  -8  27  -2   -4.50    3.20
  27 -19  -2    2.10    3.40
  19   8   2    6.70    2.80
  26 -19  -2   -1.90    3.20
  -7  26  -2    0.10    3.10
  19   7   2    3.90    2.60
  25 -19  -2    1.20    3.00
  -6  25  -2   -2.60    2.70
  19   6   2    1.50    2.50
  19   6   2    1.70    3.30
  24 -19  -2   -0.70    2.80
  -5  24  -2    0.00    2.50
  19   5   2    4.10    2.30
  19   5   2    1.50    3.10
  -4  23  -2   -2.40    2.30
  23 -19  -2   -0.80    2.60
  19   4   2    1.00    2.70
  19   4   2    2.10    2.30
  -3  22  -2    1.40    2.50
  22 -19  -2    3.90    3.10
  19   3   2    1.00    2.50
  19   3   2    8.10    2.40
  -2  21  -2    2.70    2.30
  19   2   2    2.20    2.20
  19   2   2   -3.60    2.10
  20 -19  -2    3.00    2.10
  -1  20  -2    3.30    2.20
  19   1   2    0.60    1.90
  19   1   2    4.40    2.20
   0  19  -2    6.10    2.20
  19 -19  -2    5.80    2.10
  19   0   2    1.00    2.10
  19   0   2    6.50    2.10
  18 -19  -2    5.00    2.00
   1  18  -2    5.10    2.10
 -18  19   2    6.20    2.90
  19  -1   2    3.10    2.00
   2  17  -2    0.20    2.00
  17 -19  -2    0.50    1.80
 -17  19   2    5.70    2.80
  19  -2   2    0.40    2.00
  16 -19  -2    7.00    1.90
 -16  19   2    2.90    2.50
  19  -3   2    6.50    2.70
   4  15  -2   15.40    3.00
  15 -19  -2   18.30    2.70
  19  -4   2   16.80    2.80
 -15  19   2   12.20    2.50
   5  14  -2   20.30    2.60
  14 -19  -2   25.40    2.80
 -19   5  -2   26.80    3.10
  19  -5   2   29.40    3.10
 -14  19   2   17.50    3.20
   6  13  -2   11.00    2.00
 -19   6  -2   16.10    2.80
  13 -19  -2   13.50    2.40
  -6 -13   2   20.90    3.00
  19  -6   2   16.70    2.90
 -13  19   2   12.60    2.30
   7  12  -2    7.80    1.80
  12 -19  -2   12.50    2.30
 -19   7  -2   15.10    2.80
  -7 -12   2   13.30    2.50
 -12  19   2    7.40    2.00
  19  -7   2   14.20    2.60
  11 -19  -2    5.00    1.60
 -19   8  -2    7.20    2.30
   8  11  -2    5.10    1.60
  19  -8   2    9.60    2.30
 -11  19   2    1.70    1.90
  -8 -11   2    4.50    1.90
   9  10  -2    0.80    1.50
  10 -19  -2    1.20    1.50
 -19   9  -2    0.30    2.00
  -9 -10   2   -1.20    1.70
  19  -9   2    1.40    2.30
 -10  19   2    1.80    1.60
   9 -19  -2    1.50    1.50
 -19  10  -2    3.50    2.20
  10   9  -2    0.90    1.50
  19 -10   2    2.20    2.20
 -10  -9   2    2.10    1.70
  -9  19   2    0.40    1.40
  11   8  -2    6.70    1.70
 -19  11  -2    9.10    2.60
   8 -19  -2   10.40    1.90
   8 -19  -2    6.60    1.70
  -8  19   2    4.00    1.60
 -11  -8   2    3.40    1.60
  19 -11   2    9.90    2.50
   7 -19  -2    5.80    1.60
  12   7  -2    4.60    1.60
 -19  12  -2    1.80    2.40
   7 -19  -2    4.90    1.90
  19 -12   2    3.30    2.30
  -7  19   2    1.70    1.70
  -7  19   2    4.20    1.80
 -12  -7   2    2.00    1.60
   6 -19  -2    0.00    2.20
  13   6  -2    1.50    1.60
   6 -19  -2   -0.30    1.50
 -19  13  -2    1.00    2.60
  19 -13   2    2.80    2.40
 -13  -6   2   -1.90    1.70
   5 -19  -2   10.20    2.10
 -19  14  -2   13.00    2.90
  14   5  -2    9.40    2.00
   5 -19  -2   10.70    2.40
  -5  19   2    7.90    2.10
  19 -14   2   12.30    2.80
 -14  -5   2    8.50    2.30
   4 -19  -2    4.30    2.40
 -19  15  -2    5.20    2.70
  15   4  -2    0.00    1.60
  -4  19   2    5.50    2.20
  19 -15   2   10.30    2.80
 -19  16  -2    4.60    2.70
   3 -19  -2    2.70    2.50
  16   3  -2    3.00    1.90
 -16  -3   2    2.30    2.20
  -3  19   2    2.40    2.20
  19 -16   2    4.90    2.80
   2 -19  -2    0.10    2.60
 -19  17  -2    2.00    2.80
  17   2  -2    0.60    2.00
 -19  17  -2   -1.50    2.00
  -2  19   2   -4.20    2.10
 -17  -2   2   -1.60    3.80
   1 -19  -2   23.40    3.40
 -19  18  -2   26.90    4.20
  18   1  -2   23.00    3.80
 -19  18  -2   25.80    3.40
 -19  18  -2   23.40    3.50
  -1  19   2   19.30    3.00
 -19  19  -2    7.00    2.30
 -19  19  -2    6.40    3.30
   0 -19  -2    3.50    3.00
 -19  19  -2    4.80    2.40
 -19  20  -2   67.69    5.00
  20  -1  -2   50.39    5.40
  -1 -19  -2   57.29    5.90
 -19  20  -2   69.49    5.20
 -19  20  -2   66.39    6.20
   1  19   2   53.59    5.10
  -2 -19  -2    3.50    3.60
  21  -2  -2    2.90    2.60
 -19  21  -2    5.10    3.40
 -19  21  -2    3.80    2.80
 -19  21  -2    6.90    2.60
   2  19   2    6.70    2.50
 -19  22  -2   15.90    2.90
 -19  22  -2   13.60    3.20
 -19  22  -2   16.80    3.90
  22  -3  -2   15.50    3.20
   3  19   2   16.30    3.90
 -19  23  -2    8.90    4.10
 -19  23  -2    5.20    3.50
 -19  23  -2    7.70    2.80
  23  -4  -2   10.00    3.00
   4  19   2   12.20    3.10
 -19  24  -2    0.60    2.70
 -19  24  -2    0.40    4.90
  24  -5  -2   -1.40    3.00
 -19  24  -2    0.50    3.60
   5  19   2    0.60    2.80
 -19  25  -2   -5.20    3.20
  25  -6  -2   -1.40    3.40
 -19  25  -2    2.30    4.20
   6  19   2   -0.20    3.00
  26  -7  -2    3.90    3.50
 -19  26  -2   -3.60    3.00
  26  -7  -2    2.60    3.80
   7  19   2    5.60    3.40
  27  -8  -2    5.40    4.10
 -19  27  -2   -2.70    3.20
  27  -8  -2    3.50    3.70
   8  19   2    0.90    3.30
  -7  27  -2    2.50    3.40
  27 -20  -2    5.90    3.70
  20   7   2    7.90    3.00
  -6  26  -2    8.00    3.20
  26 -20  -2    9.20    3.40
  20   6   2    8.40    2.70
  -5  25  -2    3.20    3.10
  25 -20  -2    2.80    3.00
  20   5   2    9.80    2.60
  24 -20  -2    2.20    2.70
  -4  24  -2    4.20    2.80
  20   4   2    9.30    2.60
  20   4   2    3.80    3.20
  23 -20  -2    4.00    2.50
  -3  23  -2   -0.40    2.80
  20   3   2   -2.10    2.70
  20   3   2    4.40    2.40
  22 -20  -2   -1.40    2.30
  -2  22  -2    2.60    2.70
  20   2   2    3.20    2.60
  20   2   2   -3.00    2.40
  21 -20  -2   12.90    2.60
  -1  21  -2   14.30    2.80
  20   1   2   18.40    3.20
   0  20  -2   11.90    2.50
  20 -20  -2   10.80    2.50
  20   0   2    7.90    2.10
  20   0   2   13.30    2.50
   1  19  -2   55.99    4.60
  20  -1   2   62.99    4.80
   2  18  -2    5.60    2.10
  20  -2   2    4.60    2.30
  17 -20  -2    8.00    2.40
   3  17  -2    7.50    2.10
  20  -3   2   10.60    2.30
   4  16  -2    1.20    1.80
  16 -20  -2    0.50    1.80
  20  -4   2   -0.10    2.10
  15 -20  -2    3.70    1.80
   5  15  -2    3.20    1.70
  20  -5   2    7.90    2.60
   6  14  -2   -3.50    1.50
  14 -20  -2    0.60    1.60
  20  -6   2    1.00    2.20
   7  13  -2   -0.20    1.60
 -20   7  -2    2.70    2.20
  13 -20  -2    0.80    1.70
  20  -7   2    1.00    2.20
   8  12  -2    1.60    1.80
  12 -20  -2    1.90    1.60
 -20   8  -2    4.90    2.50
  20  -8   2    6.20    2.30
   9  11  -2    1.50    2.10
 -20   9  -2    1.90    2.40
  11 -20  -2    2.50    1.70
  20  -9   2    4.20    2.40
 -20  10  -2    3.20    2.40
  10 -20  -2    4.60    1.90
  20 -10   2    6.20    2.60
 -20  11  -2   35.60    4.30
  20 -11   2   39.00    4.30
   8 -20  -2    4.20    2.40
 -20  12  -2    9.40    2.80
   8 -20  -2    8.50    2.20
  20 -12   2    3.80    2.60
 -20  13  -2   21.10    3.30
   7 -20  -2   16.10    2.60
  13   7  -2   14.10    3.40
  20 -13   2   22.50    3.70
  -7  20   2   16.00    2.70
   6 -20  -2    2.70    2.50
  14   6  -2   -0.30    2.30
 -20  14  -2    1.10    2.90
   6 -20  -2    2.60    1.60
  20 -14   2    2.20    2.70
  -6  20   2    0.50    2.00
 -20  15  -2    4.30    2.90
  15   5  -2    4.00    2.00
   5 -20  -2    2.50    2.50
  20 -15   2    5.20    2.80
  -5  20   2    3.90    2.10
  16   4  -2    1.60    1.90
   4 -20  -2    4.20    2.80
 -20  16  -2    1.40    2.90
  20 -16   2    0.10    2.80
  -4  20   2    0.70    2.20
   3 -20  -2    7.30    3.00
  17   3  -2    4.00    2.10
 -20  17  -2    5.70    3.00
  -3  20   2    6.60    2.40
  18   2  -2   10.20    2.60
 -20  18  -2   15.30    3.30
   2 -20  -2   12.20    3.10
 -20  18  -2   10.80    4.10
 -20  18  -2   10.30    2.50
  -2  20   2   11.40    2.60
   1 -20  -2    1.70    3.20
 -20  19  -2    0.70    3.20
  19   1  -2    1.30    2.30
 -20  19  -2    3.20    2.30
 -20  19  -2    2.40    2.50
  -1  20   2   -0.10    2.50
  20   0  -2    7.40    2.70
 -20  20  -2   15.00    2.70
 -20  20  -2   12.40    3.50
 -20  20  -2   13.70    2.80
   0 -20  -2    9.00    3.80
   0  20   2   11.80    2.90
 -20  21  -2   21.40    4.20
  21  -1  -2   15.80    3.20
  -1 -20  -2   14.10    4.10
 -20  21  -2   19.00    3.60
 -20  21  -2   17.60    3.10
   1  20   2   20.20    3.10
 -20  22  -2    3.80    3.10
  22  -2  -2   -0.60    2.60
 -20  22  -2    1.60    2.60
 -20  22  -2    3.50    4.00
   2  20   2    2.10    3.50
 -20  23  -2    1.40    2.90
 -20  23  -2   -1.40    4.20
 -20  23  -2    2.00    3.50
  23  -3  -2    2.00    2.90
   3  20   2    3.00    2.70
 -20  24  -2    0.10    3.70
  24  -4  -2    4.90    3.10
   4  20   2    1.60    3.00
 -20  25  -2    1.10    4.30
 -20  25  -2    4.30    3.00
  25  -5  -2    2.50    3.40
   5  20   2    5.20    3.30
  26  -6  -2    6.50    3.70
 -20  26  -2   -2.60    3.10
   6  20   2    3.10    3.50
 -20  27  -2   -0.20    3.10
  27  -7  -2    3.20    3.90
  27  -7  -2    2.00    4.10
   7  20   2    6.70    3.90
  27 -21  -2    0.20    3.50
  -6  27  -2    4.00    3.60
  21   6   2    8.60    2.90
  -5  26  -2    1.20    3.40
  26 -21  -2    2.10    3.30
  21   5   2    4.80    2.90
  -4  25  -2    0.40    3.10
  25 -21  -2    2.00    2.90
  21   4   2    4.00    2.80
  -3  24  -2   -0.80    3.00
  24 -21  -2    0.20    2.70
  21   3   2    0.50    2.60
  -2  23  -2    2.10    2.80
  23 -21  -2    4.50    2.60
  21   2   2    7.10    2.70
  21   2   2   -1.30    4.40
  -1  22  -2    0.30    2.50
  22 -21  -2   -1.90    2.40
  21   1   2    2.60    2.30
  21   1   2   -3.30    2.40
   0  21  -2    0.20    2.50
  21 -21  -2   -0.60    2.40
  21   0   2   -0.40    2.20
   1  20  -2   15.60    2.80
  20 -21  -2   20.50    3.50
  21  -1   2   16.30    2.80
   2  19  -2    5.60    2.10
  19 -21  -2    6.00    2.40
  21  -2   2    6.70    2.40
  18 -21  -2    1.80    2.00
   3  18  -2    2.00    2.10
  21  -3   2    5.10    2.10
  17 -21  -2    2.70    2.00
   4  17  -2    3.50    1.90
  21  -4   2    3.00    2.40
   5  16  -2    9.40    2.10
  16 -21  -2   12.40    2.10
  21  -5   2   13.80    2.70
   6  15  -2   10.20    2.10
  15 -21  -2   14.10    2.70
  21  -6   2   18.80    3.20
   7  14  -2   14.30    2.40
  14 -21  -2   13.80    2.70
  21  -7   2   25.00    3.40
   8  13  -2    7.80    1.90
  13 -21  -2    6.10    1.80
   9  12  -2   15.80    2.50
  12 -21  -2   20.40    2.70
  21  -9   2   24.80    3.70
 -21  10  -2   -0.40    3.20
  10  11  -2    2.10    1.70
  11 -21  -2    0.50    1.60
  21 -10   2    5.70    2.90
 -21  11  -2    1.40    2.90
  10 -21  -2    3.80    1.70
  11  10  -2    0.90    1.70
  21 -11   2    3.20    2.70
   9 -21  -2    1.20    2.20
 -21  12  -2    2.70    2.90
  12   9  -2    0.60    1.70
   9 -21  -2    0.30    1.60
  21 -12   2    2.80    2.80
  13   8  -2    3.10    1.70
   8 -21  -2    4.20    1.70
 -21  13  -2    6.30    3.10
  21 -13   2    7.10    2.80
  14   7  -2    0.90    1.80
   7 -21  -2    6.50    2.60
   7 -21  -2    4.30    1.70
 -21  14  -2    5.70    3.10
  -7  21   2    3.30    2.10
  21 -14   2    9.20    2.90
  15   6  -2   -0.50    1.70
 -21  15  -2   -1.70    3.00
   6 -21  -2    3.90    2.80
  21 -15   2   -1.60    2.90
  -6  21   2   -1.70    2.10
 -21  16  -2    6.60    3.20
   5 -21  -2    9.10    3.00
  16   5  -2    6.60    2.10
  21 -16   2   10.70    3.20
  -5  21   2    4.90    2.40
   4 -21  -2    4.30    3.20
 -21  17  -2   -1.70    3.20
  17   4  -2    5.00    2.10
  21 -17   2    0.90    3.20
  -4  21   2    1.10    2.40
 -21  18  -2   10.20    3.50
  18   3  -2   11.10    2.50
   3 -21  -2   12.00    3.50
  -3  21   2    7.60    2.80
  19   2  -2    1.30    2.40
 -21  19  -2    3.30    3.30
 -21  19  -2   -0.40    2.30
   2 -21  -2    2.80    3.50
  -2  21   2    0.30    2.60
  20   1  -2   12.10    2.90
 -21  20  -2   14.20    2.80
 -21  20  -2   14.80    4.00
 -21  20  -2   11.00    3.00
   1 -21  -2   11.20    3.90
  -1  21   2    9.60    2.90
   0 -21  -2    3.90    4.00
 -21  21  -2    3.30    2.60
  21   0  -2   -0.90    2.70
 -21  21  -2    3.00    3.00
 -21  21  -2    1.70    3.80
   0  21   2    2.40    2.80
  22  -1  -2   51.19    5.00
 -21  22  -2   60.79    5.90
 -21  22  -2   55.49    6.50
 -21  22  -2   63.69    5.20
   1  21   2   46.60    5.40
 -21  23  -2    5.50    3.30
  23  -2  -2    4.10    3.10
 -21  23  -2    7.00    3.70
   2  21   2    7.40    3.00
  24  -3  -2   14.90    3.80
 -21  24  -2   11.70    5.20
 -21  24  -2   15.00    4.10
   3  21   2   10.60    3.30
 -21  25  -2   -1.50    3.30
  25  -4  -2   -3.30    3.50
   4  21   2   -1.50    3.20
  26  -5  -2   -2.80    3.90
 -21  26  -2   -1.60    3.20
   5  21   2    1.80    3.60
  27  -6  -2    0.10    4.30
   6  21   2    2.20    4.10
  26 -22  -2   -3.70    3.30
  -4  26  -2   -3.90    3.20
  22   4   2    3.30    3.10
  25 -22  -2   -1.70    3.00
  -3  25  -2    0.20    3.10
  22   3   2    3.30    2.70
  -2  24  -2   -0.60    2.80
  24 -22  -2   -2.80    2.90
  22   2   2    6.30    2.70
  -1  23  -2    9.30    2.90
  23 -22  -2   11.40    3.00
  22   1   2    8.90    2.70
   0  22  -2    2.70    2.50
  22 -22  -2    4.00    2.70
  22   0   2    0.50    2.40
  21 -22  -2   56.49    5.00
   1  21  -2   47.60    4.70
  22  -1   2   55.99    4.90
   2  20  -2   -1.20    2.10
  20 -22  -2    3.10    2.40
  22  -2   2    6.10    2.60
  19 -22  -2   11.30    2.50
   3  19  -2   10.10    2.50
  22  -3   2   18.70    3.40
   4  18  -2   -2.00    2.00
  18 -22  -2    3.70    2.00
  22  -4   2   -1.00    2.60
   5  17  -2    2.20    2.00
  17 -22  -2    1.30    2.00
  22  -5   2    3.50    2.40
  16 -22  -2   -2.00    1.80
   6  16  -2    0.40    1.90
  22  -6   2    3.00    2.60
   7  15  -2    1.40    1.70
  15 -22  -2   -0.20    1.80
  22  -7   2    0.30    2.50
   8  14  -2    3.90    1.90
  14 -22  -2    5.30    1.90
  22  -8   2    7.40    2.90
  13 -22  -2   -0.20    1.60
   9  13  -2   -0.10    1.60
  22  -9   2    6.60    2.90
  10  12  -2    7.20    2.00
  12 -22  -2    9.00    1.90
  22 -10   2   14.80    3.40
  11 -22  -2    1.70    1.70
  11  11  -2    0.10    1.60
  12  10  -2    3.70    1.90
  10 -22  -2    5.30    1.90
  22 -12   2    4.20    3.30
   9 -22  -2   10.40    3.50
  13   9  -2    7.10    2.00
   9 -22  -2    7.70    1.90
 -22  13  -2    7.30    4.40
  22 -13   2    9.30    3.00
   8 -22  -2    5.20    2.80
 -22  14  -2    3.30    3.70
  22 -14   2    4.30    2.90
  -8  22   2    5.40    2.30
  15   7  -2   -0.10    1.80
   7 -22  -2    2.10    2.90
 -22  15  -2    0.70    3.70
  22 -15   2    2.80    3.00
  16   6  -2    7.40    2.20
   6 -22  -2   13.90    3.30
 -22  16  -2    6.20    3.50
  22 -16   2   10.00    3.40
  -6  22   2    8.60    2.60
   5 -22  -2    3.30    3.30
 -22  17  -2   -0.30    3.60
  17   5  -2    0.20    2.20
  -5  22   2   -0.50    2.60
  22 -17   2    1.20    3.20
  18   4  -2   22.40    3.50
 -22  18  -2   14.20    3.90
   4 -22  -2   22.60    3.90
  -4  22   2   18.70    3.30
  22 -18   2   25.60    4.20
 -22  19  -2   -1.40    3.80
   3 -22  -2    5.10    4.00
  19   3  -2    4.10    2.50
 -22  19  -2    8.40    2.70
  -3  22   2    4.40    2.80
   2 -22  -2    1.30    4.00
 -22  20  -2   -0.30    2.70
  20   2  -2    1.50    2.90
 -22  20  -2   -1.20    4.20
  -2  22   2   -1.40    2.80
 -22  21  -2    1.70    2.90
  21   1  -2   -4.90    2.90
   1 -22  -2   -1.10    4.40
 -22  21  -2    3.00    3.20
  -1  22   2   -3.60    2.80
  22   0  -2    2.00    2.80
 -22  22  -2    0.40    4.10
   0  22   2    2.10    3.10
 -22  23  -2    4.50    3.70
  23  -1  -2    6.80    3.30
   1  22   2    6.40    3.20
  24  -2  -2    9.10    3.40
 -22  24  -2    7.50    3.40
   2  22   2    7.50    3.40
  25  -3  -2   10.30    3.80
 -22  25  -2    3.40    3.30
   3  22   2    6.10    3.50
 -22  26  -2    3.50    3.50
  26  -4  -2    0.80    3.90
   4  22   2   -2.90    3.70
  26 -23  -2    1.10    3.70
  -3  26  -2    2.50    3.30
  23   3   2   12.20    3.30
  -2  25  -2    4.10    3.50
  25 -23  -2    7.00    3.50
  23   2   2    9.70    2.90
  24 -23  -2    2.90    3.00
  -1  24  -2    0.70    3.00
  23   1   2   -1.80    2.70
  23 -23  -2    2.60    2.80
   0  23  -2    4.90    2.90
  23   0   2    5.10    2.80
   1  22  -2    2.50    2.60
  22 -23  -2    4.80    2.80
  23  -1   2    1.40    2.80
   2  21  -2    2.60    2.60
  21 -23  -2    5.20    2.50
  23  -2   2    8.70    2.80
  20 -23  -2    5.90    2.30
   3  20  -2   -1.70    2.30
  23  -3   2    3.90    2.40
  19 -23  -2    8.20    2.40
   4  19  -2    5.50    2.30
  23  -4   2    5.10    3.00
  18 -23  -2   -0.40    2.20
   5  18  -2    2.50    2.00
  23  -5   2    2.50    2.70
   6  17  -2   -0.60    1.90
  17 -23  -2    2.90    2.10
  23  -6   2    7.00    3.00
  16 -23  -2    9.20    2.30
   7  16  -2    9.70    2.30
  23  -7   2   11.50    3.20
   8  15  -2    1.70    1.80
  15 -23  -2    1.40    1.80
  23  -8   2    1.10    2.80
   9  14  -2    7.90    2.10
  14 -23  -2    9.10    2.10
  23  -9   2   18.20    3.60
  13 -23  -2    1.20    1.90
  10  13  -2    2.10    1.70
  23 -10   2    2.40    3.10
  11  12  -2    1.00    1.70
  12 -23  -2    1.30    1.80
  23 -11   2    9.50    3.20
  11 -23  -2   25.10    3.10
  12  11  -2   27.50    3.10
  10 -23  -2   15.80    3.20
  13  10  -2   11.30    2.10
  10 -23  -2   12.70    2.20
  23 -13   2   17.70    3.70
   9 -23  -2    0.90    2.90
  14   9  -2    2.50    1.80
  23 -14   2    0.70    3.30
   8 -23  -2    5.40    3.20
  15   8  -2    1.60    1.90
  -8  23   2    1.40    2.40
   7 -23  -2    7.10    3.40
  16   7  -2    4.10    2.10
  -7  23   2    7.00    2.50
   6 -23  -2    2.60    3.60
  17   6  -2   -0.30    2.20
  -6  23   2    1.30    2.70
  18   5  -2    9.10    2.50
   5 -23  -2    9.40    4.20
  -5  23   2    2.80    2.90
  19   4  -2    0.40    2.50
   4 -23  -2    1.50    4.00
  -4  23   2    2.70    2.90
  20   3  -2    2.90    3.00
   3 -23  -2    0.40    4.20
  -3  23   2   -2.00    3.00
  21   2  -2    3.20    2.80
   2 -23  -2    5.70    5.00
 -23  21  -2    5.80    3.10
  -2  23   2    1.50    3.20
  22   1  -2    7.50    3.30
 -23  22  -2   14.80    3.30
  -1  23   2   10.80    3.40
 -23  23  -2    5.80    3.30
  23   0  -2    3.30    3.40
   0  23   2    6.50    3.20
 -23  24  -2   18.20    3.80
  24  -1  -2   17.60    4.00
   1  23   2   20.70    4.10
 -23  25  -2   -0.90    3.60
  25  -2  -2    6.30    3.90
   2  23   2    3.80    3.60
 -23  26  -2    5.00    3.90
  26  -3  -2    8.30    4.30
   3  23   2    5.50    4.10
  25 -24  -2   -1.20    3.20
  -1  25  -2   -0.50    3.40
  24   1   2    0.00    3.00
   0  24  -2   -0.80    3.20
  24 -24  -2    4.90    3.30
  24   0   2    2.50    3.00
  23 -24  -2   25.90    4.30
  24  -1   2   24.00    4.50
  22 -24  -2    8.00    2.70
   2  22  -2   -0.30    2.60
  24  -2   2    7.90    2.80
  21 -24  -2    7.40    2.80
   3  21  -2    9.50    2.80
  24  -3   2   15.00    3.00
   4  20  -2    2.70    2.30
  20 -24  -2    0.30    2.40
  24  -4   2   -2.40    3.30
  19 -24  -2   -3.00    2.30
   5  19  -2   -2.00    2.30
  24  -5   2    4.20    2.70
   6  18  -2    3.00    2.20
  18 -24  -2   -0.10    2.20
  24  -6   2    4.90    3.20
  17 -24  -2    4.40    2.20
   7  17  -2    4.30    2.20
  24  -7   2    6.90    3.20
   8  16  -2    0.90    1.90
  16 -24  -2    1.90    2.10
  24  -8   2   -1.30    3.20
  15 -24  -2    5.50    2.10
   9  15  -2    5.40    2.10
  24  -9   2   10.70    3.30
  10  14  -2    5.90    2.00
  14 -24  -2    4.70    2.10
  24 -10   2   10.50    3.40
  13 -24  -2    4.90    2.10
  11  13  -2    3.00    2.00
  24 -11   2   10.10    3.60
  12  12  -2   24.30    3.00
  12 -24  -2   28.80    3.30
  24 -12   2   42.20    5.10
  11 -24  -2    0.90    1.80
  13  11  -2    1.30    1.90
  24 -13   2    6.80    3.70
  10 -24  -2    2.70    3.50
  14  10  -2   -1.20    1.90
  24 -14   2   -1.40    3.20
  15   9  -2   -2.00    2.00
   9 -24  -2    4.80    3.40
  24 -15   2    3.00    3.30
   8 -24  -2   12.90    3.80
  16   8  -2    5.00    2.20
  -8  24   2    4.70    2.80
  24 -16   2   12.10    4.00
  17   7  -2   -1.00    2.30
   7 -24  -2    4.30    3.90
  24 -17   2    1.90    3.80
  -7  24   2    2.60    2.90
   6 -24  -2   18.80    4.40
  18   6  -2   20.90    3.40
  -6  24   2   11.90    3.30
  24 -18   2   22.30    4.30
   5 -24  -2    7.80    4.50
  19   5  -2    4.10    2.50
  24 -19   2   -0.30    4.00
  -5  24   2   -0.50    3.10
  20   4  -2    4.80    2.90
 -24  20  -2    4.70    3.10
   4 -24  -2    9.20    4.80
  -4  24   2    2.60    3.20
   3 -24  -2    3.80    5.00
  21   3  -2   -1.00    2.90
 -24  21  -2    4.40    3.20
  -3  24   2   -3.40    3.30
 -24  22  -2   -2.40    3.20
  22   2  -2   -0.20    3.20
  -2  24   2    1.30    3.40
 -24  23  -2   -0.70    3.40
  23   1  -2    2.40    3.20
  -1  24   2    4.50    3.60
  24   0  -2    4.70    4.00
 -24  24  -2    8.50    3.80
   0  24   2    7.00    3.60
 -24  25  -2    1.90    3.80
  25  -1  -2    1.70    3.90
   1  24   2    2.80    3.90
   1  24  -2   -1.80    3.20
  24 -25  -2   -1.60    3.10
  25  -1   2    5.50    3.60
  23 -25  -2   -2.40    3.00
   2  23  -2   -0.60    3.00
  25  -2   2    4.70    2.90
   3  22  -2    1.90    2.90
  22 -25  -2    1.50    2.80
  25  -3   2    5.60    3.50
  21 -25  -2   -1.90    2.60
   4  21  -2    1.70    2.60
  25  -4   2   -1.50    3.20
   5  20  -2    3.00    2.60
  20 -25  -2   -0.30    2.60
  25  -5   2    5.90    3.30
  19 -25  -2   -0.80    2.20
   6  19  -2    4.00    2.30
  25  -6   2    5.40    3.50
   7  18  -2   -0.50    2.00
  18 -25  -2    2.60    2.30
  25  -7   2   -1.60    3.30
   8  17  -2   -2.60    2.10
  17 -25  -2    2.00    2.40
  25  -8   2    4.20    3.50
   9  16  -2    1.60    2.00
  16 -25  -2    0.10    2.30
  25  -9   2    5.50    3.60
  10  15  -2   -1.00    2.10
  15 -25  -2    2.40    2.10
  25 -10   2    5.90    3.50
  11  14  -2    4.10    2.20
  14 -25  -2    2.70    2.30
  25 -11   2    7.40    4.00
  13 -25  -2   31.10    3.50
  12  13  -2   27.40    3.20
  12 -25  -2   11.50    2.20
  13  12  -2   13.60    2.40
  25 -13   2   20.10    4.00
  14  11  -2   40.00    3.90
  25 -14   2   56.09    5.90
  15  10  -2   15.80    3.00
  25 -15   2   32.50    5.30
  16   9  -2    1.20    2.20
  25 -16   2    8.10    4.10
  17   8  -2    1.60    2.40
  25 -17   2    4.50    4.20
  -8  25   2   -2.00    3.00
  18   7  -2    5.20    2.40
  25 -18   2    4.60    4.40
  -7  25   2   -1.20    3.10
  19   6  -2    6.50    2.80
  -6  25   2   -5.20    3.20
  25 -19   2    3.50    4.60
  20   5  -2    7.00    3.10
  -5  25   2    2.10    3.50
 -25  21  -2    5.50    3.60
  21   4  -2   -2.10    3.00
  -4  25   2   -4.60    3.50
 -25  22  -2   -0.70    3.60
  22   3  -2    3.70    3.30
  -3  25   2   -1.20    3.60
 -25  23  -2    8.60    3.80
  23   2  -2    6.10    3.30
  -2  25   2    6.30    3.70
 -25  24  -2    3.80    3.90
  24   1  -2    0.50    3.70
  -1  25   2    4.60    3.80
   3  23  -2    3.80    3.10
  23 -26  -2    0.90    3.10
  26  -3   2    8.90    4.00
  22 -26  -2   -0.40    2.90
   4  22  -2   -3.90    2.80
  26  -4   2    2.50    3.70
  21 -26  -2   -0.50    2.70
   5  21  -2   -1.30    2.80
  26  -5   2    4.40    3.70
  20 -26  -2    1.90    2.70
   6  20  -2    2.20    2.60
  26  -6   2    9.10    3.70
   7  19  -2    0.90    2.40
  19 -26  -2   -3.70    2.50
  26  -7   2    3.50    3.80
  18 -26  -2    0.50    2.60
   8  18  -2    3.40    2.20
  26  -8   2    3.20    3.90
  17 -26  -2   -1.80    2.40
   9  17  -2   -0.80    2.10
  26  -9   2    0.30    3.50
  16 -26  -2    4.50    2.50
  10  16  -2    0.40    2.30
  26 -10   2    7.50    4.20
  11  15  -2   12.60    2.50
  15 -26  -2    9.20    2.70
  26 -11   2   23.30    4.60
  14 -26  -2   -3.10    2.10
  12  14  -2    2.10    2.10
  26 -12   2   -1.90    4.00
  13  13  -2    0.80    2.00
  26 -13   2    3.70    3.90
  14  12  -2    1.90    2.00
  26 -14   2    0.50    4.10
  15  11  -2    3.80    2.50
  26 -15   2    6.10    4.20
  16  10  -2   -2.60    2.20
  26 -16   2    8.30    4.30
  17   9  -2   -1.70    2.50
  26 -17   2   -0.70    4.60
  18   8  -2    8.20    2.70
  26 -18   2   16.30    4.80
  -8  26   2    2.50    3.30
  19   7  -2    5.00    2.90
  -7  26   2   -1.30    3.40
  26 -19   2    4.20    4.80
  20   6  -2    9.10    3.20
  26 -20   2    9.10    5.20
  -6  26   2    3.00    3.60
  21   5  -2    2.50    3.10
 -26  21  -2    0.60    3.60
  -5  26   2   -5.20    3.70
  22   4  -2    0.60    3.40
 -26  22  -2    1.80    3.80
  -4  26   2   -2.70    3.70
 -26  23  -2    4.40    4.10
  23   3  -2    4.60    3.60
  -3  26   2    2.10    4.00
  21 -27  -2   -1.70    3.00
   6  21  -2    1.40    3.10
  27  -6   2    1.60    4.20
  20 -27  -2    0.70    3.00
   7  20  -2    3.10    2.60
  27  -7   2    3.80    4.20
   8  19  -2    1.90    2.40
  19 -27  -2    1.10    2.90
  27  -8   2   -0.10    4.40
  18 -27  -2   -2.70    2.60
   9  18  -2   -1.50    2.30
  27  -9   2    0.70    4.10
  17 -27  -2   -2.00    2.60
  10  17  -2    0.00    2.30
  27 -10   2    7.80    4.30
  11  16  -2   -0.80    2.20
  16 -27  -2   -1.30    2.50
  27 -11   2    5.00    4.90
  12  15  -2    5.50    2.40
  15 -27  -2    9.40    2.50
  27 -12   2   15.50    4.70
  13  14  -2   13.40    2.70
  27 -13   2   19.10    4.80
  14  13  -2   17.40    2.90
  27 -14   2   32.00    5.50
  15  12  -2   11.80    2.80
  27 -15   2    8.40    4.40
  16  11  -2   14.60    2.90
  27 -16   2   23.60    5.00
  17  10  -2    1.40    2.60
  27 -17   2    2.30    5.00
  18   9  -2    9.30    2.80
  27 -18   2    5.40    5.00
  -9  27   2   -0.50    4.10
  19   8  -2    0.90    2.70
  -8  27   2   -3.80    3.60
  27 -19   2    2.20    5.10
  20   7  -2    1.70    2.90
  27 -20   2   14.30    5.80
  -7  27   2   -0.40    3.80
  21   6  -2    3.80    3.20
 -27  21  -2   -5.00    4.00
  -6  27   2   -5.50    4.00
  18 -28  -2   -6.00    2.80
  10  18  -2   -1.70    2.40
  28 -10   2    6.40    4.70
  17 -28  -2    0.00    2.60
  11  17  -2   -4.80    2.30
  28 -11   2    5.00    5.20
  28 -12   2   10.40    5.20
  13  15  -2    1.00    2.30
  28 -13   2    3.30    5.00
  14  14  -2   -3.00    2.40
  28 -14   2   -2.30    4.90
  15  13  -2   -1.70    2.50
  28 -15   2   -6.20    4.60
  16  12  -2    0.30    2.80
  28 -16   2    2.60    4.90
  17  11  -2    7.30    2.80
  28 -17   2   14.30    5.60
  18  10  -2    6.60    2.90
  28 -18   2   -3.90    5.60
   0   0  -3 2863.81  161.38
   0   0  -3 2922.71  161.48
  -1   0  -3  240.88   13.80
   0   1  -3  235.98   13.90
   1  -1  -3  260.77   13.90
   0   1  -3  216.68   13.80
   1  -1  -3  250.77   13.80
  -1   0  -3  242.18   13.90
   0  -1  -3  251.37   13.80
   0  -1  -3  250.17   13.80
  -1   1  -3  229.28   13.80
   1   0  -3  224.78   13.80
  -1   1  -3  218.58   13.80
   0  -1  -3  264.27   13.80
   1   0  -3  241.68   13.80
   2  -1  -3   71.59    4.50
  -1  -1  -3   76.29    4.60
   2  -1  -3   72.59    4.60
  -1   2  -3   61.49    4.70
  -1  -1  -3   72.59    4.50
  -1   2  -3   60.49    4.60
   1   1   3   74.79    4.60
  -2  -1  -3  121.19    7.40
   3  -2  -3  128.29    7.40
   3  -2  -3  132.79    7.50
  -2  -1  -3  125.09    7.50
  -1   3  -3  119.49    7.60
   2   1   3  125.69    7.60
   2  -2  -3  561.84   29.80
   2  -2  -3  554.54   29.80
   2  -2  -3  537.95   29.90
   0   2  -3  526.05   29.90
  -2   0  -3  521.25   29.90
  -2   0  -3  506.95   29.80
   0   2  -3  520.15   29.90
   2   0   3  505.75   29.90
   1   1  -3   67.59    4.50
  -2   1  -3   66.99    4.40
   1   1  -3   62.79    4.40
   2  -1   3   66.09    4.50
   0  -2  -3  547.65   30.00
  -2   2  -3  507.25   30.10
   0  -2  -3  550.34   30.00
   2   0  -3  541.95   30.00
  -2   2  -3  500.35   30.10
   0   2   3  550.54   30.00
  -2   3  -3   31.00    3.30
  -1  -2  -3   41.40    2.90
  -2   3  -3   32.70    3.10
   3  -1  -3   36.00    2.80
  -1  -2  -3   39.20    2.90
  -3   1   3   40.60    2.90
   1   2   3   41.10    3.10
  -2   4  -3   -0.60    1.10
  -2  -2  -3    2.20    1.00
  -2   4  -3    1.40    1.30
  -2  -2  -3    0.80    1.20
   4  -2  -3    1.10    1.00
   2   2   3    0.90    1.30
  -4   2   3    1.10    1.00
  -3  -2  -3  105.19    6.20
  -3  -2  -3  104.19    6.40
   5  -3  -3  102.79    6.10
  -2   5  -3  102.59    6.50
  -2   5  -3  103.79    6.50
  -5   3   3  108.89    6.20
   3   2   3  104.09    6.20
   3   2   3  101.29    6.40
  -3  -1  -3    4.90    1.20
  -1   4  -3    5.00    1.40
   4  -3  -3    3.40    1.30
   4  -3  -3    3.90    1.10
  -3  -1  -3    5.20    1.00
   4  -3  -3    4.70    1.20
   3   1   3    5.80    1.50
   3  -3  -3   12.30    2.10
  -3   0  -3   12.10    2.00
   0   3  -3   11.10    2.10
  -3   0  -3   13.00    1.70
   3  -3  -3   14.10    1.90
   3  -3  -3   11.40    1.80
   3   0   3   15.90    2.30
  -3   1  -3   29.50    2.70
   2  -3  -3   35.70    2.80
   2  -3  -3   38.10    2.70
   1   2  -3   35.30    2.90
   2  -3  -3   34.40    2.90
  -3   1  -3   38.20    3.20
   3  -1   3   37.40    3.00
  -1  -2   3   35.90    2.80
   1  -3  -3  128.99    7.50
   2   1  -3  123.79    7.50
   1  -3  -3  128.19    7.60
  -2  -1   3  124.49    7.60
   3  -2   3  124.89    7.70
  -1   3   3  130.99    7.60
   0  -3  -3   13.50    1.90
   0  -3  -3   13.50    1.80
   3   0  -3   10.90    1.80
  -3   3  -3   10.90    2.00
  -3   3  -3   13.20    2.20
   0   3   3   13.10    2.10
  -3   0   3   12.80    1.90
  -3   4  -3   63.09    4.20
   4  -1  -3   60.39    3.90
  -1  -3  -3   59.69    4.00
  -3   4  -3   58.09    4.20
  -1  -3  -3   63.39    4.00
   1   3   3   58.59    4.10
   1   3   3   61.09    4.00
  -4   1   3   62.49    4.00
  -2  -3  -3   10.50    1.70
  -3   5  -3    4.80    1.40
  -2  -3  -3    6.00    1.20
   5  -2  -3    3.80    1.10
  -3   5  -3    5.50    1.40
  -5   2   3    5.00    1.10
   2   3   3    6.30    1.40
   2   3   3    4.70    1.10
  -3  -3  -3   22.20    1.90
   6  -3  -3   17.50    1.70
  -3  -3  -3   19.50    2.90
  -3   6  -3   19.90    2.30
  -3   6  -3   17.50    2.30
   3   3   3   19.30    2.20
  -6   3   3   19.80    1.80
   3   3   3   19.40    1.90
   7  -4  -3    1.40    1.10
   7  -4  -3    3.10    0.90
  -7   4   3    3.00    0.90
   6  -4  -3   75.19    4.80
  -4  -2  -3   76.19    5.00
  -4  -2  -3   81.69    4.90
   6  -4  -3   86.69    5.30
  -2   6  -3   87.89    5.30
   4   2   3   75.99    5.20
   4   2   3   81.19    5.00
   2  -6   3   86.69    5.20
  -6   4   3   81.49    4.90
  -1   5  -3    9.80    1.60
   5  -4  -3    7.70    1.10
   5  -4  -3    7.70    1.20
  -4  -1  -3    9.50    1.70
  -4  -1  -3   12.30    1.60
   5  -4  -3    5.10    1.40
   1  -5   3    5.30    1.40
   4   1   3   10.80    2.00
   0   4  -3    3.30    1.30
  -4   0  -3    3.80    1.20
   4  -4  -3    1.60    1.00
   4  -4  -3    2.50    1.00
  -4   0  -3    2.70    0.90
   4  -4  -3    3.40    1.20
   4   0   3    3.70    1.50
   0  -4   3    1.80    1.20
   1   3  -3   61.29    4.00
  -4   1  -3   57.99    4.00
   3  -4  -3   65.29    4.10
   3  -4  -3   61.09    3.90
   3  -4  -3   56.49    3.80
  -4   1  -3   55.99    3.80
   4  -1   3   61.39    4.20
  -1  -3   3   55.69    4.30
  -4   2  -3    1.60    1.10
   2  -4  -3    1.30    1.00
   2   2  -3    1.90    1.20
   2  -4  -3    1.10    1.10
  -2  -2   3    1.60    1.10
   4  -2   3    1.20    1.40
   1  -4  -3    5.20    1.10
   1  -4  -3    6.00    1.20
   3   1  -3    4.80    1.20
  -4   3  -3    5.30    1.40
  -1   4   3    4.50    1.30
   4  -3   3    4.80    1.60
  -3  -1   3    6.60    1.30
   0  -4  -3    5.20    1.10
   0  -4  -3    3.70    1.10
  -4   4  -3    3.50    1.30
   4   0  -3    2.80    1.10
  -4   4  -3    2.40    1.40
   0   4   3    3.60    1.30
  -4   0   3    4.30    1.20
   0   4   3    2.60    1.10
   5  -1  -3  137.49    8.40
  -4   5  -3  142.19    8.70
  -1  -4  -3  146.79    8.50
  -1  -4  -3  139.99    8.40
  -4   5  -3  150.68    8.70
   1   4   3  142.09    8.50
   1   4   3  148.59    8.50
  -5   1   3  147.19    8.40
  -4   6  -3   22.30    2.50
  -2  -4  -3   24.40    2.10
   6  -2  -3   23.10    2.00
  -2  -4  -3   26.60    2.20
  -4   6  -3   22.50    2.50
   2   4   3   24.50    2.20
   2   4   3   23.10    2.40
  -6   2   3   25.50    2.10
  -4   7  -3   97.59    6.00
   7  -3  -3   90.79    5.50
  -4   7  -3   93.29    5.90
  -3  -4  -3   93.59    5.60
  -3  -4  -3   85.49    5.90
  -7   3   3   97.09    5.60
   3   4   3   96.19    5.70
   3   4   3   93.79    5.80
  -4   8  -3   60.59    4.20
  -4  -4  -3   58.79    3.80
  -4  -4  -3   61.29    3.90
  -4   8  -3   61.59    4.20
   8  -4  -3   57.39    3.70
  -8   4   3   60.49    3.80
   4   4   3   56.19    4.00
   4   4   3   64.19    3.90
   9  -5  -3   55.39    3.50
  -4   9  -3   57.19    4.00
  -5  -4  -3   57.19    3.60
  -5  -4  -3   60.09    3.80
   9  -5  -3   58.09    4.20
   5   4   3   58.69    3.80
   5   4   3   56.19    3.90
  -9   5   3   57.29    3.70
   8  -5  -3    5.50    1.50
   8  -5  -3    9.40    1.30
  -5  -3  -3   10.40    1.40
  -3   8  -3    8.90    1.50
  -5  -3  -3    9.90    1.70
  -8   5   3    9.60    1.50
   5   3   3   10.50    1.60
   5   3   3    5.70    1.40
   3  -8   3    6.40    1.40
  -5  -2  -3   22.10    2.20
  -5  -2  -3   22.20    1.90
   7  -5  -3   23.20    2.40
   7  -5  -3   21.60    2.10
  -2   7  -3   24.40    2.40
   5   2   3   21.60    2.00
   2  -7   3   21.90    2.30
   5   2   3   25.90    2.30
  -7   5   3   24.10    1.90
  -1   6  -3   65.29    4.00
  -5  -1  -3   57.79    3.60
   6  -5  -3   56.49    3.70
   6  -5  -3   53.49    4.00
   6  -5  -3   56.89    4.00
  -5  -1  -3   53.29    3.80
   5   1   3   53.09    3.60
   5   1   3   54.39    4.00
   1  -6   3   61.29    3.90
  -5   0  -3    0.60    1.00
   5  -5  -3   -0.40    0.90
  -5   0  -3    1.40    0.90
   5  -5  -3    0.10    1.00
   0   5  -3    1.70    1.20
   5  -5  -3    1.20    1.10
   0  -5   3    0.70    1.00
   5   0   3    0.70    1.30
   4  -5  -3  143.19    8.50
   4  -5  -3  140.19    8.30
  -5   1  -3  150.08    8.50
   1   4  -3  144.59    8.50
  -5   1  -3  141.79    8.30
  -1  -4   3  141.09    8.40
   5  -1   3  138.69    8.50
   3  -5  -3    4.50    1.20
   3  -5  -3    3.60    1.00
   3  -5  -3    3.60    1.10
   2   3  -3    5.60    1.20
  -2  -3   3    5.20    1.30
   2  -5  -3  107.39    6.30
   2  -5  -3   98.39    6.20
  -5   3  -3  105.89    6.50
   3   2  -3  106.39    6.30
  -2   5   3  106.89    6.40
  -2   5   3  103.29    6.20
   5  -3   3  103.19    6.60
   1  -5  -3   11.30    1.80
  -5   4  -3   10.40    1.60
   4   1  -3   11.30    1.60
   1  -5  -3    7.80    1.50
  -4  -1   3   10.90    1.70
   5  -4   3    8.00    1.70
  -1   5   3    8.00    1.50
  -1   5   3    7.40    1.40
  -5   5  -3    0.90    1.20
   5   0  -3    0.10    1.00
  -5   5  -3   -1.00    1.20
   0  -5  -3    0.20    0.90
   0  -5  -3    2.00    1.10
   0   5   3    1.00    1.10
  -5   0   3    1.70    0.90
   6  -1  -3   13.70    1.60
  -1  -5  -3   12.30    1.60
  -5   6  -3   12.40    1.70
  -5   6  -3   10.70    2.00
  -1  -5  -3   16.10    1.80
   1   5   3   14.10    1.90
  -6   1   3   11.30    1.60
   1   5   3   11.90    2.10
  -5   7  -3   11.80    2.00
  -5   7  -3   11.10    2.00
   7  -2  -3   11.20    1.50
   2   5   3   13.80    1.80
  -7   2   3    8.90    1.50
   2   5   3    9.90    1.90
  -3  -5  -3    9.00    1.50
  -5   8  -3    3.20    1.40
  -5   8  -3    3.10    1.40
   8  -3  -3    4.50    1.00
   3   5   3    6.10    1.30
  -8   3   3    3.90    1.00
   3   5   3    5.70    1.30
  -4  -5  -3   22.70    2.10
  -4  -5  -3   29.20    2.30
   4   5   3   25.20    2.40
  -5  -5  -3   15.60    1.70
  -5  10  -3   16.20    2.10
  10  -5  -3   16.40    1.60
  -5  10  -3   11.50    2.20
  -5  -5  -3   17.70    2.00
 -10   5   3   15.30    1.80
   5   5   3   17.90    2.20
   5   5   3   14.50    2.90
  11  -6  -3   27.90    2.20
  -5  11  -3   27.00    2.70
  11  -6  -3   22.20    3.00
  -6  -5  -3   30.40    2.50
  -6  -5  -3   29.00    2.30
   6   5   3   29.60    2.70
   5 -11   3   35.50    2.50
 -11   6   3   28.20    2.40
  10  -6  -3   11.70    2.30
  -4  10  -3   12.90    2.10
  10  -6  -3   15.30    1.50
  -6  -4  -3   14.90    1.60
  -6  -4  -3   16.70    2.00
   4 -10   3   18.30    2.00
   6   4   3   18.60    1.90
 -10   6   3   13.90    1.70
   6   4   3   13.00    2.20
  -6  -3  -3    3.90    1.20
   9  -6  -3    4.60    1.40
  -6  -3  -3    3.60    0.90
  -3   9  -3    6.10    1.30
   3  -9   3    4.90    1.20
   6   3   3    3.50    1.30
   6   3   3    3.70    1.10
  -6  -2  -3   88.29    5.50
  -6  -2  -3   91.19    5.80
  -2   8  -3   98.29    5.90
   8  -6  -3   98.59    6.00
   2  -8   3   96.09    5.90
   6   2   3   92.19    5.90
   6   2   3   96.49    5.70
  -6  -1  -3    1.40    1.00
  -6  -1  -3    1.90    0.80
  -1   7  -3    2.30    1.20
   7  -6  -3    1.50    1.20
   1  -7   3    2.50    1.10
   6   1   3    2.60    0.90
   6   1   3    4.30    1.30
  -6   0  -3   53.79    3.60
   0   6  -3   62.49    4.00
  -6   0  -3   59.39    3.80
   6  -6  -3   59.69    4.00
   6   0   3   57.89    4.10
   0  -6   3   58.39    3.90
  -6   1  -3   12.60    1.60
   1   5  -3   11.00    1.90
   5  -6  -3   10.90    2.00
  -6   1  -3   13.10    1.70
   6  -1   3   14.80    2.20
  -1  -5   3   15.50    1.70
   4  -6  -3   22.90    1.90
   2   4  -3   24.00    2.30
  -6   2  -3   23.70    2.30
   4  -6  -3   23.10    2.30
  -6   2  -3   26.50    1.90
   6  -2   3   24.20    2.50
  -2  -4   3   24.30    2.10
   3  -6  -3   18.90    1.70
  -6   3  -3   22.20    2.20
   3   3  -3   20.30    2.10
   3  -6  -3   21.80    2.20
  -6   3  -3   18.90    1.70
   6  -3   3   18.80    2.50
  -3   6   3   18.80    2.00
  -3   6   3   18.70    1.90
  -3  -3   3   20.90    2.00
   4   2  -3   78.39    5.00
  -6   4  -3   84.79    5.30
   2  -6  -3   74.29    4.80
   2  -6  -3   82.49    5.10
  -2   6   3   82.29    5.10
  -4  -2   3   83.29    5.10
   6  -4   3   77.29    5.30
  -2   6   3   86.99    5.00
   1  -6  -3   59.89    3.90
   1  -6  -3   55.59    3.60
   5   1  -3   60.69    3.80
  -6   5  -3   56.49    4.10
  -1   6   3   61.49    3.90
   6  -5   3   59.09    4.20
  -1   6   3   52.59    3.80
  -6   6  -3   52.79    4.00
   0  -6  -3   58.59    3.70
   6   0  -3   59.79    3.80
   0  -6  -3   57.69    3.90
  -6   6  -3   60.79    4.20
   0   6   3   58.09    3.90
   0   6   3   57.29    3.80
  -6   0   3   62.19    3.80
  -1  -6  -3   98.79    6.00
  -6   7  -3  102.69    6.30
   7  -1  -3   98.49    5.90
  -1  -6  -3  102.19    5.90
  -6   7  -3   97.19    6.20
  -7   1   3  101.39    6.00
   1   6   3   94.29    6.00
   1   6   3   99.89    6.10
  -6   8  -3   36.90    3.00
  -2  -6  -3   31.50    3.30
  -6   8  -3   33.80    3.00
  -2  -6  -3   36.60    2.70
   8  -2  -3   35.60    2.60
   2   6   3   36.80    2.70
   2   6   3   37.40    2.80
  -8   2   3   38.60    2.70
  -6   9  -3  204.18   11.80
  -3  -6  -3  205.08   11.60
  -6   9  -3  202.98   11.80
   9  -3  -3  194.98   11.50
  -3  -6  -3  196.08   11.50
  -9   3   3  201.48   11.50
   3   6   3  194.48   11.60
   3   6   3  206.28   11.60
  10  -4  -3   28.50    2.10
  -4  -6  -3   29.30    2.30
  -4  -6  -3   25.60    2.20
  -6  10  -3   24.80    2.70
  -6  10  -3   23.40    2.40
   4   6   3   27.10    2.40
 -10   4   3   31.00    2.40
   4   6   3   28.40    2.50
  -6  11  -3   36.30    3.10
  11  -5  -3   38.20    2.70
  -6  11  -3   39.70    3.20
  -5  -6  -3   43.70    3.00
  -5  -6  -3   37.00    2.80
   5   6   3   37.30    3.10
 -11   5   3   40.10    2.90
   5   6   3   39.40    3.00
  12  -6  -3   44.00    4.20
  -6  -6  -3   58.79    3.80
  -6  12  -3   52.79    3.90
  -6  12  -3   56.39    3.90
  -6  -6  -3   51.59    3.60
  12  -6  -3   54.19    3.50
   6   6   3   56.69    3.90
   6   6   3   52.99    3.80
 -12   6   3   57.69    3.70
  13  -7  -3    2.20    1.20
  -7  -6  -3    3.50    1.30
  -6  13  -3    7.60    1.60
 -13   7   3    2.30    1.20
   7   6   3    3.90    1.30
   7   6   3    1.70    1.40
  -5  12  -3  107.99    6.50
  12  -7  -3   97.29    6.70
  -7  -5  -3  107.39    6.40
  12  -7  -3   98.89    6.00
   7   5   3  101.69    6.50
   7   5   3   97.09    6.30
   5 -12   3  111.89    6.40
  -4  11  -3   21.20    2.40
  -7  -4  -3   27.70    2.40
  11  -7  -3   18.80    2.70
  -7  -4  -3   23.70    2.00
   7   4   3   25.50    2.30
   4 -11   3   19.90    2.20
   7   4   3   25.20    2.50
  -3  10  -3    7.80    1.50
  -7  -3  -3    7.70    1.30
  10  -7  -3    4.00    1.50
  -7  -3  -3    6.30    1.40
   3 -10   3    4.80    1.30
   7   3   3    7.20    1.50
   7   3   3    5.60    1.10
  -7  -2  -3    2.60    0.80
   9  -7  -3   -1.00    1.10
  -2   9  -3   -1.30    1.10
  -7  -2  -3    1.40    1.10
   7   2   3    1.10    0.90
   7   2   3    1.20    1.20
   2  -9   3    1.50    1.10
  -7  -1  -3   67.79    4.50
  -7  -1  -3   76.69    4.80
  -1   8  -3   80.79    4.90
   8  -7  -3   78.99    5.00
   7   1   3   74.69    5.00
   7   1   3   75.39    4.60
   1  -8   3   80.19    4.90
   0   7  -3    6.60    1.40
  -7   0  -3    7.50    1.30
   7  -7  -3    5.50    1.30
   0  -7   3    8.50    1.60
   7   0   3    9.50    1.60
   1   6  -3  103.39    6.20
  -7   1  -3  102.89    6.20
   6  -7  -3  100.59    6.20
   7  -1   3   96.89    6.30
  -1  -6   3  100.29    6.20
   5  -7  -3   14.00    1.90
   2   5  -3   10.00    1.80
  -5   7   3    9.60    1.90
  -2  -5   3   13.00    1.60
   7  -2   3   18.00    2.20
  -7   3  -3   96.39    5.90
   4  -7  -3   96.39    5.90
   3   4  -3   97.29    5.80
  -3  -4   3   89.79    5.80
   7  -3   3   92.89    6.00
  -4   7   3   97.69    5.90
   3  -7  -3    3.90    0.90
   4   3  -3    6.10    1.20
   3  -7  -3    4.10    1.10
   7  -4   3   10.90    2.10
  -3   7   3    1.40    1.20
   2  -7  -3   25.20    1.90
   5   2  -3   24.60    2.10
   2  -7  -3   25.40    2.20
  -7   5  -3   22.20    2.40
  -5  -2   3   22.60    2.10
  -2   7   3   24.00    2.20
  -2   7   3   19.80    2.10
   7  -5   3   23.60    2.60
   1  -7  -3    4.20    1.10
   1  -7  -3    2.20    1.00
   6   1  -3    3.90    1.10
  -7   6  -3    2.50    1.30
  -6  -1   3    2.30    1.10
   7  -6   3    3.20    1.40
  -1   7   3    2.10    1.10
  -1   7   3    1.90    1.10
   0  -7  -3    8.00    1.50
   7   0  -3    9.00    1.50
  -7   7  -3    4.90    1.60
   0  -7  -3    7.80    1.30
  -7   7  -3    5.00    1.50
   0   7   3    7.70    1.30
  -7   0   3    6.90    1.40
   0   7   3    5.80    1.20
  -7   8  -3   -2.70    1.10
  -1  -7  -3    1.00    1.10
   8  -1  -3    2.80    1.10
  -1  -7  -3    2.20    1.10
  -7   8  -3    0.70    1.20
  -8   1   3    2.60    1.70
   1   7   3    0.60    1.00
   1   7   3    2.70    1.20
  -7   9  -3   64.89    4.30
  -2  -7  -3   60.59    4.00
   9  -2  -3   61.59    3.90
  -2  -7  -3   66.19    4.00
  -7   9  -3   60.39    4.30
  -9   2   3   63.19    4.00
   2   7   3   58.99    4.10
   2   7   3   61.09    4.20
  -3  -7  -3    0.90    1.10
  -3  -7  -3    0.30    1.10
  -7  10  -3    1.00    1.10
  -7  10  -3   -1.40    1.30
  10  -3  -3    1.30    1.10
   3   7   3   -0.20    1.30
   3   7   3    0.20    1.00
 -10   3   3    1.90    1.10
  -4  -7  -3   52.99    3.50
  11  -4  -3   51.29    3.30
  -7  11  -3   48.00    3.70
  -7  11  -3   47.60    3.60
  -4  -7  -3   47.70    3.40
   4   7   3   50.09    3.70
 -11   4   3   53.59    3.50
   4   7   3   48.50    3.50
  -5  -7  -3   51.99    3.60
  12  -5  -3   53.99    3.50
  -5  -7  -3   57.79    3.80
  -7  12  -3   47.70    3.90
  -7  12  -3   54.99    4.00
 -12   5   3   55.49    3.70
   5   7   3   58.49    4.00
   5   7   3   55.39    3.80
  13  -6  -3    8.10    2.00
  -6  -7  -3   10.90    2.00
  -7  13  -3   14.40    2.30
  -7  13  -3   13.70    1.90
  13  -6  -3   13.20    1.70
   6   7   3   15.30    2.20
 -13   6   3   17.30    2.10
   6   7   3   12.70    2.30
  -7  -7  -3   17.60    2.20
  14  -7  -3   14.20    1.90
  -7  14  -3   10.60    2.00
  -7  14  -3   16.10    2.40
 -14   7   3   16.70    2.20
   7   7   3   21.60    2.60
   7   7   3   15.10    2.50
  -8  -7  -3    4.20    1.70
  15  -8  -3   -0.70    1.30
  -7  15  -3    1.90    1.60
   8   7   3    2.50    1.70
 -15   8   3    2.70    1.50
   8   7   3    3.90    1.80
  -8  -6  -3    7.00    1.70
  14  -8  -3    3.70    1.30
  -6  14  -3    9.00    1.70
   8   6   3    5.20    1.50
   8   6   3    6.80    1.70
  -8  -5  -3  154.48    9.70
  13  -8  -3  172.48   10.00
  -5  13  -3  170.98    9.90
   8   5   3  156.88    9.80
   5 -13   3  173.58    9.80
   8   5   3  158.88    9.60
  -8  -4  -3   13.80    1.90
  -4  12  -3   13.90    2.20
   4 -12   3   11.50    1.80
   8   4   3   13.60    2.20
   8   4   3   11.70    2.00
  -8  -3  -3  229.08   13.60
  11  -8  -3  243.88   13.80
  -3  11  -3  243.68   13.70
   3 -11   3  240.58   13.70
   8   3   3  231.18   13.50
   8   3   3  227.38   13.70
  -2  10  -3   78.59    5.00
  10  -8  -3   74.19    5.00
  -8  -2  -3   73.89    4.80
   8   2   3   75.69    5.00
   8   2   3   77.89    4.70
   2 -10   3   73.49    4.90
  -8  -1  -3   40.50    2.90
  -1   9  -3   38.60    3.00
  -8  -1  -3   35.50    2.50
   9  -8  -3   41.10    3.20
   8   1   3   38.70    3.10
   1  -9   3   41.20    3.00
   8   1   3   38.80    2.70
  -8   0  -3   20.00    2.10
  -8   0  -3   20.10    2.00
   8  -8  -3   19.10    2.20
   0   8  -3   18.60    2.10
   8   0   3   18.10    2.20
   0  -8   3   19.20    2.10
   7  -8  -3    0.70    1.00
   1   7  -3    1.30    1.20
  -8   1  -3    2.00    1.10
  -1  -7   3    1.50    1.00
   8  -1   3    1.40    1.30
   6  -8  -3   36.80    2.90
  -8   2  -3   37.60    2.90
   2   6  -3   38.40    2.90
  -6   8   3   38.10    3.10
  -2  -6   3   35.70    2.80
   8  -2   3   39.60    3.10
   5  -8  -3    4.70    1.10
   3   5  -3    2.80    1.10
   8  -3   3    6.00    1.50
  -5   8   3    4.40    1.20
  -3  -5   3    3.50    0.90
   4   4  -3   58.69    3.90
  -8   4  -3   57.09    4.10
   4  -8  -3   57.69    4.00
  -4  -4   3   62.09    3.90
   8  -4   3   56.89    4.20
  -4   8   3   62.39    4.00
  -8   5  -3    6.10    1.40
   5   3  -3   11.00    1.70
   3  -8  -3    9.20    1.80
   3  -8  -3    9.60    1.40
  -3   8   3    9.60    1.70
   8  -5   3    7.40    1.60
  -3   8   3    6.80    1.20
  -5  -3   3   12.90    1.70
   2  -8  -3   98.59    5.70
   2  -8  -3   98.19    5.90
   6   2  -3   93.89    5.80
  -8   6  -3  100.89    6.10
  -2   8   3   95.89    6.00
  -2   8   3   91.79    5.80
  -6  -2   3   95.69    5.90
   8  -6   3   95.69    6.20
  -8   7  -3   79.99    5.20
   1  -8  -3   79.89    4.80
   1  -8  -3   76.69    5.00
   7   1  -3   81.99    4.90
  -1   8   3   72.19    4.90
  -7  -1   3   82.59    4.90
   8  -7   3   78.79    5.30
  -1   8   3   79.29    5.00
  -8   8  -3   19.80    2.30
   0  -8  -3   18.80    2.10
   0  -8  -3   17.70    2.00
  -8   8  -3   13.30    2.30
   8   0  -3   21.80    2.00
  -8   0   3   22.10    2.00
   0   8   3   19.90    2.00
   0   8   3   18.80    2.10
  -8   9  -3   22.50    2.40
  -1  -8  -3   27.00    2.30
   9  -1  -3   25.20    2.20
  -8   9  -3   22.60    2.50
  -1  -8  -3   22.80    2.50
   1   8   3   25.00    2.40
   1   8   3   24.10    2.30
  -9   1   3   26.30    2.20
  -2  -8  -3    4.50    1.10
  -8  10  -3    2.20    1.20
  -8  10  -3    1.30    1.40
  -2  -8  -3    2.10    1.20
  10  -2  -3    4.10    1.20
   2   8   3    1.30    1.30
   2   8   3    1.60    1.10
 -10   2   3    5.20    1.30
  -8  11  -3   11.80    2.30
  -3  -8  -3   19.90    2.00
  -3  -8  -3   16.20    2.00
  11  -3  -3   15.50    1.80
  -8  11  -3   12.90    2.00
 -11   3   3   16.60    2.10
   3   8   3   16.80    2.00
   3   8   3   16.20    2.30
  -4  -8  -3  150.58    8.60
  -8  12  -3  148.29    8.90
  -8  12  -3  147.59    8.90
  -4  -8  -3  139.89    8.60
  12  -4  -3  151.58    8.50
 -12   4   3  137.09    8.90
   4   8   3  144.99    8.70
   4   8   3  148.19    8.80
  -8  13  -3   17.40    2.40
  -5  -8  -3   19.50    2.30
  -5  -8  -3   17.50    2.10
  13  -5  -3   17.00    2.00
  -8  13  -3   19.90    2.50
   5   8   3   18.40    2.50
   5   8   3   18.90    2.40
  14  -6  -3  125.99    7.90
  -8  14  -3  140.79    8.30
  -6  -8  -3  134.19    8.10
  -8  14  -3  135.19    8.30
   6   8   3  139.49    8.30
   6   8   3  132.99    8.20
  -7  -8  -3   12.70    2.20
  -8  15  -3    5.60    1.70
  -8  15  -3    6.40    1.70
  15  -7  -3    7.30    1.60
  15  -7  -3    4.60    2.10
   7   8   3    9.80    2.00
   7   8   3    6.20    1.70
  16  -8  -3    3.80    1.60
  -8  16  -3    6.90    1.90
  -8  16  -3    7.70    2.00
  -8  -8  -3   12.50    2.20
   8   8   3    6.90    1.90
   8   8   3    9.80    2.20
  -8  17  -3    5.30    1.90
  -8  17  -3    6.00    2.00
  17  -9  -3    3.00    2.10
  17  -9  -3    6.10    1.60
  -9  -8  -3    5.70    1.80
   9   8   3    4.30    2.10
 -17   9   3    7.10    2.80
   9   8   3    8.40    2.20
  -7  16  -3   32.60    3.20
  16  -9  -3   33.10    2.80
  16  -9  -3   31.50    3.60
  -9  -7  -3   35.70    3.20
   7 -16   3   39.50    3.40
   9   7   3   34.10    3.40
   9   7   3   34.30    3.40
 -16   9   3   36.50    3.10
  15  -9  -3   23.00    3.30
  -9  -6  -3   26.70    2.80
  -6  15  -3   30.60    2.80
   9   6   3   27.70    2.90
   6 -15   3   33.10    3.00
   9   6   3   29.30    3.00
  -5  14  -3    8.50    1.70
  -9  -5  -3   10.50    1.70
  14  -9  -3    5.50    1.90
   9   5   3   10.70    1.60
   9   5   3   11.50    1.90
   5 -14   3    8.70    1.70
  13  -9  -3   17.30    2.70
  -4  13  -3   23.00    2.40
  -9  -4  -3   25.00    2.40
   9   4   3   21.40    2.60
   9   4   3   20.60    2.40
   4 -13   3   21.60    2.20
  -9  -3  -3   52.69    3.60
  -3  12  -3   54.39    3.70
  12  -9  -3   48.40    3.90
   9   3   3   48.90    3.50
   9   3   3   52.99    3.80
   3 -12   3   49.10    3.60
  -2  11  -3   70.49    4.50
  -9  -2  -3   65.89    4.30
  11  -9  -3   66.99    4.60
   9   2   3   64.79    4.50
   2 -11   3   64.59    4.40
   9   2   3   63.49    4.20
  -1  10  -3   10.30    1.80
  10  -9  -3    4.50    1.30
   9   1   3    5.10    1.00
   1 -10   3    5.20    1.40
   9  -9  -3   72.59    4.80
   0   9  -3   81.19    4.90
  -9   0  -3   71.99    4.70
   9   0   3   70.99    4.90
   0  -9   3   72.89    4.80
  -9   1  -3   25.60    2.30
   8  -9  -3   25.00    2.40
   1   8  -3   24.50    2.40
   9  -1   3   26.70    2.70
  -1  -8   3   27.10    2.30
   7  -9  -3   63.29    4.30
   2   7  -3   62.19    4.20
  -9   2  -3   64.89    4.30
   9  -2   3   62.29    4.40
  -2  -7   3   62.99    4.10
  -7   9   3   63.49    4.30
  -9   3  -3  212.78   12.00
   6  -9  -3  203.38   11.90
   3   6  -3  203.68   11.90
   9  -3   3  199.18   12.00
  -3  -6   3  200.18   11.90
  -6   9   3  208.98   12.00
  -9   5  -3   53.89    4.10
   5   4  -3   58.09    3.90
   4  -9  -3   61.49    4.00
  -4   9   3   56.89    3.90
  -5  -4   3   58.59    3.90
   9  -5   3   58.99    4.20
   3  -9  -3    6.80    1.40
   6   3  -3   11.50    1.60
  -3   9   3    8.70    1.60
  -6  -3   3    8.90    1.60
  -3   9   3   10.20    1.60
   7   2  -3    0.40    1.10
   2  -9  -3    1.10    1.10
  -9   7  -3   -0.70    1.20
   2  -9  -3    0.20    1.00
  -7  -2   3    1.20    1.10
  -2   9   3    1.20    1.00
  -2   9   3    0.30    1.00
   9  -7   3    0.40    1.30
  -9   8  -3   41.20    3.10
   1  -9  -3   39.90    3.00
   1  -9  -3   39.20    2.80
   8   1  -3   37.90    2.90
   9  -8   3   40.90    3.40
  -1   9   3   36.70    2.90
  -8  -1   3   43.50    2.90
  -1   9   3   36.20    3.00
   0  -9  -3   73.79    4.70
   0  -9  -3   74.09    4.60
  -9   9  -3   79.99    4.90
  -9   9  -3   67.49    4.90
   9   0  -3   75.69    4.70
   0   9   3   69.09    4.70
   0   9   3   72.99    4.80
  -9   0   3   76.99    4.70
  -9  10  -3   36.40    3.20
  -1  -9  -3   41.60    3.00
  -1  -9  -3   41.70    3.00
  -9  10  -3   38.80    3.20
  10  -1  -3   45.30    2.90
 -10   1   3   40.20    3.00
   1   9   3   38.10    3.10
   1   9   3   39.80    3.10
  -9  11  -3   48.00    3.70
  -2  -9  -3   48.40    3.40
  -9  11  -3   47.00    3.80
  -2  -9  -3   52.09    3.60
  11  -2  -3   52.09    3.40
 -11   2   3   50.79    3.60
   2   9   3   50.89    3.60
   2   9   3   47.90    3.50
  -9  12  -3   10.60    2.00
  -3  -9  -3   17.10    2.00
  -9  12  -3   10.80    2.10
  -3  -9  -3   20.10    2.20
  12  -3  -3   15.70    1.90
   3   9   3   21.00    2.40
 -12   3   3   14.50    2.20
   3   9   3   12.70    2.10
  13  -4  -3   19.00    2.00
  -4  -9  -3   12.30    2.10
  -9  13  -3   11.90    2.30
  -9  13  -3   14.40    2.40
  -4  -9  -3   18.10    2.40
   4   9   3   15.40    2.40
 -13   4   3   19.10    2.40
   4   9   3   12.90    2.20
  -9  14  -3   20.00    2.70
  14  -5  -3   18.70    2.20
  -5  -9  -3   27.80    2.60
  -9  14  -3   18.00    2.60
   5   9   3   20.70    2.70
   5   9   3   27.70    2.80
 -14   5   3   21.90    2.60
  -9  15  -3   25.70    3.00
  15  -6  -3   28.70    2.60
  -9  15  -3   24.50    3.00
  -6  -9  -3   27.80    2.80
 -15   6   3   30.50    3.00
   6   9   3   30.70    3.20
   6   9   3   24.80    3.10
  -9  16  -3    3.40    1.70
  16  -7  -3    2.00    1.50
  -9  16  -3    1.80    1.70
  -9  16  -3   -1.00    1.70
  -7  -9  -3    5.90    1.90
  16  -7  -3   -3.00    1.90
   7   9   3    3.70    1.90
   7   9   3    5.30    2.00
 -16   7   3    2.00    1.80
  -9  17  -3   15.30    3.10
  17  -8  -3   22.30    3.30
  -8  -9  -3   25.40    2.80
  17  -8  -3   22.10    2.50
  -9  17  -3   24.30    3.10
  -9  17  -3   23.10    2.90
 -17   8   3   25.20    3.00
   8   9   3   23.70    3.10
   8   9   3   20.10    3.40
  -9  18  -3   34.60    3.90
  18  -9  -3   39.70    3.20
  -9  -9  -3   35.30    3.50
  18  -9  -3   38.70    4.00
  -9  18  -3   39.60    3.60
  -9  18  -3   28.40    3.90
 -18   9   3   39.00    3.60
   9   9   3   37.00    4.10
   9   9   3   39.10    3.80
 -10  -9  -3   10.30    2.80
  -9  19  -3   10.20    2.10
  -9  19  -3    3.90    2.40
  -9  19  -3    9.50    2.90
  19 -10  -3   10.50    2.00
  19 -10  -3    6.00    2.50
  10   9   3    9.80    2.30
  10   9   3    7.90    2.40
 -19  10   3   11.30    2.40
 -10  -8  -3    7.90    2.00
  -8  18  -3    6.40    1.80
  18 -10  -3    4.20    1.60
  18 -10  -3   -1.40    2.10
  -8  18  -3    2.20    2.00
  10   8   3    2.00    2.00
  10   8   3    5.00    2.10
 -18  10   3    5.60    2.40
  -7  17  -3   13.90    2.50
 -10  -7  -3   15.00    2.50
  17 -10  -3   10.20    2.30
  10   7   3   11.20    2.10
   7 -17   3   19.10    2.70
  10   7   3   13.80    2.70
  16 -10  -3   14.60    2.30
  -6  16  -3   16.30    2.50
 -10  -6  -3   16.50    2.60
  10   6   3   17.60    2.80
   6 -16   3   19.80    2.60
  10   6   3   17.00    2.70
  -5  15  -3   69.89    4.80
 -10  -5  -3   65.69    4.80
  15 -10  -3   69.29    5.10
   5 -15   3   76.19    4.90
  10   5   3   67.29    4.80
  10   5   3   65.79    4.70
 -10  -4  -3   31.10    2.90
  14 -10  -3   28.00    3.10
  -4  14  -3   32.40    3.00
  10   4   3   32.00    3.10
   4 -14   3   32.50    2.80
 -10  -3  -3  153.98    9.20
  -3  13  -3  159.08    9.30
  13 -10  -3  162.38    9.40
  10   3   3  151.18    9.30
  10   3   3  147.39    9.00
   3 -13   3  149.49    9.20
  12 -10  -3    2.80    1.40
  -2  12  -3    6.10    1.50
 -10  -2  -3    5.80    1.30
  10   2   3    4.70    1.10
   2 -12   3   10.90    1.70
  10   2   3    6.40    1.80
 -10  -1  -3  140.79    8.50
  -1  11  -3  149.39    8.60
  11 -10  -3  149.29    8.70
   1 -11   3  135.79    8.60
  10   1   3  142.29    8.70
  10   1   3  139.29    8.30
   0  10  -3    9.30    1.80
  10 -10  -3    5.00    1.30
  10   0   3    3.80    1.40
   0 -10   3    9.50    1.80
   1   9  -3   43.50    3.10
 -10   1  -3   34.70    3.00
   9 -10  -3   43.10    3.20
  10  -1   3   35.80    3.20
  -1  -9   3   37.90    3.00
   8 -10  -3    2.90    1.10
 -10   2  -3    3.90    1.30
   2   8  -3    5.30    1.30
  -2  -8   3    2.90    1.10
  10  -2   3    4.20    1.40
  -8  10   3    3.30    1.20
 -10   3  -3    0.80    1.20
   7 -10  -3    1.60    1.10
   3   7  -3    1.30    1.10
  10  -3   3    1.70    1.40
  -7  10   3    1.00    1.30
  -3  -7   3    0.90    0.90
 -10   4  -3   30.70    2.70
   4   6  -3   28.60    2.50
   6 -10  -3   27.60    2.50
  10  -4   3   30.00    2.80
  -6  10   3   29.10    2.60
  -4  -6   3   28.00    2.40
 -10   5  -3   18.50    2.30
   5 -10  -3   17.00    2.10
   5   5  -3   17.20    2.00
  -5  10   3   19.00    2.00
  10  -5   3   12.60    2.30
  -5  -5   3   17.60    1.90
   4 -10  -3   16.70    2.10
   6   4  -3   15.20    1.90
 -10   6  -3   13.80    2.10
  -6  -4   3   16.50    1.90
  -4  10   3   16.90    1.90
  10  -6   3   16.40    2.30
   3 -10  -3    6.00    1.20
 -10   7  -3    6.50    1.30
   7   3  -3    8.70    1.60
   3 -10  -3    6.40    1.40
  -7  -3   3    9.90    1.70
  10  -7   3    3.70    1.50
  -3  10   3    5.80    1.20
  -3  10   3    8.00    1.50
   8   2  -3   75.89    4.70
   2 -10  -3   74.59    4.50
   2 -10  -3   73.99    4.70
 -10   8  -3   75.29    4.90
  -2  10   3   69.09    4.60
  -8  -2   3   72.09    4.70
  10  -8   3   74.89    5.10
  -2  10   3   72.89    4.80
   9   1  -3    9.30    1.60
   1 -10  -3    4.30    1.20
   1 -10  -3    4.80    1.30
  -1  10   3    4.20    1.20
  10  -9   3    4.80    1.60
  -1  10   3    5.20    1.30
  -9  -1   3    5.70    1.20
 -10  10  -3    1.20    1.40
  10   0  -3   10.20    1.70
   0 -10  -3    5.40    2.30
 -10  10  -3    4.30    1.30
   0  10   3    4.20    1.30
 -10   0   3    6.50    1.40
   0  10   3    5.90    1.40
  11  -1  -3   26.30    2.30
  -1 -10  -3   25.60    2.40
 -10  11  -3   21.90    2.70
 -10  11  -3   28.50    2.70
  -1 -10  -3   25.60    2.50
   1  10   3   25.70    2.60
   1  10   3   25.10    2.40
 -11   1   3   32.00    2.60
 -10  12  -3   86.79    5.40
  12  -2  -3   80.49    5.10
 -10  12  -3   80.99    5.40
  -2 -10  -3   80.79    5.10
  -2 -10  -3   80.09    5.20
 -12   2   3   81.49    5.30
   2  10   3   76.29    5.20
   2  10   3   79.99    5.30
  -3 -10  -3   24.90    2.50
  13  -3  -3   28.10    2.40
 -10  13  -3   23.40    2.80
 -10  13  -3   23.00    2.90
  -3 -10  -3   24.60    2.60
 -13   3   3   27.30    2.80
   3  10   3   29.90    2.80
   3  10   3   24.00    2.60
  -4 -10  -3  123.39    7.60
 -10  14  -3  119.19    7.70
  -4 -10  -3  111.49    7.40
  14  -4  -3  123.49    7.40
 -10  14  -3  132.29    7.50
 -10  14  -3  125.89    7.70
   4  10   3  123.29    7.70
   4  10   3  126.79    7.70
 -14   4   3  132.89    7.60
 -10  15  -3    3.30    1.70
 -10  15  -3    6.90    1.80
  -5 -10  -3    6.80    1.90
  15  -5  -3    6.30    1.60
 -10  15  -3    7.10    1.80
 -15   5   3    5.70    1.90
   5  10   3    8.10    2.00
   5  10   3    7.80    1.90
  16  -6  -3   52.79    4.00
 -10  16  -3   59.09    4.30
  -6 -10  -3   52.79    4.30
 -10  16  -3   51.79    4.20
 -10  16  -3   60.29    4.40
   6  10   3   53.59    4.40
 -16   6   3   54.19    4.30
   6  10   3   57.49    4.40
  -7 -10  -3    3.80    2.20
 -10  17  -3   -1.90    1.90
 -10  17  -3    0.60    1.70
  17  -7  -3    0.80    1.70
 -10  17  -3    2.80    1.80
  17  -7  -3   -1.90    2.10
 -17   7   3    2.90    2.00
   7  10   3    0.70    1.90
   7  10   3    2.80    2.00
 -10  18  -3    1.20    2.10
  -8 -10  -3    1.40    2.20
 -10  18  -3   -3.50    2.10
 -10  18  -3   -0.90    1.80
  18  -8  -3   -0.20    1.70
   8  10   3   -0.40    1.90
   8  10   3   -1.40    2.30
 -18   8   3    0.70    2.00
 -10  19  -3   -0.30    2.30
  -9 -10  -3    4.90    2.40
  19  -9  -3    4.40    1.80
  19  -9  -3   -3.20    2.20
 -10  19  -3   -0.60    2.40
 -10  19  -3    2.10    1.90
   9  10   3    2.10    2.10
   9  10   3   -2.20    2.30
 -19   9   3    2.90    2.30
 -10  20  -3   10.70    2.70
  20 -10  -3    8.80    2.60
 -10  20  -3   12.00    2.30
  20 -10  -3   11.50    2.20
  10  10   3    9.70    2.70
 -20  10   3   11.50    2.70
 -10  21  -3    2.90    2.70
  21 -11  -3    6.00    2.20
 -10  21  -3    5.00    2.30
 -21  11   3    4.80    2.70
  11  10   3    3.60    2.80
  11  10   3    7.70    2.50
  20 -11  -3   64.19    5.30
  -9  20  -3   65.19    5.20
  -9  20  -3   54.99    5.30
  20 -11  -3   64.09    4.40
  11   9   3   56.09    5.30
 -20  11   3   60.29    4.90
  11   9   3   60.09    5.00
  -8  19  -3    7.70    2.50
  19 -11  -3    4.40    2.40
  -8  19  -3   10.50    2.30
  19 -11  -3   14.00    2.30
   8 -19   3    8.90    2.80
  11   8   3   12.30    2.60
 -19  11   3   14.20    2.70
  11   8   3    9.20    2.40
  -7  18  -3   66.29    4.80
  18 -11  -3   66.39    5.10
 -11  -7  -3   56.49    4.60
  11   7   3   66.39    4.90
  11   7   3   59.29    4.90
   7 -18   3   64.19    4.90
  -6  17  -3    2.60    1.70
 -11  -6  -3    2.90    1.90
  17 -11  -3   -0.50    1.80
  11   6   3    1.60    1.80
  11   6   3    3.60    2.00
   6 -17   3   -0.50    1.90
  16 -11  -3    6.30    2.00
 -11  -5  -3    6.40    1.90
  -5  16  -3   10.60    1.90
   5 -16   3    8.50    1.90
  11   5   3    7.80    1.70
  11   5   3    8.20    2.00
  15 -11  -3    3.40    1.60
  -4  15  -3    2.20    1.50
 -11  -4  -3    1.70    1.60
  11   4   3   -0.40    1.60
  11   4   3    5.00    1.50
   4 -15   3   -0.60    1.50
  -3  14  -3   30.70    2.80
  14 -11  -3   29.60    2.90
 -11  -3  -3   28.00    2.60
  11   3   3   26.50    2.60
   3 -14   3   23.90    2.50
  11   3   3   26.80    2.90
  -2  13  -3    4.40    1.50
 -11  -2  -3    2.40    1.30
  13 -11  -3    1.80    1.40
   2 -13   3   -1.70    1.20
  11   2   3    2.60    1.10
  11   2   3    3.80    1.50
  -1  12  -3   52.69    3.80
  12 -11  -3   51.89    3.90
 -11  -1  -3   59.19    3.80
   1 -12   3   48.10    3.70
  11   1   3   53.29    4.00
  11 -11  -3   36.20    3.00
 -11   0  -3   28.30    2.70
   0  11  -3   36.30    2.90
  11   0   3   36.90    3.00
   0 -11   3   32.20    2.80
   1  10  -3   30.00    2.60
  10 -11  -3   27.00    2.60
 -11   1  -3   27.40    2.50
  11  -1   3   26.40    2.80
  -1 -10   3   28.80    2.60
   9 -11  -3   54.19    3.80
 -11   2  -3   49.80    3.80
   2   9  -3   53.29    3.70
  -2  -9   3   51.09    3.70
  -9  11   3   56.79    3.90
  11  -2   3   49.60    3.90
   3   8  -3   17.70    2.10
   8 -11  -3   16.40    2.10
 -11   3  -3   16.60    2.30
  -3  -8   3   17.10    2.00
  -8  11   3   19.00    2.50
  11  -3   3   21.10    2.50
   4   7  -3   52.59    3.60
 -11   4  -3   54.29    3.80
   7 -11  -3   50.59    3.70
  11  -4   3   48.70    3.90
  -4  -7   3   51.29    3.50
  -7  11   3   53.19    3.80
 -11   5  -3   42.70    3.20
   6 -11  -3   41.60    3.10
   5   6  -3   38.40    3.00
  11  -5   3   37.60    3.40
  -5  -6   3   41.70    3.00
  -6  11   3   39.50    3.10
   6   5  -3   27.70    2.50
 -11   6  -3   29.20    2.60
   5 -11  -3   28.00    2.60
  11  -6   3   29.60    2.90
  -5  11   3   32.30    2.60
  -6  -5   3   28.30    2.50
 -11   7  -3   24.20    2.50
   7   4  -3   26.50    2.40
   4 -11  -3   28.50    2.50
  -4  11   3   27.90    2.40
  11  -7   3   24.40    2.80
  -7  -4   3   25.10    2.40
   3 -11  -3  222.78   12.90
   8   3  -3  235.08   13.10
 -11   8  -3  237.78   13.30
   3 -11  -3  226.28   13.10
  -3  11   3  223.78   13.20
  -8  -3   3  227.88   13.20
  11  -8   3  234.48   13.40
  -3  11   3  211.88   12.90
 -11   9  -3   66.49    4.50
   2 -11  -3   58.69    4.10
   2 -11  -3   61.09    4.30
   9   2  -3   75.89    4.40
  -2  11   3   67.39    4.30
  11  -9   3   65.69    4.80
  -2  11   3   65.99    4.40
  -9  -2   3   68.59    4.40
   1 -11  -3  135.69    8.30
 -11  10  -3  142.69    8.50
   1 -11  -3  136.79    8.20
  10   1  -3  144.89    8.30
  -1  11   3  137.09    8.40
 -10  -1   3  140.19    8.40
  -1  11   3  133.49    8.30
  11 -10   3  150.68    8.80
   0 -11  -3   29.40    2.70
   0 -11  -3   29.40    2.70
 -11  11  -3   33.60    3.00
 -11  11  -3   27.40    3.00
  11   0  -3   34.20    2.60
   0  11   3   30.60    2.70
 -11   0   3   33.70    2.90
   0  11   3   33.00    2.80
  -1 -11  -3    8.60    1.80
 -11  12  -3   13.40    2.40
 -11  12  -3    9.00    1.70
  12  -1  -3   10.00    1.90
 -11  12  -3   11.40    1.90
  -1 -11  -3   11.90    1.90
   1  11   3   14.80    2.30
   1  11   3   10.10    2.00
 -12   1   3   12.80    2.30
 -11  13  -3    6.80    1.70
  -2 -11  -3    4.90    1.40
 -11  13  -3    3.50    1.30
  -2 -11  -3    5.50    1.70
 -11  13  -3    3.10    1.60
  13  -2  -3    6.70    1.60
   2  11   3    3.00    1.40
 -13   2   3    4.30    1.70
   2  11   3    7.50    1.70
 -11  14  -3   12.40    2.20
 -11  14  -3   16.50    2.50
  14  -3  -3   18.60    2.20
  -3 -11  -3   15.80    2.50
  -3 -11  -3   14.10    2.20
 -11  14  -3   12.20    2.10
   3  11   3   15.30    2.60
   3  11   3   12.50    2.40
 -14   3   3   16.00    2.60
  -4 -11  -3    4.70    2.00
 -11  15  -3    2.50    1.60
 -11  15  -3    4.50    1.90
 -11  15  -3    3.10    1.60
  15  -4  -3    6.20    1.50
 -15   4   3    5.20    1.90
   4  11   3    1.60    1.60
   4  11   3    2.30    1.90
  -5 -11  -3   22.80    3.00
 -11  16  -3   20.60    2.80
 -11  16  -3   19.20    2.80
  16  -5  -3   21.10    2.60
 -11  16  -3   21.40    2.80
   5  11   3   19.80    3.00
   5  11   3   18.30    3.10
 -16   5   3   17.00    3.00
 -11  17  -3   17.10    3.00
 -11  17  -3   14.90    2.50
  -6 -11  -3   17.80    2.70
  17  -6  -3   12.50    2.50
 -11  17  -3   16.10    2.80
   6  11   3   14.90    2.50
 -17   6   3   15.50    2.50
   6  11   3   14.20    2.40
 -11  18  -3    0.90    2.20
 -11  18  -3    0.90    2.00
  18  -7  -3   -5.10    2.00
  18  -7  -3   -0.40    1.80
 -11  18  -3   -0.70    1.80
  -7 -11  -3    0.20    2.30
   7  11   3   -0.10    2.40
   7  11   3   -0.40    2.20
 -18   7   3    0.60    2.20
  -8 -11  -3   23.10    3.70
 -11  19  -3   24.50    4.00
  19  -8  -3   17.10    3.10
  19  -8  -3   22.90    2.90
 -11  19  -3   18.60    3.10
 -11  19  -3   21.30    3.60
 -19   8   3   22.00    3.50
   8  11   3   20.60    4.00
   8  11   3   23.20    3.40
 -11  20  -3   11.90    2.80
  20  -9  -3   15.60    2.70
 -11  20  -3    9.10    3.10
  20  -9  -3   10.60    2.90
 -11  20  -3   12.70    2.50
 -20   9   3   12.00    2.70
   9  11   3    9.90    2.80
   9  11   3   13.10    3.30
  21 -10  -3    5.20    2.20
  21 -10  -3   -0.80    3.50
 -11  21  -3    1.60    2.80
 -11  21  -3    1.70    2.40
  10  11   3   -0.20    2.90
  10  11   3    4.70    2.50
 -21  10   3    1.60    2.80
 -11  22  -3    3.00    2.30
 -11  22  -3    1.30    3.40
  22 -11  -3    6.40    2.40
  22 -11  -3    3.50    2.60
 -22  11   3    2.70    3.00
  11  11   3    3.20    2.60
  11  11   3    1.50    3.10
  23 -12  -3   34.20    3.80
 -11  23  -3   38.60    4.00
  23 -12  -3   31.30    4.80
  12  11   3   30.20    4.20
  12  11   3   23.40    4.30
 -23  12   3   30.20    5.00
  22 -12  -3   15.70    3.00
  22 -12  -3   12.90    2.90
 -10  22  -3   15.20    2.70
  12  10   3   14.00    2.80
 -22  12   3   14.80    3.10
  12  10   3   10.70    3.40
  21 -12  -3    0.30    2.10
  -9  21  -3   -1.20    3.20
  -9  21  -3    1.50    2.20
  12   9   3   -2.00    2.60
  12   9   3    5.60    2.40
 -21  12   3    2.50    2.50
  20 -12  -3   11.70    2.70
  20 -12  -3   15.50    2.50
  -8  20  -3    8.70    2.80
  12   8   3   12.70    2.60
  12   8   3   19.60    3.20
  -7  19  -3    8.00    2.10
  -7  19  -3    4.40    2.30
  19 -12  -3    4.20    2.30
   7 -19   3    9.40    3.20
  12   7   3    9.30    3.70
  12   7   3    6.10    2.20
  -6  18  -3   19.50    2.80
  18 -12  -3   13.50    2.40
 -12  -6  -3   20.70    3.30
  12   6   3   18.80    2.90
   6 -18   3   15.80    3.00
  12   6   3   15.40    3.10
  17 -12  -3   -0.10    1.60
 -12  -5  -3   -1.80    2.00
  -5  17  -3   -0.70    1.70
   5 -17   3    1.50    1.80
  12   5   3    1.00    1.70
  12   5   3   -0.60    1.70
 -12  -4  -3   12.80    2.40
  16 -12  -3   20.00    2.80
  -4  16  -3   15.50    2.50
   4 -16   3   18.20    2.70
  12   4   3   16.20    2.70
  12   4   3   19.10    2.50
 -12  -3  -3   13.20    2.10
  -3  15  -3   13.10    2.30
  15 -12  -3   13.70    2.60
   3 -15   3   13.50    2.40
  12   3   3   13.80    2.50
  12   3   3   11.10    1.70
  -2  14  -3   11.50    2.20
  14 -12  -3   14.40    2.30
  12   2   3   11.90    2.30
   2 -14   3    8.10    1.60
  12   2   3    7.20    1.40
 -12  -1  -3   47.60    3.60
  -1  13  -3   50.99    3.70
  13 -12  -3   47.60    3.80
  12   1   3   47.00    3.90
   1 -13   3   49.40    3.50
 -12   0  -3    5.70    1.50
   0  12  -3    5.70    1.50
  12 -12  -3    2.70    1.40
   0 -12   3    3.30    1.30
  12   0   3    4.70    1.60
   1  11  -3   11.60    2.00
  11 -12  -3   11.90    2.10
 -12   1  -3   10.40    2.10
  -1 -11   3    9.50    1.90
  12  -1   3   13.40    2.20
   2  10  -3   89.29    5.50
 -12   2  -3   82.29    5.60
  10 -12  -3   88.69    5.60
 -10  12   3   88.69    5.60
  -2 -10   3   82.39    5.50
  12  -2   3   84.99    5.70
   9 -12  -3   16.90    2.20
 -12   3  -3   15.90    2.30
   3   9  -3   18.90    2.20
  -3  -9   3   18.10    2.10
  12  -3   3   20.60    2.50
  -9  12   3   15.00    2.40
   8 -12  -3  154.78    9.00
 -12   4  -3  148.69    9.10
   4   8  -3  153.38    9.00
  12  -4   3  156.38    9.30
  -8  12   3  151.78    9.20
  -4  -8   3  143.49    9.00
   5   7  -3   57.09    3.90
 -12   5  -3   56.29    4.00
   7 -12  -3   57.89    4.00
  -5  -7   3   51.69    3.70
  12  -5   3   52.89    4.20
  -7  12   3   61.29    4.10
 -12   6  -3   59.49    4.00
   6 -12  -3   57.59    4.00
   6   6  -3   57.89    3.90
  -6  12   3   58.19    4.10
  -6  -6   3   51.79    3.90
  12  -6   3   57.19    4.30
   7   5  -3  103.19    6.30
   5 -12  -3  100.29    6.30
 -12   7  -3  103.19    6.40
  -5  12   3   98.69    6.40
  12  -7   3  106.19    6.60
  -7  -5   3  103.19    6.40
   8   4  -3   14.90    1.90
 -12   8  -3   14.80    2.00
  12  -8   3    8.80    1.90
  -8  -4   3   12.30    1.90
   3 -12  -3   43.60    3.20
   3 -12  -3   50.09    3.50
   9   3  -3   51.29    3.50
 -12   9  -3   55.59    3.60
  -9  -3   3   50.09    3.60
  -3  12   3   44.30    3.40
  -3  12   3   44.00    3.50
  12  -9   3   53.49    4.00
   2 -12  -3    0.80    1.30
   2 -12  -3    4.80    1.30
  10   2  -3    5.90    1.40
 -12  10  -3    4.30    1.60
  12 -10   3    6.50    1.80
 -10  -2   3    4.00    1.50
  -2  12   3    5.00    1.30
  -2  12   3    4.50    1.40
 -12  11  -3   53.19    3.90
   1 -12  -3   43.90    4.30
   1 -12  -3   50.99    3.60
  11   1  -3   45.60    3.40
  -1  12   3   46.90    3.60
 -11  -1   3   48.50    3.60
  -1  12   3   52.29    3.60
   0 -12  -3    5.50    1.40
  12   0  -3    5.50    1.50
   0 -12  -3    3.10    1.60
 -12  12  -3    2.40    1.50
 -12  12  -3    5.90    1.80
   0  12   3    8.20    1.70
 -12   0   3    3.40    1.60
   0  12   3    6.10    1.40
  13  -1  -3   30.80    2.80
 -12  13  -3   31.50    2.60
  -1 -12  -3   31.80    2.90
  -1 -12  -3   31.90    2.80
 -12  13  -3   32.30    3.20
 -12  13  -3   25.50    3.00
 -13   1   3   33.60    3.20
   1  12   3   32.20    3.00
   1  12   3   39.50    3.10
 -12  14  -3   47.50    3.80
 -12  14  -3   47.40    3.30
  -2 -12  -3   42.50    3.50
  14  -2  -3   48.80    3.50
 -12  14  -3   49.10    4.00
  -2 -12  -3   43.70    3.70
 -14   2   3   49.60    3.90
   2  12   3   47.00    3.80
   2  12   3   38.10    3.60
 -12  15  -3   11.50    2.30
 -12  15  -3   13.60    2.60
  -3 -12  -3   13.70    2.70
 -12  15  -3   16.90    2.80
  15  -3  -3   12.00    2.20
   3  12   3   16.60    2.80
 -15   3   3   14.80    2.40
   3  12   3   11.30    2.20
  -4 -12  -3   31.50    3.40
 -12  16  -3   31.00    3.10
 -12  16  -3   41.50    3.50
 -12  16  -3   31.50    3.30
  16  -4  -3   26.70    3.00
 -16   4   3   31.30    3.50
   4  12   3   32.90    3.40
   4  12   3   29.70    3.50
 -12  17  -3    1.00    1.90
 -12  17  -3    0.60    1.80
  -5 -12  -3    0.30    2.10
 -12  17  -3    1.70    2.10
  17  -5  -3    0.70    1.80
   5  12   3    1.80    2.10
 -17   5   3   -0.90    2.10
   5  12   3    0.90    2.00
 -12  18  -3    7.70    2.30
  -6 -12  -3    9.50    2.50
  18  -6  -3    3.50    2.00
 -12  18  -3    4.50    2.10
 -12  18  -3    6.00    2.30
 -18   6   3    4.80    2.30
   6  12   3    7.20    2.40
   6  12   3    4.40    2.30
 -12  19  -3   31.60    3.50
  -7 -12  -3   29.80    3.90
  19  -7  -3   26.70    4.10
 -12  19  -3   33.50    3.90
 -12  19  -3   25.30    4.10
  19  -7  -3   27.90    3.10
   7  12   3   25.80    4.30
   7  12   3   30.70    3.70
 -19   7   3   25.50    3.80
  20  -8  -3    7.90    2.70
 -12  20  -3    9.40    3.10
 -12  20  -3   11.80    2.90
 -12  20  -3    8.80    2.40
  20  -8  -3   11.50    2.30
   8  12   3   10.70    2.70
 -20   8   3   11.80    2.80
   8  12   3    6.30    2.90
 -12  21  -3   20.80    3.50
  21  -9  -3   20.80    3.20
 -21   9   3   22.70    3.40
   9  12   3   16.10    3.50
   9  12   3   24.90    3.70
  22 -10  -3   21.80    3.40
 -12  22  -3   15.70    3.60
 -12  22  -3   16.10    2.80
  22 -10  -3   24.50    3.30
  10  12   3   20.60    3.80
  10  12   3   10.20    3.50
 -22  10   3   19.00    3.50
 -12  23  -3   11.40    2.80
  23 -11  -3   12.20    3.10
  23 -11  -3   12.20    2.80
  11  12   3   10.70    3.10
 -23  11   3   10.90    3.50
  11  12   3    4.20    4.30
  24 -12  -3   44.20    5.00
  24 -12  -3   32.70    4.10
 -12  24  -3   36.60    4.20
 -24  12   3   30.50    5.60
  12  12   3   32.50    4.50
  25 -13  -3   21.20    4.00
 -12  25  -3   29.50    4.20
  25 -13  -3   26.50    4.00
  13  12   3   24.70    4.40
  24 -13  -3    3.50    2.80
 -11  24  -3    3.40    2.70
  24 -13  -3    3.60    2.60
  13  11   3   -1.40    4.30
  13  11   3    2.00    2.70
 -24  13   3    5.30    4.10
 -10  23  -3   27.50    3.60
  23 -13  -3   18.00    3.40
  23 -13  -3   25.90    3.40
 -23  13   3   25.90    3.70
  13  10   3   13.30    3.70
  13  10   3   20.50    3.70
  22 -13  -3   30.80    3.40
  22 -13  -3   31.70    4.20
  -9  22  -3   31.20    3.70
  13   9   3   19.70    3.60
  13   9   3   33.60    3.80
  -8  21  -3   11.30    2.50
  21 -13  -3   10.70    2.20
  13   8   3   10.70    2.60
  13   8   3    7.40    2.90
  -7  20  -3   30.50    4.60
  20 -13  -3   32.80    3.70
  -7  20  -3   27.80    3.70
  13   7   3   31.80    3.60
  13   7   3   21.10    4.00
  19 -13  -3   -3.30    1.90
  -6  19  -3    1.30    1.90
  13   6   3    0.80    2.00
  13   6   3    1.40    2.00
  18 -13  -3   32.80    3.50
  -5  18  -3   34.00    3.20
  13   5   3   23.40    4.40
   5 -18   3   28.60    3.30
  13   5   3   25.30    3.40
  17 -13  -3   14.70    2.80
 -13  -4  -3    9.80    2.10
  -4  17  -3   14.20    2.60
  13   4   3   15.40    2.70
   4 -17   3   12.60    2.20
  13   4   3   15.30    2.40
  16 -13  -3    6.20    1.80
  -3  16  -3    4.50    1.80
 -13  -3  -3    3.70    1.60
  13   3   3    6.80    2.10
  13   3   3    4.20    2.50
  -2  15  -3   24.10    2.80
 -13  -2  -3   21.50    2.50
  15 -13  -3   24.10    2.90
  13   2   3   24.60    2.90
  13   2   3   22.90    2.50
   2 -15   3   21.60    2.70
 -13  -1  -3   33.10    3.00
  -1  14  -3   34.50    3.20
  14 -13  -3   34.00    3.20
  13   1   3   36.20    3.40
   1 -14   3   36.90    2.90
  13 -13  -3   15.80    2.40
   0  13  -3   18.50    2.40
 -13   0  -3   17.70    2.50
  13   0   3   16.80    2.50
   0 -13   3   13.20    2.10
 -13   1  -3   35.20    3.10
   1  12  -3   33.90    2.90
  12 -13  -3   30.10    3.00
  -1 -12   3   29.10    2.80
  13  -1   3   34.00    3.10
 -13   2  -3    5.80    1.60
   2  11  -3    4.60    1.50
  11 -13  -3    5.30    1.50
  -2 -11   3    6.20    1.40
  13  -2   3    7.30    1.80
 -13   3  -3   26.50    2.80
   3  10  -3   29.20    2.60
  10 -13  -3   25.70    2.60
 -10  13   3   27.90    2.70
  -3 -10   3   27.80    2.60
  13  -3   3   24.40    2.80
   4   9  -3   19.70    2.20
   9 -13  -3   17.00    2.20
 -13   4  -3   18.30    2.30
  -9  13   3   13.70    2.30
  13  -4   3   17.30    2.50
  -4  -9   3   14.50    2.10
   8 -13  -3   22.60    2.50
   5   8  -3   21.20    2.30
 -13   5  -3   22.00    2.40
  13  -5   3   20.80    2.70
  -5  -8   3   21.30    2.20
  -8  13   3   19.00    2.50
   6   7  -3   16.20    2.10
   7 -13  -3   15.40    2.20
 -13   6  -3   18.40    2.20
  13  -6   3   18.40    2.50
  -6  -7   3   13.90    2.00
  -7  13   3   13.40    2.30
 -13   7  -3    5.80    1.30
   7   6  -3    3.80    1.30
   6 -13  -3    2.50    1.20
  -6  13   3    3.90    1.30
  13  -7   3    0.80    1.50
  -7  -6   3    5.60    1.30
   5 -13  -3  158.38    9.30
 -13   8  -3  158.88    9.40
   8   5  -3  156.58    9.30
  -5  13   3  152.28    9.40
  -8  -5   3  144.29    9.30
  13  -8   3  169.98    9.60
 -13   9  -3   22.30    2.60
   9   4  -3   23.90    2.40
   4 -13  -3   22.60    2.40
  -4  13   3   26.10    2.50
  13  -9   3   17.80    2.90
  -9  -4   3   23.70    2.40
 -13  10  -3  157.88    9.10
  10   3  -3  149.09    8.90
   3 -13  -3  150.98    8.90
   3 -13  -3  142.69    8.70
  -3  13   3  137.79    8.70
 -10  -3   3  149.79    9.00
  -3  13   3  145.69    8.90
  13 -10   3  161.88    9.30
 -13  11  -3    1.70    1.60
   2 -13  -3    1.50    1.30
  11   2  -3    5.40    1.40
   2 -13  -3    1.30    1.50
  13 -11   3    0.40    1.70
 -11  -2   3    3.30    1.40
   1 -13  -3   45.20    3.40
  12   1  -3   45.20    3.30
   1 -13  -3   44.40    3.40
 -13  12  -3   45.10    3.70
  -1  13   3   50.49    3.50
 -12  -1   3   39.30    3.60
  -1  13   3   41.40    3.50
  13   0  -3   18.00    2.20
   0 -13  -3   15.80    2.30
 -13  13  -3   13.70    2.50
 -13  13  -3   18.60    2.70
   0 -13  -3   14.70    2.10
 -13   0   3   15.90    2.70
   0  13   3   12.10    1.90
   0  13   3   19.20    2.50
 -13  14  -3    3.80    1.80
  14  -1  -3    5.10    1.60
  -1 -13  -3    0.00    1.80
 -13  14  -3    4.60    1.30
 -13  14  -3    1.30    1.60
  -1 -13  -3    3.30    1.50
 -14   1   3    2.90    1.90
   1  13   3    3.50    1.80
   1  13   3   -0.10    1.50
  -2 -13  -3    5.80    2.20
 -13  15  -3   10.00    2.00
 -13  15  -3    8.10    1.90
  15  -2  -3    8.70    1.80
  -2 -13  -3    7.30    1.70
   2  13   3    6.80    1.70
 -15   2   3    9.00    2.20
   2  13   3    8.80    2.10
 -13  16  -3   10.30    2.20
  16  -3  -3   12.20    2.00
 -13  16  -3    9.90    2.20
  -3 -13  -3    8.40    2.40
 -13  16  -3    9.40    1.80
   3  13   3   10.30    2.20
   3  13   3    5.30    2.10
 -16   3   3    6.70    2.30
 -13  17  -3   -2.60    1.80
  -4 -13  -3   -2.70    2.30
  17  -4  -3    1.00    1.90
 -13  17  -3    1.90    2.30
 -13  17  -3   -1.20    1.70
 -17   4   3   -0.90    2.20
   4  13   3   -1.00    2.20
   4  13   3    0.90    2.10
 -13  18  -3   12.50    2.30
 -13  18  -3   14.90    2.70
 -13  18  -3   13.90    2.40
  18  -5  -3   14.20    2.40
  -5 -13  -3   14.00    3.00
   5  13   3   16.00    2.50
 -18   5   3   11.90    2.80
   5  13   3   12.50    2.60
 -13  19  -3   19.00    3.20
 -13  19  -3   18.10    2.70
  -6 -13  -3   18.90    3.30
  19  -6  -3   16.00    2.90
 -13  19  -3   18.30    3.20
   6  13   3   16.10    3.10
 -19   6   3   17.80    3.00
   6  13   3   18.60    3.20
  -7 -13  -3    3.20    2.80
  20  -7  -3   -0.40    2.20
  20  -7  -3   -0.80    2.50
 -13  20  -3   -0.90    2.40
 -13  20  -3   -1.30    2.10
 -13  20  -3   -0.20    2.80
   7  13   3    1.00    2.30
 -20   7   3   -0.10    2.70
   7  13   3    0.90    2.80
  21  -8  -3   10.70    2.50
 -13  21  -3    7.10    3.00
   8  13   3    6.50    3.10
   8  13   3   11.10    3.10
 -21   8   3    6.10    3.00
  22  -9  -3    0.30    2.90
 -13  22  -3   -0.20    2.30
  22  -9  -3    1.00    2.40
 -13  22  -3    2.20    3.20
   9  13   3    2.70    2.70
 -22   9   3   -3.50    3.00
 -13  23  -3    2.00    4.40
  23 -10  -3    7.00    3.10
 -13  23  -3    1.70    2.40
  23 -10  -3    3.30    2.70
 -23  10   3    1.20    3.50
  10  13   3    3.30    2.90
  24 -11  -3    7.70    2.90
  24 -11  -3    3.50    3.00
 -13  24  -3    5.40    2.60
  11  13   3    4.80    3.10
 -24  11   3    5.20    3.80
  25 -12  -3   57.29    5.30
  25 -12  -3   69.89    6.30
 -13  25  -3   56.59    5.30
  12  13   3   49.99    5.60
  26 -13  -3    7.50    3.20
 -13  26  -3    6.60    3.20
  26 -13  -3    1.80    3.40
  13  13   3    1.80    3.30
 -13  27  -3   51.19    5.20
  27 -14  -3   44.40    6.10
  14  13   3   39.00    5.60
 -12  26  -3    8.80    3.10
  26 -14  -3    6.00    3.40
  26 -14  -3   -4.70    3.10
  14  12   3    1.90    3.20
 -11  25  -3   72.49    6.10
  25 -14  -3   73.19    6.70
  25 -14  -3   84.19    6.10
  14  11   3   70.69    6.30
 -10  24  -3    1.70    2.60
  24 -14  -3    4.00    2.80
  24 -14  -3   -0.40    2.80
  14  10   3   -7.40    3.50
  14  10   3   -0.10    2.60
  23 -14  -3    4.90    2.50
  23 -14  -3    0.10    2.90
  -9  23  -3    7.50    2.50
  14   9   3   -0.20    3.20
  14   9   3    7.10    2.70
  -8  22  -3    4.00    2.30
  22 -14  -3    3.10    2.70
  14   8   3    1.80    2.90
  14   8   3    6.70    2.50
  -7  21  -3   12.20    2.60
  21 -14  -3   12.60    2.80
  14   7   3   12.90    2.70
  14   7   3   10.50    2.80
  20 -14  -3    4.50    3.10
  -6  20  -3    5.30    2.00
  14   6   3    1.00    2.00
  14   6   3    1.80    2.30
  19 -14  -3   28.70    3.50
  14   5   3   21.20    3.50
  14   5   3   26.90    3.20
  -4  18  -3   19.90    2.80
  18 -14  -3   16.60    3.00
  14   4   3   14.20    2.60
  14   4   3   14.80    3.00
  -3  17  -3    3.70    1.80
  17 -14  -3    0.70    1.80
  14   3   3    4.70    2.10
   3 -17   3    3.90    2.00
  14   3   3    3.40    1.90
  16 -14  -3    8.80    1.90
  -2  16  -3   13.50    2.50
 -14  -2  -3    7.40    1.70
  14   2   3    9.60    1.60
  14   2   3   10.70    2.00
   2 -16   3    7.90    2.00
  15 -14  -3    2.00    1.50
 -14  -1  -3    2.80    1.70
  -1  15  -3    0.20    1.60
  14   1   3    2.80    1.80
   1 -15   3    1.10    1.60
  14 -14  -3    6.60    1.70
   0  14  -3    6.30    1.70
 -14   0  -3    7.70    1.80
  14   0   3    2.10    1.70
   0 -14   3    3.40    1.50
 -14   1  -3    5.10    1.90
  13 -14  -3    3.90    1.60
   1  13  -3    3.50    1.60
  -1 -13   3    6.00    1.40
  14  -1   3    5.60    1.80
   2  12  -3   51.79    3.70
  12 -14  -3   52.39    3.70
 -14   2  -3   39.80    3.80
 -12  14   3   50.99    3.80
  14  -2   3   47.10    3.90
  -2 -12   3   43.90    3.70
 -14   3  -3   16.70    2.50
   3  11  -3   16.60    2.30
  11 -14  -3   17.80    2.40
 -11  14   3   19.60    2.40
  14  -3   3   15.00    2.50
  -3 -11   3   13.20    2.40
   4  10  -3  129.59    7.80
 -14   4  -3  129.29    7.90
  10 -14  -3  130.79    7.80
  -4 -10   3  121.99    7.80
  14  -4   3  131.69    8.10
 -10  14   3  122.99    7.90
   9 -14  -3   23.60    2.50
   5   9  -3   21.50    2.40
 -14   5  -3   21.10    2.60
  -9  14   3   21.20    2.60
  -5  -9   3   23.70    2.40
  14  -5   3   24.30    3.00
 -14   6  -3  135.09    8.30
   8 -14  -3  135.39    8.30
   6   8  -3  134.09    8.20
  -6  -8   3  132.69    8.20
  14  -6   3  149.88    8.60
  -8  14   3  131.99    8.40
   7   7  -3   18.50    2.20
 -14   7  -3   17.20    2.20
   7 -14  -3   18.70    2.30
  -7  -7   3   16.70    2.10
  -7  14   3   22.00    2.60
  14  -7   3   17.80    2.80
   6 -14  -3    5.40    1.50
   8   6  -3    6.60    1.50
  -6  14   3    4.30    1.40
  -8  -6   3   11.70    2.00
 -14   9  -3   12.90    2.20
   9   5  -3   10.40    2.00
   5 -14  -3   11.80    2.10
  -5  14   3    9.00    1.70
  -9  -5   3    9.60    1.80
  14  -9   3   14.10    2.70
 -14  10  -3   37.10    3.20
   4 -14  -3   28.70    2.70
  10   4  -3   32.10    2.70
  -4  14   3   23.60    2.70
  14 -10   3   30.70    3.40
 -10  -4   3   26.40    2.80
   3 -14  -3   27.30    2.60
   3 -14  -3   25.40    2.70
 -14  11  -3   25.30    3.00
  11   3  -3   23.60    2.50
  -3  14   3   24.60    2.70
  -3  14   3   28.30    2.60
 -11  -3   3   26.90    2.80
  14 -11   3   28.70    3.30
   2 -14  -3    9.10    1.90
 -14  12  -3   10.80    1.90
  12   2  -3    8.80    1.70
   2 -14  -3   13.60    2.20
 -12  -2   3    9.30    2.00
  -2  14   3   13.90    2.30
  -2  14   3    8.50    1.70
  14 -12   3    9.60    2.40
 -14  13  -3   37.50    3.20
  13   1  -3   28.50    2.80
   1 -14  -3   29.40    2.90
   1 -14  -3   29.40    3.00
 -14  13  -3   28.70    3.10
  -1  14   3   23.60    3.00
  -1  14   3   32.70    3.00
 -13  -1   3   26.50    3.20
   0 -14  -3    5.50    1.60
 -14  14  -3    2.50    1.90
   0 -14  -3    6.70    2.10
 -14  14  -3    4.40    1.70
  14   0  -3    4.60    1.70
   0  14   3    6.20    2.00
 -14   0   3    4.90    2.00
   0  14   3    1.10    1.60
 -14  15  -3   26.40    3.00
  15  -1  -3   23.70    2.80
  -1 -14  -3   24.40    2.80
 -14  15  -3   30.80    3.30
 -14  15  -3   26.50    2.50
  -1 -14  -3   23.80    3.10
   1  14   3   28.50    3.10
 -15   1   3   22.40    3.40
   1  14   3   23.20    2.90
  -2 -14  -3    7.90    2.40
  16  -2  -3    9.90    2.00
 -14  16  -3    7.80    1.80
 -14  16  -3   10.50    2.20
 -14  16  -3    7.70    2.20
   2  14   3    3.90    1.90
   2  14   3   11.80    2.20
 -16   2   3    6.80    2.40
  -3 -14  -3   -2.10    2.40
 -14  17  -3    0.20    2.30
  17  -3  -3    1.70    2.00
 -14  17  -3   -0.30    1.80
 -14  17  -3    2.20    1.90
   3  14   3    1.40    2.10
   3  14   3   -3.90    2.00
 -17   3   3   -2.60    2.20
  18  -4  -3   17.10    3.00
 -14  18  -3   18.50    3.10
 -14  18  -3   18.60    3.20
  -4 -14  -3   15.70    3.10
 -14  18  -3   19.90    3.90
   4  14   3   18.00    3.20
 -18   4   3   18.40    3.00
   4  14   3   17.70    3.00
  -5 -14  -3   20.60    4.00
 -14  19  -3   28.90    3.50
 -14  19  -3   29.30    3.80
  19  -5  -3   27.30    3.40
 -14  19  -3   25.30    4.40
   5  14   3   29.60    4.40
   5  14   3   28.50    3.60
 -19   5   3   26.00    4.10
  -6 -14  -3    2.50    3.00
 -14  20  -3    0.60    2.50
  20  -6  -3    1.10    2.10
 -14  20  -3    6.70    3.50
 -14  20  -3    2.10    2.20
   6  14   3    4.20    3.30
   6  14   3    2.60    2.40
 -20   6   3    3.30    2.90
  21  -7  -3   43.00    6.00
 -14  21  -3   44.30    4.90
  21  -7  -3   41.20    4.10
 -21   7   3   39.10    5.00
 -14  22  -3    5.50    2.40
  22  -8  -3   11.70    2.60
  22  -8  -3    6.80    3.00
 -14  22  -3    4.60    3.50
 -22   8   3   10.40    3.50
   8  14   3    8.80    2.90
  23  -9  -3   32.50    4.00
 -14  23  -3   26.70    4.40
 -14  23  -3   29.60    3.90
  23  -9  -3   28.20    5.10
   9  14   3   29.60    4.20
 -23   9   3   28.70    4.30
  24 -10  -3   14.30    3.30
 -14  24  -3    9.40    2.60
  24 -10  -3   13.50    3.20
 -24  10   3    9.20    4.00
  10  14   3   12.30    3.40
  25 -11  -3    6.80    3.20
  25 -11  -3    2.70    3.20
 -14  25  -3   -0.10    2.70
  11  14   3    5.80    3.30
 -14  26  -3    2.30    3.10
  26 -12  -3    1.20    3.30
  26 -12  -3    2.70    3.40
  12  14   3    2.80    3.50
  27 -13  -3   20.50    4.40
 -14  27  -3   24.20    4.40
  27 -13  -3   29.00    4.80
  13  14   3   19.40    4.20
 -12  27  -3   20.60    3.80
  27 -15  -3   16.30    4.10
  15  12   3    9.10    3.60
 -11  26  -3   18.30    3.50
  26 -15  -3   10.70    3.60
  15  11   3   18.30    3.60
  25 -15  -3   43.40    4.80
  25 -15  -3   31.50    5.10
 -10  25  -3   38.40    4.80
  15  10   3   38.50    4.80
  -9  24  -3    3.50    2.80
  24 -15  -3    7.40    3.00
  24 -15  -3   -1.80    2.70
  15   9   3   -2.50    3.40
  15   9   3    9.70    3.00
  23 -15  -3   14.40    3.20
  -8  23  -3   15.20    3.10
  15   8   3    7.00    3.20
  15   8   3   13.90    2.90
  22 -15  -3    8.60    2.70
  -7  22  -3   11.60    2.70
  15   7   3    7.60    2.60
  15   7   3    4.00    2.90
  -6  21  -3    4.60    2.30
  21 -15  -3    1.10    2.50
  15   6   3    1.50    2.50
  15   6   3    4.30    2.20
  -5  20  -3   12.80    2.50
  20 -15  -3   12.20    3.30
  15   5   3   11.10    2.40
  15   5   3   14.80    2.90
  -4  19  -3   10.90    2.30
  19 -15  -3    8.30    2.30
  15   4   3    7.90    2.10
  15   4   3    5.70    2.10
  18 -15  -3    9.80    2.10
  15   3   3    8.30    2.20
  15   3   3    9.60    2.00
  -2  17  -3   50.69    4.00
  17 -15  -3   49.70    4.10
  15   2   3   38.70    4.90
  15   2   3   42.30    3.60
  16 -15  -3   18.10    2.80
  -1  16  -3   13.80    2.60
  15   1   3   13.30    2.30
   1 -16   3   16.40    2.60
   0  15  -3   85.79    5.70
 -15   0  -3   76.29    5.80
  15 -15  -3   92.19    5.80
   0 -15   3   83.29    5.60
  15   0   3   85.99    5.90
  14 -15  -3   33.30    3.10
   1  14  -3   34.70    3.10
 -15   1  -3   27.20    3.20
  15  -1   3   29.20    3.20
  -1 -14   3   26.40    2.80
 -15   2  -3   17.60    2.80
  13 -15  -3    8.70    1.80
   2  13  -3    9.40    2.00
  15  -2   3   13.50    2.50
  -2 -13   3    8.90    1.80
 -13  15   3   10.10    1.90
 -15   3  -3   15.40    2.60
  12 -15  -3   17.00    2.40
   3  12  -3   16.40    2.40
 -12  15   3   19.60    2.60
  15  -3   3   15.10    2.70
  -3 -12   3   12.20    2.50
  11 -15  -3    4.30    1.60
   4  11  -3    5.90    1.60
 -15   4  -3    7.30    1.80
  -4 -11   3    3.50    1.50
  15  -4   3    7.10    2.00
 -11  15   3    1.70    1.40
 -15   5  -3   13.70    2.30
  10 -15  -3    7.20    1.60
   5  10  -3    6.10    1.80
 -10  15   3    4.40    1.50
  15  -5   3    9.70    2.10
  -5 -10   3   12.20    2.10
   9 -15  -3   30.80    2.80
 -15   6  -3   24.70    2.70
   6   9  -3   27.60    2.80
  -9  15   3   28.80    3.00
  15  -6   3   33.50    3.40
  -6  -9   3   30.80    2.70
 -15   7  -3   12.70    2.20
   7   8  -3    6.80    1.70
   8 -15  -3    6.30    1.60
  -8  15   3    8.80    1.90
  15  -7   3    9.30    2.10
  -7  -8   3   12.60    1.90
   8   7  -3    0.90    1.50
   7 -15  -3    4.50    1.50
 -15   8  -3    7.70    1.70
  -8  -7   3    3.50    1.40
  -7  15   3    2.20    1.50
  15  -8   3    1.00    1.90
   9   6  -3   31.40    2.90
 -15   9  -3   35.80    3.10
   6 -15  -3   30.80    3.00
  -6  15   3   28.70    3.10
  15  -9   3   35.00    3.50
  -9  -6   3   31.10    3.00
 -15  10  -3   70.99    4.80
  10   5  -3   67.89    4.50
   5 -15  -3   64.09    4.50
  15 -10   3   74.49    5.10
 -10  -5   3   60.09    4.70
  -5  15   3   60.69    4.60
   4 -15  -3    3.00    1.50
 -15  11  -3    2.70    1.70
  11   4  -3    5.50    1.60
   4 -15  -3    2.10    1.40
 -11  -4   3    0.80    1.50
  15 -11   3    3.40    1.90
  -4  15   3    3.20    1.40
  12   3  -3   12.00    2.20
   3 -15  -3   11.50    1.80
 -15  12  -3   14.40    2.70
 -12  -3   3   12.40    2.20
  -3  15   3   13.90    2.30
  15 -12   3   11.70    2.50
  -3  15   3   15.50    2.40
   2 -15  -3   23.60    2.60
   2 -15  -3   21.50    2.90
 -15  13  -3   23.00    2.90
  13   2  -3   22.50    2.60
  -2  15   3   17.90    2.80
 -13  -2   3   19.10    3.00
  15 -13   3   28.10    3.60
  -2  15   3   23.30    2.70
   1 -15  -3    0.60    2.10
 -15  14  -3    0.90    1.90
  14   1  -3    1.00    1.60
   1 -15  -3    3.50    1.50
 -15  14  -3    2.00    1.70
 -14  -1   3   -1.50    2.00
  -1  15   3    0.40    1.80
  -1  15   3   -2.80    1.60
   0 -15  -3   81.09    5.70
   0 -15  -3   75.19    5.40
  15   0  -3   79.49    5.40
 -15  15  -3   85.49    5.60
 -15  15  -3   86.29    5.80
   0  15   3   69.69    5.50
   0  15   3   84.89    5.50
 -15   0   3   78.59    5.80
 -15  16  -3    3.80    2.00
 -15  16  -3    5.50    1.80
  -1 -15  -3    3.00    2.50
  16  -1  -3    4.10    1.90
 -15  16  -3    4.90    2.30
 -16   1   3    5.10    2.60
   1  15   3    0.60    1.80
   1  15   3    4.30    2.20
  -2 -15  -3    7.90    2.70
 -15  17  -3    7.60    1.80
 -15  17  -3    7.50    2.80
  17  -2  -3   10.40    2.20
 -15  17  -3    8.20    2.20
   2  15   3    4.80    2.20
 -17   2   3    7.40    2.70
   2  15   3    8.50    2.50
 -15  18  -3   47.20    4.20
  -3 -15  -3   34.10    4.40
 -15  18  -3   46.60    4.60
 -15  18  -3   45.90    3.90
  18  -3  -3   45.20    3.80
   3  15   3   42.60    4.10
   3  15   3   32.60    4.40
 -18   3   3   39.80    4.50
 -15  19  -3    5.10    2.20
  -4 -15  -3    1.90    3.10
 -15  19  -3    6.90    2.20
 -15  19  -3    3.60    2.90
  19  -4  -3    0.30    2.20
   4  15   3    3.00    2.30
 -19   4   3    1.80    2.70
 -15  20  -3    4.40    2.50
  -5 -15  -3    0.50    3.30
 -15  20  -3    3.80    2.20
  20  -5  -3    2.10    2.30
   5  15   3    3.40    2.50
 -20   5   3    0.90    2.80
  21  -6  -3   16.90    3.30
 -15  21  -3   16.50    3.10
 -15  21  -3   18.50    3.70
   6  15   3   17.30    3.80
 -21   6   3   14.60    3.40
 -15  22  -3    4.20    3.10
 -15  22  -3    4.90    2.50
  22  -7  -3    4.60    2.70
  22  -7  -3    8.70    3.10
 -22   7   3    1.70    3.40
   7  15   3    9.10    2.80
 -15  23  -3    3.30    2.60
  23  -8  -3    0.80    3.00
 -15  23  -3    3.90    3.50
  23  -8  -3    3.80    2.80
 -23   8   3    0.80    3.70
   8  15   3    2.00    2.80
  24  -9  -3   11.90    3.10
  24  -9  -3   13.10    3.60
 -15  24  -3    8.90    2.70
 -24   9   3    8.10    4.30
   9  15   3   10.00    3.20
  25 -10  -3    7.20    3.40
 -15  25  -3    3.60    2.90
  25 -10  -3   10.10    3.80
 -25  10   3    9.30    4.60
  10  15   3   11.40    3.70
  26 -11  -3   22.70    4.30
  26 -11  -3   20.90    4.00
 -15  26  -3   17.90    3.50
  11  15   3   26.60    4.90
  27 -12  -3   21.80    4.30
  27 -12  -3   15.60    4.20
 -15  27  -3   18.90    3.80
  12  15   3   26.40    5.10
  27 -16  -3   24.10    4.60
 -11  27  -3   26.90    5.10
  16  11   3   32.50    4.80
  26 -16  -3   -0.40    3.50
 -10  26  -3    4.30    3.30
  16  10   3    7.90    3.30
  -9  25  -3   10.60    3.20
  25 -16  -3    4.40    3.40
  16   9   3    0.60    3.80
  16   9   3   11.30    3.10
  24 -16  -3   17.40    3.40
  -8  24  -3   13.90    3.10
  16   8   3   16.50    3.20
  16   8   3    6.50    3.50
  23 -16  -3    4.00    2.90
  -7  23  -3    4.20    2.90
  16   7   3    4.60    2.70
  16   7   3    2.30    3.10
  -6  22  -3   13.90    2.80
  22 -16  -3   13.60    2.70
  16   6   3   15.80    2.90
  16   6   3    8.10    2.90
  21 -16  -3   13.10    2.80
  -5  21  -3   17.50    3.00
  16   5   3   15.00    2.60
  16   5   3   12.70    2.70
  -4  20  -3    2.40    2.30
  20 -16  -3    3.90    2.30
  16   4   3   -1.40    1.90
  16   4   3    1.70    2.10
  -3  19  -3   16.50    2.70
  16   3   3   14.30    2.60
  16   3   3   12.80    2.20
  -2  18  -3   30.40    3.20
  18 -16  -3   32.90    3.90
  16   2   3   25.90    3.20
  16   2   3   19.50    2.80
  -1  17  -3   25.20    4.20
  17 -16  -3   24.10    3.10
  16   1   3   20.00    3.00
  16 -16  -3   16.10    2.80
   0  16  -3   17.00    3.10
  16   0   3   12.20    3.30
  15 -16  -3    4.30    1.70
   1  15  -3    7.50    2.00
  -1 -15   3    4.70    2.10
  16  -1   3    5.90    2.00
 -16   2  -3    9.50    2.20
  14 -16  -3   13.70    2.50
   2  14  -3   12.60    2.50
 -14  16   3   17.90    3.00
  -2 -14   3   12.90    2.30
  16  -2   3   10.10    2.20
 -16   3  -3   14.00    2.70
   3  13  -3   11.60    2.00
  13 -16  -3    8.70    1.90
  16  -3   3   11.00    2.10
  -3 -13   3   12.50    2.10
 -13  16   3    9.00    2.00
   4  12  -3   33.30    3.10
  12 -16  -3   32.10    3.10
 -16   4  -3   27.00    3.00
  -4 -12   3   29.10    3.10
  16  -4   3   35.30    3.40
 -12  16   3   33.30    3.20
  11 -16  -3   24.60    2.80
 -16   5  -3   24.50    2.70
   5  11  -3   21.20    2.70
 -11  16   3   23.30    2.70
  -5 -11   3   21.60    2.70
  16  -5   3   26.50    3.30
 -16   6  -3   57.69    4.20
   6  10  -3   55.79    4.20
  10 -16  -3   59.09    4.20
  -6 -10   3   56.19    4.20
  16  -6   3   60.49    4.70
 -10  16   3   52.09    4.20
   7   9  -3    4.20    1.70
   9 -16  -3    2.40    1.50
 -16   7  -3    6.70    1.80
  -9  16   3    4.80    1.70
  -7  -9   3    3.50    1.50
  16  -7   3    4.00    1.90
 -16   8  -3   14.40    2.50
   8   8  -3    7.20    1.80
   8 -16  -3    7.70    1.80
  16  -8   3   11.00    2.30
  -8  -8   3    4.40    1.50
  -8  16   3    6.90    1.80
 -16   9  -3   35.70    3.40
   9   7  -3   33.00    3.00
   7 -16  -3   33.60    3.10
  -9  -7   3   30.50    3.10
  16  -9   3   35.00    3.60
  -7  16   3   29.90    3.20
 -16  10  -3   21.30    2.70
  10   6  -3   17.60    2.40
   6 -16  -3   19.20    2.50
  -6  16   3   14.40    2.70
  16 -10   3   20.40    3.10
 -10  -6   3   13.70    2.70
 -16  11  -3   11.80    2.10
   5 -16  -3    5.60    1.60
  11   5  -3    7.80    1.80
 -11  -5   3    7.40    1.90
  16 -11   3   11.00    2.50
  -5  16   3    6.10    1.60
 -16  12  -3   21.90    2.80
   4 -16  -3   15.80    2.60
   4 -16  -3   20.20    2.50
  12   4  -3   17.80    2.40
  -4  16   3   15.10    2.50
 -12  -4   3   18.00    2.70
  -4  16   3   17.80    2.50
  16 -12   3   21.50    3.30
   3 -16  -3    6.10    1.70
 -16  13  -3    7.10    2.00
  13   3  -3    6.90    1.80
   3 -16  -3    7.10    2.10
  16 -13   3    4.70    2.20
  -3  16   3    3.50    1.60
 -13  -3   3    6.30    2.00
  -3  16   3    8.10    1.90
  14   2  -3    8.30    1.90
   2 -16  -3   11.80    2.20
 -16  14  -3    9.60    2.30
   2 -16  -3    9.80    1.80
  -2  16   3    8.50    2.10
 -14  -2   3    6.90    2.30
  -2  16   3    4.10    1.90
 -16  15  -3   11.30    2.20
  15   1  -3   10.30    2.20
   1 -16  -3   13.20    2.60
 -16  15  -3   14.20    2.60
   1 -16  -3    9.70    1.90
  -1  16   3    7.00    2.00
  -1  16   3   12.80    2.20
 -15  -1   3   11.10    2.60
 -16  16  -3   11.60    2.40
  16   0  -3   11.00    2.20
   0 -16  -3   14.30    2.80
 -16  16  -3   10.10    2.70
   0  16   3   13.10    2.50
 -16   0   3    7.40    2.70
  17  -1  -3   25.90    3.20
 -16  17  -3   28.40    3.60
 -16  17  -3   30.10    3.40
 -16  17  -3   27.30    4.20
  -1 -16  -3   25.60    4.00
   1  16   3   26.50    3.40
 -17   1   3   24.60    3.90
 -16  18  -3   33.60    3.50
  18  -2  -3   34.70    3.60
  -2 -16  -3   33.40    4.40
 -16  18  -3   30.70    4.50
 -16  18  -3   37.50    3.90
 -18   2   3   30.10    4.40
   2  16   3   37.70    3.90
 -16  19  -3    5.50    2.30
 -16  19  -3    5.80    2.20
  -3 -16  -3   -0.20    3.10
  19  -3  -3    4.40    2.40
 -16  19  -3    0.70    3.30
 -19   3   3   -1.40    2.90
   3  16   3    2.60    2.50
 -16  20  -3    2.40    2.50
 -16  20  -3    5.00    3.40
  20  -4  -3    0.10    2.50
  -4 -16  -3    0.40    3.40
 -20   4   3   -0.30    3.20
   4  16   3   -0.50    2.50
  21  -5  -3   37.70    4.00
 -16  21  -3   44.20    4.20
 -16  21  -3   44.90    4.70
   5  16   3   39.20    4.40
 -21   5   3   35.40    5.20
 -16  22  -3    0.80    3.20
  22  -6  -3   -0.80    2.60
 -16  22  -3    1.90    2.60
 -22   6   3    0.00    3.60
   6  16   3   -0.60    2.80
 -16  23  -3   28.70    3.90
  23  -7  -3   31.40    4.80
  23  -7  -3   32.50    4.00
 -16  23  -3   24.50    4.20
 -23   7   3   27.40    4.40
   7  16   3   23.10    4.30
 -16  24  -3    1.90    2.70
  24  -8  -3    1.50    3.00
  24  -8  -3   -1.60    3.00
 -16  24  -3   -0.60    4.10
 -24   8   3    0.30    4.30
   8  16   3    1.80    2.90
  25  -9  -3    7.40    3.60
 -16  25  -3    2.50    2.90
  25  -9  -3    7.20    3.40
   9  16   3    4.70    3.30
 -25   9   3    7.30    4.80
 -16  26  -3    5.60    3.20
  26 -10  -3    7.00    3.80
  26 -10  -3    8.50    3.70
  10  16   3    8.50    3.60
  27 -11  -3    5.60    4.20
  27 -11  -3   -0.40    3.70
 -16  27  -3    2.70    3.20
  11  16   3    9.40    4.00
  27 -17  -3    1.90    3.80
 -10  27  -3   10.30    3.50
  17  10   3    7.40    3.50
  26 -17  -3    6.00    3.50
  -9  26  -3   11.00    3.30
  17   9   3    6.40    3.20
  25 -17  -3    2.40    3.30
  -8  25  -3    9.10    3.10
  17   8   3    4.40    3.00
  -7  24  -3    7.90    2.90
  24 -17  -3    7.10    3.20
  17   7   3    1.00    3.40
  17   7   3    6.50    2.70
  23 -17  -3    0.20    2.90
  -6  23  -3    5.60    2.80
  17   6   3   -2.00    2.90
  17   6   3    2.90    2.40
  22 -17  -3    3.20    2.60
  -5  22  -3    4.80    2.70
  17   5   3    0.40    2.30
  17   5   3    0.10    2.60
  21 -17  -3    0.30    2.40
  -4  21  -3    2.20    2.30
  17   4   3    2.70    2.20
  17   4   3    0.10    2.30
  -3  20  -3   -2.10    2.10
  20 -17  -3    3.80    2.20
  17   3   3    0.70    2.10
  17   3   3    2.30    2.10
  19 -17  -3   11.00    2.40
  -2  19  -3   12.20    2.50
  17   2   3   13.80    2.50
  18 -17  -3    8.50    2.40
  -1  18  -3   12.90    2.40
  17   1   3    9.50    2.20
   0  17  -3  134.59    8.60
  17   0   3  138.09    8.80
   1  16  -3   31.40    3.30
  16 -17  -3   31.40    3.50
  17  -1   3   36.00    3.60
  15 -17  -3   10.60    2.00
 -15  17   3   10.10    3.60
  17  -2   3   13.40    2.80
  14 -17  -3    0.90    1.60
   3  14  -3    1.90    2.00
 -14  17   3    2.00    2.10
  17  -3   3   -0.80    2.10
 -17   4  -3    0.50    2.00
  13 -17  -3   -0.30    1.50
   4  13  -3    1.10    1.70
  17  -4   3    3.30    1.90
 -13  17   3    1.20    1.90
  12 -17  -3    1.30    1.50
   5  12  -3    0.00    1.50
 -17   5  -3   -0.30    1.80
 -12  17   3    0.30    1.60
  17  -5   3    1.70    2.00
  -5 -12   3    2.90    1.80
  11 -17  -3   16.50    2.50
   6  11  -3   16.20    2.50
 -17   6  -3   23.50    2.70
  17  -6   3   19.90    3.20
  -6 -11   3   16.30    2.70
 -11  17   3   15.00    2.50
 -17   7  -3    4.90    2.00
  10 -17  -3    2.70    1.60
   7  10  -3    4.30    1.70
  17  -7   3    1.80    2.00
 -10  17   3    1.30    1.60
  -7 -10   3    5.20    1.70
   9 -17  -3   25.20    2.70
 -17   8  -3   23.70    3.00
   8   9  -3   23.00    2.70
  -8  -9   3   21.80    2.60
  -9  17   3   21.60    3.10
  17  -8   3   28.10    3.40
 -17   9  -3    7.30    2.10
   8 -17  -3    7.20    1.70
   9   8  -3    4.20    1.70
  -9  -8   3    6.60    1.70
  -8  17   3    6.40    1.80
  17  -9   3    4.00    2.20
 -17  10  -3    9.20    2.20
   7 -17  -3   11.80    1.80
  10   7  -3   12.10    2.20
  17 -10   3   12.80    2.50
  -7  17   3    9.20    2.10
 -10  -7   3   14.80    2.70
  11   6  -3    0.90    1.60
   6 -17  -3    2.10    1.50
 -17  11  -3    4.00    1.90
  -6  17   3    1.00    1.50
  17 -11   3    4.50    2.30
 -11  -6   3    3.90    1.80
  12   5  -3   -0.40    1.60
   5 -17  -3    2.10    1.60
 -17  12  -3    3.80    1.90
  17 -12   3   -1.50    2.10
  -5  17   3   -0.10    1.60
 -12  -5   3    1.30    1.90
  13   4  -3   14.00    2.40
   4 -17  -3   13.90    2.50
 -17  13  -3   18.00    2.90
   4 -17  -3   10.90    2.00
  -4  17   3   15.40    2.60
  17 -13   3   19.70    3.40
  -4  17   3   10.00    1.90
 -13  -4   3   11.50    2.30
 -17  14  -3    5.10    2.30
   3 -17  -3    4.00    1.70
   3 -17  -3    4.70    2.20
  14   3  -3    2.50    1.80
 -14  -3   3    1.00    2.00
  -3  17   3    4.70    2.00
  17 -14   3    1.60    2.50
 -17  15  -3   48.90    4.40
  15   2  -3   39.10    3.70
   2 -17  -3   41.30    3.90
   2 -17  -3   39.50    4.10
 -17  15  -3   46.80    4.00
  -2  17   3   37.40    3.80
 -15  -2   3   39.00    4.20
 -17  16  -3   19.60    3.90
   1 -17  -3   20.90    3.00
 -17  16  -3   21.00    3.10
  16   1  -3   18.30    2.80
 -16  -1   3   15.50    3.00
  -1  17   3   17.10    2.70
 -17  17  -3  140.39    8.30
   0 -17  -3  128.09    8.40
  17   0  -3  117.39    7.90
 -17  17  -3  138.29    8.60
   0  17   3  122.49    8.20
 -17   0   3  119.59    8.50
 -17  18  -3   31.30    3.30
  -1 -17  -3   30.30    4.30
 -17  18  -3   37.70    3.70
  18  -1  -3   28.10    3.50
 -17  18  -3   30.10    4.60
 -18   1   3   24.50    4.30
   1  17   3   22.60    3.70
 -17  19  -3   15.00    2.50
 -17  19  -3   19.50    3.30
  -2 -17  -3   22.00    3.70
  19  -2  -3   20.30    3.40
   2  17   3   16.80    3.10
 -19   2   3   13.20    3.50
  -3 -17  -3    4.70    3.60
  20  -3  -3    1.40    2.50
 -17  20  -3    7.30    2.50
   3  17   3    4.10    2.80
 -20   3   3    3.60    3.30
  21  -4  -3   -4.90    2.60
  -4 -17  -3    3.00    4.10
 -17  21  -3    3.80    2.50
 -17  21  -3    3.70    2.70
   4  17   3    0.50    2.70
 -21   4   3   -0.80    3.40
  22  -5  -3    5.30    2.80
 -17  22  -3    8.40    2.60
 -17  22  -3   10.40    3.30
 -22   5   3    5.60    3.80
   5  17   3    3.80    3.20
 -17  23  -3    2.50    2.80
 -17  23  -3    3.80    3.70
  23  -6  -3    6.80    3.10
 -23   6   3    0.40    4.10
   6  17   3   -1.20    3.00
 -17  24  -3    2.00    4.10
  24  -7  -3    6.90    3.30
 -17  24  -3    1.20    2.80
  24  -7  -3    8.20    3.40
   7  17   3    3.30    3.10
 -24   7   3    6.70    6.90
 -17  25  -3   -4.70    2.60
  25  -8  -3    1.50    3.60
   8  17   3    1.60    3.30
  26  -9  -3    8.20    4.10
 -17  26  -3    1.70    3.00
   9  17   3    8.50    3.60
  27 -10  -3   -3.00    3.90
  27 -10  -3    7.30    3.90
 -17  27  -3   -2.70    3.30
  10  17   3   -0.60    3.70
  26 -18  -3   20.50    4.40
  -8  26  -3   24.80    4.20
  18   8   3   27.90    4.30
  25 -18  -3    1.80    3.40
  -7  25  -3    6.70    3.50
  18   7   3    7.10    2.90
  24 -18  -3   34.60    5.10
  -6  24  -3   38.40    4.60
  18   6   3   26.40    4.10
  23 -18  -3    7.70    2.90
  -5  23  -3    7.70    3.20
  18   5   3    6.20    2.50
  18   5   3    5.40    3.00
  -4  22  -3   27.10    4.20
  22 -18  -3   37.90    4.30
  18   4   3   25.30    4.30
  18   4   3   34.40    3.90
  -3  21  -3   14.10    2.80
  21 -18  -3   19.40    3.60
  18   3   3   11.10    2.80
  18   3   3   11.60    2.50
  20 -18  -3   11.00    2.50
  -2  20  -3    9.60    2.60
  18   2   3   10.10    2.40
  19 -18  -3   14.90    2.60
  -1  19  -3   14.70    2.70
  18   1   3   15.40    2.50
   0  18  -3   19.90    3.00
  18 -18  -3   15.00    2.50
  18   0   3   12.80    2.60
  17 -18  -3   31.00    3.60
   1  17  -3   34.70    3.50
  18  -1   3   33.80    3.60
  16 -18  -3   40.00    3.70
   2  16  -3   36.60    3.70
  18  -2   3   39.70    4.00
   3  15  -3   45.80    3.90
  15 -18  -3   40.60    4.80
  18  -3   3   52.79    4.20
   4  14  -3   18.50    2.70
  18  -4   3   22.60    3.20
  13 -18  -3   12.30    2.60
   5  13  -3   12.40    2.60
  18  -6   3   10.10    2.60
 -18   7  -3    2.30    2.40
  11 -18  -3    0.90    1.70
   7  11  -3    0.60    2.40
  18  -7   3    4.10    2.30
 -18   8  -3    4.80    2.10
  10 -18  -3    0.70    1.50
   8  10  -3    1.70    1.70
  18  -8   3    1.70    2.20
   9   9  -3   35.60    3.30
 -18   9  -3   36.30    3.70
   9 -18  -3   40.20    3.50
  18  -9   3   40.90    4.10
  -9  -9   3   39.60    4.60
 -18  10  -3    6.70    2.30
   8 -18  -3    3.90    1.60
  10   8  -3    5.30    1.70
 -10  -8   3    7.50    2.30
  18 -10   3    1.00    2.10
 -18  11  -3   61.79    4.80
   7 -18  -3   56.59    5.20
  11   7  -3   53.19    4.30
 -11  -7   3   60.29    4.60
  18 -11   3   72.49    5.10
 -18  12  -3   20.50    3.10
  12   6  -3   16.40    2.50
  18 -12   3   22.10    3.70
 -12  -6   3   17.40    2.90
   5 -18  -3   28.30    3.90
 -18  13  -3   36.90    3.70
   5 -18  -3   27.30    4.50
  13   5  -3   29.00    3.10
 -13  -5   3   30.10    3.50
  18 -13   3   43.00    4.20
 -18  14  -3   20.60    3.60
   4 -18  -3   14.60    2.70
   4 -18  -3   15.00    3.00
  14   4  -3   19.20    2.70
  18 -14   3   24.00    3.90
 -14  -4   3   15.10    2.70
  -4  18   3   19.20    2.90
 -18  15  -3   12.90    2.90
   3 -18  -3    9.40    2.00
   3 -18  -3   10.60    2.50
  15   3  -3   10.10    2.20
  -3  18   3   12.20    2.30
  18 -15   3   11.30    3.00
 -15  -3   3   10.70    2.70
   2 -18  -3   25.50    3.80
 -18  16  -3   25.00    4.30
 -18  16  -3   19.30    3.30
  16   2  -3   21.00    3.00
   2 -18  -3   22.60    2.90
 -16  -2   3   20.70    4.00
  -2  18   3   21.40    3.30
 -18  17  -3    8.50    2.50
  17   1  -3    9.00    2.20
   1 -18  -3    9.90    3.00
 -18  17  -3    3.90    3.60
  -1  18   3    9.90    2.50
 -17  -1   3    6.40    3.30
   0 -18  -3   13.60    3.40
 -18  18  -3   16.60    2.90
  18   0  -3   15.30    2.70
 -18   0   3    9.90    3.70
   0  18   3   10.90    2.70
  19  -1  -3    6.80    2.60
  -1 -18  -3    3.50    3.50
 -18  19  -3    4.60    2.10
   1  18   3    0.90    2.60
  -2 -18  -3   12.90    4.00
  20  -2  -3   11.20    3.60
 -18  20  -3   11.50    2.60
 -18  20  -3   17.80    3.40
   2  18   3   12.60    3.10
 -18  21  -3    9.20    2.70
  -3 -18  -3    9.70    4.20
 -18  21  -3    7.90    2.70
   3  18   3    5.60    2.90
 -18  22  -3    3.10    3.00
 -18  22  -3    1.50    2.60
  22  -4  -3   -2.10    3.20
   4  18   3   -4.80    3.50
 -18  23  -3    7.70    3.60
  23  -5  -3    6.10    3.30
 -18  23  -3   12.40    3.10
   5  18   3    1.80    3.30
 -18  24  -3    2.00    2.90
 -18  24  -3   -0.30    3.80
  24  -6  -3    5.80    3.50
   6  18   3   -5.20    3.20
 -18  25  -3   -3.80    2.90
  25  -7  -3    5.30    3.70
  25  -7  -3   -0.30    3.60
   7  18   3   -3.30    3.50
 -18  26  -3    2.00    3.30
  26  -8  -3    5.80    4.20
  26  -8  -3    8.90    3.90
   8  18   3    7.30    3.70
  26 -19  -3    7.70    3.70
  -7  26  -3    0.60    3.40
  19   7   3    5.60    2.90
  25 -19  -3    5.10    3.40
  -6  25  -3    1.10    3.20
  19   6   3    1.80    2.70
  24 -19  -3    2.70    2.90
  -5  24  -3    0.60    2.90
  19   5   3    2.60    2.40
  -4  23  -3    4.10    2.90
  23 -19  -3    3.10    2.80
  19   4   3    0.50    2.40
  22 -19  -3    8.30    2.80
  -3  22  -3   10.20    2.80
  19   3   3    7.80    3.10
  19   3   3   13.00    2.80
  21 -19  -3   -1.60    2.40
  -2  21  -3    3.50    2.40
  19   2   3    2.40    2.20
  -1  20  -3   10.00    2.60
  20 -19  -3    7.00    2.50
  19   1   3    7.80    2.30
  19 -19  -3   16.70    2.80
   0  19  -3   16.70    2.80
  19   0   3   12.40    2.90
   1  18  -3    4.80    2.20
  18 -19  -3    5.00    2.10
  19  -1   3    5.80    2.20
  17 -19  -3   22.00    3.20
   2  17  -3   18.00    3.00
  19  -2   3   29.10    3.40
   3  16  -3    0.50    1.90
  16 -19  -3    1.70    1.90
  19  -3   3    5.10    2.20
   4  15  -3    5.60    1.90
  15 -19  -3    5.50    1.80
  19  -4   3    6.80    2.40
  14 -19  -3   23.20    3.10
   5  14  -3   30.70    3.20
  19  -5   3   32.90    3.70
   6  13  -3   20.10    2.80
  13 -19  -3   21.20    2.90
  19  -6   3   24.60    3.50
   7  12  -3   26.40    3.20
  12 -19  -3   33.90    3.20
  19  -7   3   37.30    4.10
   8  11  -3   24.00    2.80
  11 -19  -3   24.50    2.80
   9  10  -3    1.80    1.60
  10 -19  -3    2.90    1.60
  19  -9   3    2.00    3.50
   9 -19  -3   13.40    2.40
  10   9  -3    7.00    2.00
  19 -10   3   11.00    2.80
  11   8  -3    7.80    2.10
   8 -19  -3    6.80    1.80
  19 -11   3   13.80    2.80
 -19  12  -3    7.30    3.10
  12   7  -3    6.30    2.20
   7 -19  -3    6.20    1.90
  19 -12   3   11.00    2.70
   6 -19  -3    1.10    1.60
  13   6  -3   -0.70    2.00
 -19  13  -3    3.10    3.30
  19 -13   3   -1.50    2.60
   5 -19  -3   24.30    3.00
   5 -19  -3   25.70    3.30
  14   5  -3   24.20    3.40
 -19  14  -3   31.70    5.90
  -5  19   3   29.70    3.20
  19 -14   3   28.60    4.20
   4 -19  -3    6.10    2.50
   4 -19  -3    6.10    2.00
  15   4  -3    6.50    2.70
  19 -15   3   10.60    3.00
  -4  19   3   10.30    2.40
   3 -19  -3   11.90    2.90
   3 -19  -3   11.50    2.10
  16   3  -3   10.90    2.50
  -3  19   3   12.80    2.50
   2 -19  -3    7.60    2.90
  17   2  -3   10.80    2.40
  -2  19   3    8.30    2.60
 -19  18  -3   16.00    3.40
   1 -19  -3   16.40    3.70
  18   1  -3   13.80    2.80
  -1  19   3   13.40    2.90
  19   0  -3   19.70    3.40
 -19  19  -3   15.90    2.90
   0 -19  -3   18.20    4.10
   0  19   3   16.10    3.10
 -19  20  -3   47.90    4.50
 -19  20  -3   51.19    4.70
  -1 -19  -3   45.30    6.00
  20  -1  -3   47.30    4.80
   1  19   3   39.90    4.80
 -19  21  -3    8.20    2.70
  -2 -19  -3    7.00    4.40
 -19  21  -3   10.50    3.00
  21  -2  -3    4.70    3.10
   2  19   3    5.80    3.00
 -19  22  -3   18.00    3.40
  22  -3  -3   15.80    3.60
 -19  22  -3   27.30    4.00
 -19  23  -3   12.30    3.20
 -19  23  -3    9.90    4.00
  23  -4  -3    9.10    3.30
   4  19   3    9.80    3.40
  24  -5  -3    0.80    3.50
 -19  24  -3    2.40    3.20
   5  19   3    0.20    3.40
  25  -6  -3    4.90    3.70
 -19  25  -3    3.90    3.20
   6  19   3   -0.90    3.70
 -19  26  -3   -2.30    3.30
  26  -7  -3    2.40    4.10
  26  -7  -3   -0.40    4.00
   7  19   3    0.60    3.80
  26 -20  -3   31.60    5.60
  -6  26  -3   25.40    5.00
  20   6   3   23.40    3.70
  -5  25  -3   11.00    3.50
  25 -20  -3    9.30    3.70
  20   5   3   10.40    2.90
  -4  24  -3   18.30    3.80
  24 -20  -3   18.00    3.60
  20   4   3   15.70    3.20
  23 -20  -3    3.50    2.90
  -3  23  -3    0.20    2.90
  20   3   3    3.00    2.60
  22 -20  -3    4.00    3.00
  -2  22  -3    5.20    2.90
  20   2   3    8.20    2.40
  -1  21  -3    6.30    2.60
  21 -20  -3    6.10    2.90
  20   1   3    6.50    2.50
  20 -20  -3    6.20    2.50
   0  20  -3    8.20    2.50
  20   0   3    7.40    2.90
   1  19  -3   38.70    4.10
  19 -20  -3   45.50    4.30
  20  -1   3   50.79    4.40
   2  18  -3   14.70    2.80
  18 -20  -3   14.30    2.60
  20  -2   3   23.10    3.40
  17 -20  -3    7.90    2.10
   3  17  -3    7.40    2.40
  20  -3   3    9.50    2.50
   4  16  -3    2.50    2.00
  16 -20  -3    0.40    1.80
  20  -4   3    0.20    2.20
  15 -20  -3    4.00    2.00
   5  15  -3    5.10    1.90
  20  -5   3    5.80    2.50
  14 -20  -3    4.30    1.90
   6  14  -3    1.40    1.90
  20  -6   3    9.10    2.80
   7  13  -3    0.50    1.70
  13 -20  -3   -1.60    1.60
  20  -7   3    2.50    2.40
  12 -20  -3   11.20    2.10
   8  12  -3   12.90    2.20
  20  -8   3   19.80    3.50
  11 -20  -3   12.50    2.40
   9  11  -3   13.30    2.10
  20  -9   3   16.90    3.00
  10  10  -3    9.40    2.10
  10 -20  -3   10.80    2.00
  20 -10   3   14.00    3.10
  11   9  -3   54.49    4.50
   9 -20  -3   59.29    4.50
  20 -11   3   71.99    5.30
   8 -20  -3   16.30    2.60
  12   8  -3   16.20    2.60
  20 -12   3   20.70    3.90
  13   7  -3   32.70    3.20
   7 -20  -3   28.10    3.20
  20 -13   3   30.40    4.80
   6 -20  -3    4.90    1.80
  14   6  -3    2.70    1.80
  20 -14   3    4.20    3.10
  15   5  -3   11.20    2.50
   5 -20  -3    9.20    2.10
   5 -20  -3   14.50    2.80
  -5  20   3   16.70    3.00
  20 -15   3   17.90    3.60
  16   4  -3    1.10    2.00
   4 -20  -3    3.00    2.70
   4 -20  -3   -0.30    1.70
  20 -16   3    4.40    3.10
  -4  20   3    2.50    2.30
   3 -20  -3   -0.30    3.00
 -20  17  -3   -1.50    2.50
  17   3  -3    0.00    2.20
  -3  20   3   -2.70    2.40
 -20  18  -3   12.70    2.70
  18   2  -3    6.00    2.70
   2 -20  -3    9.50    3.40
  -2  20   3    9.60    2.90
   1 -20  -3    6.50    3.70
 -20  19  -3   12.30    2.90
  19   1  -3    8.40    2.80
  -1  20   3    9.10    3.00
  20   0  -3    8.60    3.00
 -20  20  -3   10.20    2.90
   0 -20  -3    3.40    4.00
   0  20   3    8.10    3.10
  -1 -20  -3   22.30    5.00
 -20  21  -3   17.00    3.10
  21  -1  -3   19.90    3.40
 -20  21  -3   21.10    3.40
   1  20   3   17.10    3.60
  22  -2  -3    3.70    3.20
 -20  22  -3    7.20    2.90
   2  20   3    6.30    4.10
 -20  23  -3    9.30    3.30
  23  -3  -3    2.40    3.20
   3  20   3   -0.10    3.30
  24  -4  -3   -0.50    3.40
 -20  24  -3   -3.30    3.10
   4  20   3   -5.90    3.30
  25  -5  -3    6.50    3.80
 -20  25  -3    4.90    3.50
   5  20   3   -2.10    3.70
  26  -6  -3    4.20    4.20
 -20  26  -3    3.20    3.40
   6  20   3    7.20    4.10
  25 -21  -3    0.40    3.60
  -4  25  -3    2.20    3.30
  21   4   3   -0.10    2.90
  -3  24  -3    0.20    2.90
  24 -21  -3    0.60    3.10
  21   3   3    0.60    2.80
  23 -21  -3   11.40    3.30
  -2  23  -3    8.00    3.00
  21   2   3   15.70    2.90
  22 -21  -3    1.90    2.60
  -1  22  -3   -0.90    2.70
  21   1   3    4.20    2.60
  21 -21  -3    7.10    2.70
   0  21  -3    0.10    2.50
  21   0   3    4.00    2.90
  20 -21  -3   22.50    3.70
   1  20  -3   17.20    3.10
  21  -1   3   22.80    3.60
  19 -21  -3    9.20    2.50
   2  19  -3   10.10    2.60
  21  -2   3   18.20    3.50
  18 -21  -3    5.70    2.30
   3  18  -3   10.20    2.70
  21  -3   3   13.80    2.60
   4  17  -3    0.50    2.10
  17 -21  -3   -0.40    2.10
  21  -4   3    2.10    2.40
  16 -21  -3   46.60    4.10
   5  16  -3   40.50    4.00
  21  -5   3   53.19    4.80
   6  15  -3   18.50    2.90
  15 -21  -3   15.80    2.80
  21  -6   3   22.00    3.90
  14 -21  -3   38.50    3.80
   7  14  -3   39.10    3.70
  21  -7   3   53.79    4.70
   8  13  -3    5.90    1.90
  13 -21  -3    8.40    1.90
  21  -8   3   12.40    3.10
  12 -21  -3   23.80    2.90
   9  12  -3   20.50    2.80
  21  -9   3   29.90    3.90
  11 -21  -3   -1.20    1.60
  10  11  -3    4.70    1.80
  21 -10   3    2.20    2.60
  11  10  -3    3.50    1.80
  10 -21  -3    4.40    1.80
  21 -11   3    3.10    2.70
   9 -21  -3    3.70    1.70
  12   9  -3    1.10    1.80
  21 -12   3    2.40    2.80
  13   8  -3    8.30    2.20
   8 -21  -3    9.10    2.00
  21 -13   3   17.50    3.60
   7 -21  -3   14.90    3.00
  14   7  -3   12.00    2.30
   7 -21  -3   14.00    2.70
  21 -14   3   10.20    3.40
  15   6  -3    2.40    2.20
   6 -21  -3    4.10    2.00
   6 -21  -3    5.70    2.70
  21 -15   3    2.70    3.20
   5 -21  -3   12.20    2.20
  16   5  -3   15.60    2.60
   5 -21  -3   15.30    3.20
  -5  21   3   17.50    3.30
  21 -16   3   24.00    3.80
  17   4  -3    2.20    2.20
   4 -21  -3    3.40    3.10
  -4  21   3   -1.00    2.60
   3 -21  -3   15.10    3.70
 -21  18  -3   17.70    3.10
  18   3  -3   13.60    3.00
  -3  21   3   11.40    3.00
  19   2  -3    3.30    2.70
 -21  19  -3    2.50    2.80
   2 -21  -3    2.00    3.80
  -2  21   3    2.20    2.90
  20   1  -3   10.60    3.00
 -21  20  -3    5.90    2.90
   1 -21  -3    8.80    4.20
  -1  21   3    7.20    3.30
  21   0  -3    6.00    3.10
   0 -21  -3    3.00    4.40
 -21  21  -3    4.20    2.80
   0  21   3    0.30    3.30
  22  -1  -3   76.39    6.90
 -21  22  -3   97.99    6.90
   1  21   3   79.09    7.00
  23  -2  -3    6.50    3.40
 -21  23  -3    8.20    3.30
   2  21   3    3.20    3.50
 -21  24  -3   39.30    4.90
  24  -3  -3   26.10    5.10
   3  21   3   33.30    4.80
  25  -4  -3   -0.10    3.90
 -21  25  -3   -1.80    3.50
   4  21   3   -3.00    3.90
  -3  25  -3   -0.80    3.40
  25 -22  -3   -1.20    3.40
  22   3   3    2.50    3.10
  24 -22  -3    3.60    3.50
  -2  24  -3   -2.10    3.30
  22   2   3    5.60    2.90
  -1  23  -3   21.40    3.90
  23 -22  -3   22.30    4.30
  22   1   3   23.40    3.60
   0  22  -3    6.90    3.20
  22 -22  -3    8.30    2.90
  22   0   3    7.10    3.20
  21 -22  -3   91.99    6.70
   1  21  -3   84.29    6.60
  22  -1   3   85.29    6.60
   2  20  -3   10.50    2.70
  20 -22  -3    2.50    2.70
  22  -2   3   20.90    3.80
   3  19  -3   19.30    3.00
  19 -22  -3   17.90    3.60
  22  -3   3   27.80    3.90
  18 -22  -3   -0.30    2.40
   4  18  -3   -0.90    2.30
  22  -4   3    0.60    2.60
   5  17  -3    7.40    2.50
  17 -22  -3    6.80    2.20
  22  -5   3   11.80    3.00
   6  16  -3    0.40    2.10
  16 -22  -3    0.80    2.00
  22  -6   3    6.50    2.90
  15 -22  -3    3.70    2.00
   7  15  -3    5.40    2.10
  22  -7   3    8.60    3.10
  14 -22  -3    6.50    1.90
   8  14  -3    4.50    2.00
  22  -8   3    9.00    3.30
   9  13  -3    3.10    1.90
  13 -22  -3   -0.20    1.80
  22  -9   3    3.60    3.00
  12 -22  -3   13.30    2.70
  10  12  -3   13.90    2.40
  22 -10   3   25.30    4.30
  11  11  -3    4.20    2.00
  11 -22  -3    4.30    1.80
  22 -11   3   -2.60    3.10
  12  10  -3   14.80    2.60
  10 -22  -3   13.80    2.60
  22 -12   3   16.00    3.20
   9 -22  -3   22.20    3.00
  13   9  -3   21.90    3.10
   8 -22  -3    3.90    2.70
   8 -22  -3    4.10    1.80
  14   8  -3    5.00    2.10
  22 -14   3    5.60    3.40
   7 -22  -3    9.90    2.20
   7 -22  -3   11.80    3.20
  15   7  -3    7.20    2.30
  22 -15   3   13.00    3.70
   6 -22  -3   17.40    3.30
   6 -22  -3   11.60    2.20
  16   6  -3    7.80    2.40
  22 -16   3   19.50    4.00
   5 -22  -3    3.20    3.40
  17   5  -3   -0.50    2.30
  22 -17   3   -0.20    3.70
  -5  22   3    0.20    2.60
 -22  18  -3   40.50    4.60
  18   4  -3   23.80    3.80
   4 -22  -3   35.10    5.10
  -4  22   3   26.40    4.30
   3 -22  -3   11.50    4.10
 -22  19  -3   11.60    3.00
  19   3  -3    9.50    3.20
  -3  22   3    7.90    3.30
  20   2  -3    8.40    3.20
   2 -22  -3    8.30    4.30
 -22  20  -3    7.40    3.00
  -2  22   3    4.10    3.40
 -22  21  -3    2.00    3.10
  21   1  -3    7.40    3.40
   1 -22  -3    4.80    4.70
  -1  22   3    0.50    3.40
  22   0  -3    3.90    3.60
 -22  22  -3    5.00    3.30
   0  22   3    5.70    3.70
  23  -1  -3    4.60    4.00
 -22  23  -3    9.50    3.60
   1  22   3   13.70    4.10
  24  -2  -3    7.80    3.60
 -22  24  -3   10.20    3.70
   2  22   3    4.30    3.90
  25  -3  -3   12.40    4.50
 -22  25  -3   13.90    4.10
   3  22   3    6.00    4.30
  24 -23  -3   -0.70    3.30
  -1  24  -3    1.30    3.40
  23   1   3   -0.60    3.10
   0  23  -3    3.90    3.10
  23 -23  -3    1.90    3.00
  23   0   3    5.20    3.40
   1  22  -3   10.40    3.00
  22 -23  -3    2.90    3.10
  23  -1   3   14.50    3.00
  21 -23  -3    6.10    3.00
   2  21  -3    6.20    2.80
  23  -2   3   10.80    3.20
   3  20  -3    4.70    2.50
  20 -23  -3    3.20    2.70
  23  -3   3    7.60    2.90
  19 -23  -3   15.30    2.80
   4  19  -3   18.40    3.40
  23  -4   3   18.90    3.30
  18 -23  -3    7.10    2.60
   5  18  -3    6.70    2.60
  23  -5   3   15.20    3.30
  17 -23  -3    2.10    2.20
   6  17  -3    0.70    2.00
  23  -6   3    8.40    2.90
  16 -23  -3   27.30    3.30
   7  16  -3   19.70    3.30
  23  -7   3   36.50    4.70
   8  15  -3    1.30    2.00
  15 -23  -3   -0.50    2.10
  23  -8   3    6.00    3.40
   9  14  -3   23.70    3.20
  14 -23  -3   25.50    3.20
  13 -23  -3   -0.30    1.80
  10  13  -3    4.40    2.10
  23 -10   3   -1.00    3.10
  11  12  -3   11.70    2.40
  12 -23  -3    9.80    2.10
  23 -11   3   10.30    3.70
  11 -23  -3   32.50    3.30
  12  11  -3   28.80    3.30
  23 -12   3   34.60    4.80
  10 -23  -3   19.00    3.00
  13  10  -3   21.70    3.00
  23 -13   3   27.60    4.70
   9 -23  -3    6.70    2.00
  14   9  -3    1.70    2.10
  23 -14   3    8.20    3.70
  15   8  -3   10.50    2.40
   8 -23  -3   11.20    2.30
  23 -15   3   15.30    4.30
   7 -23  -3    1.50    1.90
  16   7  -3    4.60    2.20
   7 -23  -3    7.20    3.50
  23 -16   3    6.50    3.80
  17   6  -3    1.10    2.20
   6 -23  -3    4.70    4.10
  23 -17   3    2.80    3.80
  -6  23   3    3.80    2.80
   5 -23  -3    7.70    4.40
  18   5  -3    0.70    2.70
  -5  23   3    6.50    3.10
 -23  19  -3    1.60    2.90
  19   4  -3    3.10    2.90
  -4  23   3    0.50    3.20
 -23  20  -3    0.60    3.10
  20   3  -3    4.60    3.00
  -3  23   3   -1.20    3.20
 -23  21  -3   10.10    3.60
  21   2  -3   11.30    3.70
  -2  23   3   12.10    3.90
 -23  22  -3   29.70    4.80
  22   1  -3   19.80    4.20
  -1  23   3   21.00    4.40
  23   0  -3    1.30    3.70
 -23  23  -3    9.10    3.90
   0  23   3    8.50    4.10
  24  -1  -3   29.20    5.40
 -23  24  -3   36.80    5.40
   1  23   3   33.50    4.90
   1  23  -3   32.40    4.70
  23 -24  -3   41.00    5.30
  24  -1   3   39.80    4.90
  22 -24  -3    6.20    3.30
   2  22  -3   12.00    3.20
  24  -2   3   24.10    4.50
   3  21  -3   25.70    4.20
  21 -24  -3   34.00    4.50
  24  -3   3   44.20    5.10
  20 -24  -3   -2.20    2.60
   4  20  -3    0.10    2.70
  24  -4   3    1.50    3.10
  19 -24  -3   -1.40    2.60
   5  19  -3   -4.20    2.20
  24  -5   3    7.80    3.40
  18 -24  -3    1.50    2.30
   6  18  -3   -0.90    2.30
  24  -6   3    1.80    3.00
  17 -24  -3   -0.40    2.30
   7  17  -3    0.90    2.20
  24  -7   3   10.60    3.70
   8  16  -3    3.20    2.20
  24  -8   3    3.60    3.50
  15 -24  -3    6.10    2.20
   9  15  -3    6.70    2.10
  24  -9   3   15.40    3.90
  10  14  -3   11.90    2.50
  14 -24  -3   12.90    2.30
  24 -10   3   11.50    3.70
  13 -24  -3    4.80    2.00
  11  13  -3    6.20    2.20
  24 -11   3    3.60    3.60
  12  12  -3   30.10    3.40
  12 -24  -3   25.00    3.30
  24 -12   3   33.10    5.30
  11 -24  -3    4.60    2.00
  13  11  -3    5.10    2.20
  24 -13   3   -0.40    3.80
  10 -24  -3   -0.30    2.10
  14  10  -3   -0.10    2.10
  24 -14   3    3.90    3.60
   9 -24  -3    0.10    2.00
  15   9  -3    2.50    2.20
  24 -15   3    4.00    4.00
   8 -24  -3   13.10    2.30
  16   8  -3   12.60    2.80
  24 -16   3   22.90    4.50
  17   7  -3    3.80    2.30
  24 -17   3   10.00    4.30
  18   6  -3   21.90    3.70
  24 -18   3   44.80    6.50
  -6  24   3   26.30    4.50
  19   5  -3    7.20    3.10
 -24  19  -3    7.00    3.40
  -5  24   3    1.00    3.40
 -24  20  -3   28.30    4.90
  20   4  -3   20.20    3.90
  -4  24   3   15.70    3.90
 -24  21  -3    3.40    3.50
  21   3  -3    2.10    3.40
  -3  24   3   -2.40    3.50
 -24  22  -3    1.40    3.70
  22   2  -3    0.50    3.60
  -2  24   3    1.00    4.00
  23   1  -3   -0.90    3.60
 -24  23  -3   -2.80    3.80
  -1  24   3   -0.90    4.90
   3  22  -3    5.80    3.20
  22 -25  -3    8.30    3.30
  25  -3   3   14.40    3.70
   4  21  -3   -0.40    2.70
  21 -25  -3    1.30    2.90
  25  -4   3    2.90    3.40
  20 -25  -3    6.00    2.80
   5  20  -3   -0.20    2.60
  25  -5   3    3.80    3.70
  19 -25  -3   -1.50    2.60
   6  19  -3   -1.80    2.60
  25  -6   3    4.50    3.50
   7  18  -3    3.80    2.40
  18 -25  -3   -2.50    2.50
  25  -7   3   11.10    3.90
   8  17  -3   -4.20    2.20
  17 -25  -3   -3.10    2.40
  25  -8   3    5.30    3.60
  16 -25  -3    1.90    2.40
   9  16  -3    2.60    2.40
  25  -9   3    7.10    3.90
  10  15  -3    8.80    2.30
  15 -25  -3    6.50    2.30
  25 -10   3    5.60    3.80
  11  14  -3    2.50    2.20
  14 -25  -3    3.70    2.20
  25 -11   3    3.10    3.80
  12  13  -3   38.10    4.20
  13 -25  -3   48.90    4.30
  25 -12   3   61.29    6.40
  12 -25  -3   28.80    3.40
  13  12  -3   20.20    3.20
  25 -13   3   22.50    4.40
  11 -25  -3   57.99    4.80
  14  11  -3   54.69    5.00
  10 -25  -3   20.70    3.40
  15  10  -3   28.60    3.50
  25 -15   3   43.00    6.40
   9 -25  -3    5.10    2.20
  16   9  -3    4.30    2.40
  25 -16   3   10.20    4.50
  17   8  -3    4.30    2.50
  25 -17   3   10.20    4.50
  18   7  -3    3.30    3.10
  25 -18   3    5.70    4.80
  19   6  -3    0.40    3.10
  -6  25   3    3.00    3.60
 -25  20  -3   12.10    4.10
  20   5  -3   15.80    3.60
  -5  25   3   14.90    4.00
  21   4  -3    5.70    3.80
 -25  21  -3   -1.90    3.80
  -4  25   3    1.00    3.90
 -25  22  -3    2.50    4.00
  22   3  -3    3.30    3.90
  -3  25   3   -1.10    4.20
  20 -26  -3    4.70    3.00
   6  20  -3    3.70    2.70
  26  -6   3    4.90    3.80
   7  19  -3   -2.00    2.40
  19 -26  -3   -3.80    2.70
  26  -7   3    3.40    4.30
  18 -26  -3    6.10    2.80
   8  18  -3    6.70    2.70
  26  -8   3   17.50    4.70
  17 -26  -3    7.70    2.60
   9  17  -3    2.80    2.40
  26  -9   3   12.50    4.80
  16 -26  -3    5.90    2.40
  10  16  -3    5.10    2.30
  26 -10   3    9.30    4.40
  15 -26  -3   16.50    2.80
  11  15  -3   17.80    3.50
  26 -11   3   33.30    6.20
  14 -26  -3    4.20    2.40
  12  14  -3    7.20    2.30
  26 -12   3    6.80    4.50
  13 -26  -3    2.00    2.20
  13  13  -3    2.30    2.20
  26 -13   3   11.90    4.40
  14  12  -3    3.10    2.50
  12 -26  -3    4.30    2.40
  26 -14   3    9.60    4.50
  11 -26  -3    8.50    2.30
  15  11  -3   11.40    2.70
  26 -15   3   26.50    5.30
  16  10  -3   -0.50    2.50
  26 -16   3    4.10    4.90
  17   9  -3    5.20    2.80
  26 -17   3   12.20    4.90
  18   8  -3   12.90    3.40
  19   7  -3    5.60    3.60
  26 -19   3    5.10    5.50
 -26  20  -3   29.00    4.80
  20   6  -3   24.80    4.20
  17 -27  -3   -2.20    2.60
  10  17  -3   -1.90    2.50
  27 -10   3    0.40    4.70
  11  16  -3    3.40    2.40
  16 -27  -3    7.10    2.80
  27 -11   3    3.20    4.80
  15 -27  -3   15.90    2.90
  12  15  -3   12.90    2.90
  27 -12   3   31.90    5.30
  13  14  -3   15.70    3.10
  14 -27  -3   18.90    3.60
  27 -13   3   21.00    5.40
  14  13  -3   30.30    4.00
  13 -27  -3   40.60    4.20
  27 -14   3   56.29    6.90
  15  12  -3   10.60    2.70
  12 -27  -3    9.50    2.50
  27 -15   3   20.40    5.00
  16  11  -3   24.00    3.70
  27 -16   3   38.70    7.30
  17  10  -3    2.10    2.70
  27 -17   3    9.00    5.30
   0   0  -4 2312.77  128.49
   0   0  -4 2288.57  128.49
  -1   0  -4  124.19    7.60
  -1   0  -4  113.59    7.60
   0   1  -4  118.09    7.60
   1  -1  -4  141.49    7.60
   0   1  -4  111.09    7.60
   1  -1  -4  135.09    7.60
   1  -1  -4  135.69    7.70
  -1   0  -4  118.49    7.50
   0  -1  -4  121.59    7.50
   1   0  -4  117.69    7.50
  -1   1  -4  118.99    7.50
   1   0  -4  107.19    7.50
   0  -1  -4  142.29    7.50
   0  -1  -4  126.39    7.60
  -1   1  -4  123.59    7.50
  -1  -1  -4   25.50    2.30
  -1   2  -4   22.20    2.50
   2  -1  -4   22.10    2.40
  -1   2  -4   22.60    2.50
  -1  -1  -4   19.50    2.40
   2  -1  -4   25.90    2.40
  -1  -1  -4   20.50    2.40
   3  -2  -4   51.09    3.70
  -1   3  -4   47.80    3.70
  -1   3  -4   47.50    3.70
  -2  -1  -4   48.40    3.40
   3  -2  -4   44.40    3.80
  -2  -1  -4   47.00    3.50
   3  -2  -4   52.19    3.50
   2   1   4   47.70    3.70
   2  -2  -4   38.40    3.10
   0   2  -4   37.90    3.10
   2  -2  -4   36.90    3.00
   0   2  -4   32.40    3.00
   2  -2  -4   38.90    3.00
  -2   0  -4   37.60    3.00
  -2   0  -4   37.90    3.00
   1  -2  -4   22.40    2.50
  -2   1  -4   25.10    2.60
   1  -2  -4   29.80    2.50
   1  -2  -4   29.80    2.60
  -2   1  -4   22.10    2.40
   1   1  -4   20.50    2.40
  -2   1  -4   24.90    2.50
   1   1  -4   18.60    2.50
   0  -2  -4   25.20    2.80
   2   0  -4   25.00    2.90
  -2   2  -4   34.90    3.00
   0  -2  -4   35.50    2.80
  -2   2  -4   40.80    3.00
   2   0  -4   35.00    2.90
   0  -2  -4   37.30    3.00
   3  -1  -4   35.20    2.90
  -2   3  -4   28.90    3.00
  -1  -2  -4   36.20    2.70
   3  -1  -4   34.00    2.80
  -1  -2  -4   31.20    2.80
  -2   3  -4   31.70    2.90
   1   2   4   32.30    2.90
  -2  -2  -4    0.20    1.00
   4  -2  -4    1.60    1.20
  -2   4  -4    1.00    1.40
  -2  -2  -4    1.50    1.10
   4  -2  -4    1.90    1.60
  -2   4  -4    1.30    1.20
   2   2   4    3.30    1.40
   5  -3  -4   16.80    2.20
  -3  -2  -4   13.50    2.00
  -2   5  -4   12.50    2.20
   5  -3  -4   12.50    1.90
  -3  -2  -4   14.90    2.00
   5  -3  -4   14.80    2.30
  -2   5  -4   14.40    2.00
   3   2   4   16.60    2.30
  -1   4  -4    5.40    1.50
   4  -3  -4    3.40    1.40
  -1   4  -4    5.90    1.40
  -3  -1  -4    5.70    1.30
   4  -3  -4    5.00    1.40
  -3  -1  -4    5.40    1.20
   4  -3  -4    4.00    1.30
   3   1   4    4.10    1.50
   0   3  -4   59.09    4.20
   3  -3  -4   63.09    4.10
   3  -3  -4   62.39    4.30
   3  -3  -4   67.39    4.20
  -3   0  -4   59.79    4.20
  -3   0  -4   55.19    4.10
   0   3  -4   62.49    4.30
   3   0   4   60.19    4.30
   2  -3  -4   32.80    3.10
  -3   1  -4   24.90    2.70
   1   2  -4   36.60    2.90
   2  -3  -4   37.30    2.80
   2  -3  -4   33.70    2.90
   1   2  -4   30.40    2.80
  -3   1  -4   32.80    2.90
   3  -1   4   32.40    3.00
  -3   2  -4   42.20    3.50
   1  -3  -4   45.10    3.70
   1  -3  -4   52.49    3.40
   1  -3  -4   47.70    3.40
   2   1  -4   46.40    3.50
  -3   2  -4   48.20    3.60
   2   1  -4   40.60    3.40
   3   0  -4   62.29    4.20
   0  -3  -4   63.09    4.10
   3   0  -4   65.89    4.30
   0  -3  -4   58.49    4.20
  -3   3  -4   55.59    4.40
  -3   3  -4   62.39    4.30
   0   3   4   64.79    4.30
  -3   4  -4   42.80    3.40
   4  -1  -4   41.70    3.10
  -3   4  -4   45.90    3.30
  -1  -3  -4   39.10    3.20
  -1  -3  -4   43.60    3.20
   4  -1  -4   46.80    3.40
   1   3   4   42.70    3.40
  -2  -3  -4    5.90    1.30
  -3   5  -4    4.80    1.50
  -3   5  -4    4.10    1.20
  -2  -3  -4    5.80    1.20
   5  -2  -4    3.60    1.20
   2   3   4    5.30    1.60
  -3   6  -4   13.20    2.30
  -3  -3  -4   19.20    2.10
  -3  -3  -4   19.40    2.00
  -3   6  -4   18.20    2.10
   6  -3  -4   13.80    1.90
   3   3   4   16.70    2.40
  -4  -3  -4   12.10    1.90
  -3   7  -4   13.70    2.00
   7  -4  -4   10.60    1.70
   7  -4  -4   12.30    2.30
  -4  -3  -4   11.80    1.90
  -3   7  -4   15.60    2.20
   4   3   4   11.00    2.00
  -2   6  -4    4.20    1.40
   6  -4  -4    1.00    1.10
   6  -4  -4    2.40    1.40
  -2   6  -4    3.10    1.10
  -4  -2  -4    5.20    1.20
   6  -4  -4    2.40    1.30
  -4  -2  -4    3.50    1.20
   4   2   4    2.90    1.40
  -1   5  -4   -1.70    1.10
  -1   5  -4   -0.80    1.20
   5  -4  -4    0.80    1.30
   5  -4  -4   -0.80    1.20
  -4  -1  -4   -0.10    1.00
  -4  -1  -4    1.60    1.30
   5  -4  -4    0.00    1.10
   4   1   4    2.40    1.40
  -4   0  -4    2.00    1.10
   4  -4  -4    3.60    1.30
   4  -4  -4    5.50    1.20
  -4   0  -4    5.20    1.30
   0   4  -4    3.40    1.30
   4  -4  -4    2.60    1.30
   0   4  -4    3.40    1.40
   4   0   4    4.30    1.50
  -4   1  -4   39.10    3.20
   1   3  -4   46.90    3.40
  -4   1  -4   44.70    3.40
   3  -4  -4   45.40    3.30
   3  -4  -4   44.20    3.40
   3  -4  -4   43.70    3.30
   4  -1   4   44.00    3.50
   2  -4  -4    0.70    1.30
  -4   2  -4    1.10    1.30
   2   2  -4    3.60    1.30
   2  -4  -4   -0.80    1.20
   2  -4  -4    0.90    1.10
   4  -2   4    1.00    1.50
  -2  -2   4    2.90    1.30
   3   1  -4    5.80    1.40
  -4   3  -4    5.30    1.50
   1  -4  -4    4.50    1.20
  -4   3  -4    4.90    1.60
  -3  -1   4    7.20    1.30
   0  -4  -4    6.10    1.40
  -4   4  -4    3.40    1.40
   4   0  -4    4.20    1.30
  -4   4  -4    4.20    1.30
   0  -4  -4    4.70    1.20
   0   4   4    3.50    1.40
  -4   0   4    4.40    1.30
  -4   5  -4   92.49    5.80
  -1  -4  -4   87.89    5.50
   5  -1  -4   83.59    5.40
  -4   5  -4   93.59    5.70
  -1  -4  -4   89.39    5.60
   1   4   4   88.19    5.70
  -5   1   4   87.09    5.60
   6  -2  -4    3.50    1.20
  -4   6  -4    3.00    1.40
  -4   6  -4    0.80    1.10
  -2  -4  -4    5.10    1.20
  -2  -4  -4    4.80    1.20
  -6   2   4    3.40    1.40
   2   4   4    3.00    1.50
   7  -3  -4   46.40    3.30
  -3  -4  -4   47.70    3.40
  -3  -4  -4   43.80    3.30
  -4   7  -4   47.60    3.70
  -4   7  -4   52.19    3.60
   3   4   4   47.50    3.50
   3   4   4   46.70    3.70
  -7   3   4   47.90    3.80
   8  -4  -4   27.20    2.20
  -4   8  -4   24.70    2.60
  -4  -4  -4   28.50    2.50
   8  -4  -4   29.00    3.00
  -4  -4  -4   26.50    2.50
  -4   8  -4   25.50    2.80
   4   4   4   25.00    2.80
   4   4   4   28.60    2.70
  -8   4   4   25.30    2.60
   9  -5  -4   30.00    2.40
  -5  -4  -4   33.00    2.70
  -4   9  -4   29.70    2.90
  -4   9  -4   27.00    2.90
  -5  -4  -4   29.10    2.60
   9  -5  -4   27.70    3.10
   5   4   4   30.10    3.10
  -9   5   4   29.60    2.70
   5   4   4   34.50    2.90
   8  -5  -4    6.30    1.20
  -3   8  -4    7.40    1.70
  -5  -3  -4    6.30    1.40
  -5  -3  -4    5.90    1.20
   8  -5  -4    5.60    1.60
  -3   8  -4    7.20    1.50
   5   3   4    5.10    1.70
  -2   7  -4    6.50    1.40
   7  -5  -4    2.50    1.10
   7  -5  -4    1.60    1.40
  -5  -2  -4    4.20    1.30
  -2   7  -4    6.10    1.30
  -5  -2  -4    2.50    1.10
   7  -5  -4    2.50    1.30
   5   2   4    1.40    1.60
   6  -5  -4    2.20    1.10
   6  -5  -4    0.90    1.30
  -1   6  -4    4.60    1.40
  -5  -1  -4    3.40    1.30
  -5  -1  -4    3.00    1.10
   6  -5  -4    4.40    1.30
   5   1   4    2.90    1.60
  -5   0  -4    1.50    1.10
   5  -5  -4   -0.50    1.10
   5  -5  -4    0.10    1.30
   0   5  -4   -0.20    1.30
   5  -5  -4    0.00    1.20
  -5   0  -4    2.10    1.30
   5   0   4    2.50    1.50
   0  -5   4    1.90    1.20
   4  -5  -4   86.29    5.40
   4  -5  -4   87.99    5.50
  -5   1  -4   84.09    5.40
   1   4  -4   88.29    5.60
  -5   1  -4   87.09    5.60
   4  -5  -4   88.69    5.60
  -1  -4   4   88.99    5.60
   5  -1   4   86.19    5.70
   3  -5  -4    3.90    1.30
   2   3  -4    6.30    1.40
  -5   2  -4    2.20    1.10
   3  -5  -4    5.00    1.40
   3  -5  -4    3.00    1.30
  -5   2  -4    6.70    1.40
   5  -2   4    5.90    1.60
  -2  -3   4    5.80    1.40
   2  -5  -4   15.00    2.00
   3   2  -4   14.60    2.00
  -5   3  -4   15.00    2.10
  -5   3  -4   10.50    2.00
   2  -5  -4   15.40    2.10
   2  -5  -4   16.10    2.20
  -3  -2   4   15.30    2.00
   5  -3   4   14.00    2.40
  -5   4  -4   -0.70    1.20
   1  -5  -4    1.20    1.40
   1  -5  -4    0.90    1.00
   4   1  -4   -0.10    1.10
  -5   4  -4    0.40    1.10
  -4  -1   4    1.10    1.10
  -1   5   4    1.90    1.40
   5   0  -4    0.30    1.10
  -5   5  -4    1.00    1.10
  -5   5  -4   -0.10    1.20
   0  -5  -4    1.30    1.00
   0  -5  -4    2.40    1.20
   0   5   4    0.80    1.40
  -5   0   4   -0.70    1.10
  -5   6  -4   23.40    2.40
   6  -1  -4   21.00    2.10
  -1  -5  -4   20.70    2.20
  -1  -5  -4   22.20    2.30
  -5   6  -4   24.20    2.50
  -6   1   4   19.30    2.30
   1   5   4   19.70    2.50
   1   5   4   21.80    2.30
  -2  -5  -4    7.50    1.40
   7  -2  -4    6.20    1.30
  -5   7  -4    4.90    1.50
  -5   7  -4    4.00    1.20
  -2  -5  -4   11.60    1.90
  -7   2   4    4.80    1.40
   2   5   4    7.30    1.40
   2   5   4    6.50    1.70
  -3  -5  -4   18.50    2.20
   8  -3  -4   20.30    2.00
  -5   8  -4   17.00    2.30
  -5   8  -4   16.90    2.50
  -3  -5  -4   19.30    2.20
   3   5   4   19.40    2.50
   3   5   4   17.30    2.50
  -8   3   4   18.80    2.30
  -4  -5  -4   10.90    2.00
  -4  -5  -4   13.90    2.00
   4   5   4   10.00    1.70
   4   5   4   15.50    2.50
  10  -5  -4    4.20    1.30
  -5  10  -4    2.60    1.50
  -5  -5  -4    3.60    1.40
  -5  -5  -4    3.50    1.20
  10  -5  -4    3.70    1.70
  -5  10  -4    5.10    1.50
 -10   5   4    4.80    1.40
   5   5   4    5.60    1.70
   5   5   4    4.10    1.40
  -6  -5  -4   11.10    2.10
  -5  11  -4    8.10    1.80
  -5  11  -4    5.10    1.70
  -6  -5  -4    9.20    1.80
  11  -6  -4    2.70    1.80
 -11   6   4    5.40    1.40
   6   5   4    5.20    1.50
   6   5   4    6.50    1.80
  -4  10  -4   29.00    3.10
  10  -6  -4   26.00    3.10
  -6  -4  -4   27.80    2.50
  -4  10  -4   32.40    2.90
  10  -6  -4   28.40    2.30
  -6  -4  -4   31.20    2.70
 -10   6   4   28.40    2.60
   6   4   4   26.80    2.80
   6   4   4   31.00    3.10
  -3   9  -4   17.10    2.30
   9  -6  -4   13.90    2.50
  -3   9  -4   17.80    2.40
   9  -6  -4   16.50    1.70
  -6  -3  -4   15.40    2.00
  -6  -3  -4   12.50    1.90
   6   3   4   19.20    2.60
   8  -6  -4   20.60    2.00
   8  -6  -4   23.70    2.50
   8  -6  -4   26.40    2.80
  -2   8  -4   27.20    2.60
  -6  -2  -4   21.20    2.30
  -6  -2  -4   23.50    2.20
   6   2   4   25.20    2.80
   2  -8   4   25.50    2.40
   7  -6  -4   -1.80    1.30
  -1   7  -4    0.20    1.30
  -6  -1  -4    1.00    1.00
   7  -6  -4    0.20    1.20
  -6  -1  -4    0.90    1.20
   7  -6  -4    0.50    1.00
   1  -7   4    0.60    1.10
   6   1   4    1.40    1.60
   0   6  -4    5.50    1.50
  -6   0  -4    8.90    1.60
   6  -6  -4    5.50    1.40
   6  -6  -4    5.00    1.30
   6  -6  -4    3.10    1.20
  -6   0  -4    8.00    1.20
   0  -6   4    6.50    1.40
   6   0   4    5.60    1.70
   1   5  -4   21.40    2.40
   5  -6  -4   21.30    2.40
   5  -6  -4   18.80    2.20
   5  -6  -4   21.90    2.10
  -6   1  -4   24.80    2.40
  -6   1  -4   23.30    2.10
   6  -1   4   23.90    2.70
  -1  -5   4   19.90    2.30
  -6   2  -4    5.50    1.40
   4  -6  -4    3.30    1.20
   4  -6  -4    2.20    1.20
   4  -6  -4    2.80    1.20
   2   4  -4    2.50    1.20
  -6   2  -4    3.50    1.10
  -2  -4   4    2.70    1.30
   6  -2   4    5.50    1.60
  -6   3  -4   15.20    2.00
   3  -6  -4   16.20    2.20
   3  -6  -4   17.40    2.10
   3   3  -4   16.10    2.10
   3  -6  -4   17.00    2.10
  -6   3  -4   16.20    1.90
  -3  -3   4   15.80    2.10
   6  -3   4   17.10    2.40
  -6   4  -4    2.30    1.10
   4   2  -4    3.30    1.20
   2  -6  -4    2.20    1.30
   2  -6  -4    2.70    1.20
  -2   6   4    2.10    1.40
   6  -4   4    2.70    1.70
  -4  -2   4    2.70    1.30
  -6   5  -4    3.60    1.10
  -6   5  -4    1.40    1.40
   1  -6  -4    3.40    1.20
   1  -6  -4    2.80    1.20
   5   1  -4    2.90    1.30
  -1   6   4    1.70    1.30
  -5  -1   4    4.40    1.20
   0  -6  -4    5.50    1.40
  -6   6  -4    4.80    1.50
   0  -6  -4    6.20    1.30
   6   0  -4    5.80    1.30
  -6   6  -4    6.20    1.40
  -6   0   4    5.10    1.40
   0   6   4    6.60    1.60
   0   6   4    5.70    1.30
  -6   7  -4   57.29    4.20
   7  -1  -4   55.39    3.80
  -1  -6  -4   60.59    4.00
  -1  -6  -4   52.89    3.80
  -6   7  -4   59.19    4.10
   1   6   4   55.49    4.00
  -7   1   4   57.59    4.00
   1   6   4   52.19    4.10
  -2  -6  -4    4.10    1.30
  -6   8  -4    3.40    1.40
  -2  -6  -4    4.70    1.50
   8  -2  -4    5.60    1.30
  -6   8  -4    2.40    1.30
  -8   2   4    3.70    1.40
   2   6   4    3.30    1.60
   2   6   4    3.60    1.40
  -6   9  -4   98.19    6.50
  -3  -6  -4  107.59    6.20
   9  -3  -4   97.79    6.10
  -6   9  -4  102.59    6.50
  -3  -6  -4   96.89    6.30
   3   6   4   98.69    6.40
   3   6   4   99.79    6.40
  -9   3   4  101.09    6.20
  -6  10  -4   11.30    2.00
  10  -4  -4   12.00    1.80
  -4  -6  -4   13.00    2.20
  -4  -6  -4   13.20    2.10
  -6  10  -4   11.40    2.00
 -10   4   4   11.30    1.80
   4   6   4   16.30    2.50
   4   6   4   17.00    2.50
  11  -5  -4   50.99    3.50
  11  -5  -4   48.00    4.30
  -5  -6  -4   55.89    4.00
  -6  11  -4   54.49    4.00
  -5  -6  -4   51.99    3.70
  -6  11  -4   50.09    4.00
   5   6   4   52.19    4.10
   5   6   4   50.89    4.00
  -6  -6  -4   24.40    2.70
  -6  -6  -4   20.80    2.30
  12  -6  -4   14.00    2.50
  12  -6  -4   20.70    2.10
  -6  12  -4   17.90    2.60
  -6  12  -4   16.50    2.60
 -12   6   4   19.00    2.40
   6   6   4   17.90    2.80
   6   6   4   21.90    2.90
  13  -7  -4    9.00    1.70
  -7  -6  -4    5.80    1.40
  13  -7  -4    0.20    1.90
  -6  13  -4    5.60    1.70
  -7  -6  -4    9.80    1.90
  -6  13  -4    6.70    1.60
   7   6   4    7.30    1.80
   7   6   4    5.40    1.90
 -13   7   4    5.90    1.60
  12  -7  -4   42.80    4.00
  -5  12  -4   47.60    3.60
  -7  -5  -4   39.60    3.10
  -5  12  -4   44.00    3.70
  12  -7  -4   37.50    2.90
  -7  -5  -4   43.90    3.50
   7   5   4   43.30    3.70
   7   5   4   41.30    3.60
 -12   7   4   41.20    3.30
  -7  -4  -4    3.10    1.50
  -4  11  -4    3.60    1.60
  11  -7  -4   -2.10    1.60
  -4  11  -4    5.20    1.80
  -7  -4  -4    2.70    1.10
   7   4   4    3.70    1.50
   7   4   4    5.50    1.80
  -7  -3  -4    3.00    1.10
  -3  10  -4    2.70    1.40
  10  -7  -4   -0.60    1.50
   7   3   4    3.20    1.60
   3 -10   4    3.60    1.50
   9  -7  -4    2.80    1.50
  -7  -2  -4    4.30    1.10
  -2   9  -4    5.30    1.50
  -7  -2  -4    3.70    1.40
   2  -9   4    2.10    1.40
   7   2   4    5.60    1.80
  -7  -1  -4   34.40    2.90
   8  -7  -4   37.20    3.10
  -1   8  -4   35.00    3.00
  -7  -1  -4   30.60    2.50
   1  -8   4   30.60    2.80
   7   1   4   31.60    3.20
  -7   0  -4   15.10    2.00
   0   7  -4   11.10    2.00
   7  -7  -4   11.20    2.10
  -7   0  -4   10.30    1.70
   7   0   4   11.00    2.10
   0  -7   4    9.30    1.80
   6  -7  -4   49.90    3.80
   1   6  -4   58.89    4.00
   6  -7  -4   52.69    3.70
   6  -7  -4   57.49    4.10
  -7   1  -4   58.09    4.00
  -7   1  -4   60.19    3.70
  -1  -6   4   56.69    3.90
   7  -1   4   58.79    4.20
   5  -7  -4    6.10    1.30
   2   5  -4    4.00    1.40
   5  -7  -4    5.00    1.30
  -7   2  -4   11.60    1.90
  -7   2  -4    6.10    1.10
   5  -7  -4    5.30    1.30
  -2  -5   4    6.30    1.40
   7  -2   4   10.50    1.90
   4  -7  -4   50.69    3.70
  -7   3  -4   51.39    3.40
   4  -7  -4   49.30    3.40
   4  -7  -4   53.79    3.50
  -7   3  -4   51.19    3.60
   3   4  -4   49.60    3.60
   7  -3   4   49.99    3.90
  -3  -4   4   48.40    3.70
   4   3  -4   11.90    2.00
   3  -7  -4   14.00    2.10
   3  -7  -4   13.30    1.80
  -7   4  -4   17.20    1.90
  -7   4  -4   10.60    1.80
  -4  -3   4   16.20    2.10
   7  -4   4   15.90    2.40
   2  -7  -4    1.60    1.20
   2  -7  -4    2.80    1.30
  -7   5  -4    5.70    1.30
   5   2  -4    3.10    1.20
   7  -5   4    2.50    1.60
  -2   7   4    3.30    1.30
  -2   7   4    2.70    1.30
  -5  -2   4    5.90    1.30
   1  -7  -4    0.30    1.40
   6   1  -4    1.30    1.20
   1  -7  -4    0.80    1.10
  -7   6  -4    0.80    1.40
  -7   6  -4    0.10    1.20
  -6  -1   4    1.30    1.30
  -1   7   4    1.30    1.30
  -1   7   4    1.80    1.20
   7   0  -4   12.10    1.80
   0  -7  -4   11.30    2.00
  -7   7  -4    9.60    1.70
   0  -7  -4    9.80    1.60
  -7   7  -4   12.30    1.80
   0   7   4   10.50    1.80
  -7   0   4   10.90    1.70
   0   7   4   10.40    2.10
  -7   8  -4    0.00    1.40
  -7   8  -4    3.80    1.40
   8  -1  -4    3.40    1.30
  -1  -7  -4    2.40    1.30
  -1  -7  -4    3.80    1.50
   1   7   4    2.90    1.40
   1   7   4    3.60    1.70
  -8   1   4    3.60    1.40
  -2  -7  -4   16.20    2.40
  -7   9  -4   15.60    2.50
   9  -2  -4   18.30    2.10
  -7   9  -4   17.80    2.50
  -2  -7  -4   20.60    2.30
  -9   2   4   17.40    2.40
   2   7   4   19.90    2.50
   2   7   4   18.80    2.60
  -7  10  -4    7.30    1.60
  -3  -7  -4    8.00    1.50
  -3  -7  -4   10.70    2.00
  -7  10  -4    6.30    1.80
  10  -3  -4    7.20    1.50
   3   7   4   10.10    1.90
   3   7   4    7.50    1.70
 -10   3   4    9.50    1.70
  -7  11  -4   45.50    3.50
  -7  11  -4   38.70    3.50
  11  -4  -4   44.00    3.10
  -4  -7  -4   43.80    3.60
  -4  -7  -4   41.80    3.30
 -11   4   4   44.00    3.50
   4   7   4   42.40    3.60
   4   7   4   40.00    3.70
  12  -5  -4   38.00    3.00
  -5  -7  -4   41.30    3.20
  -5  -7  -4   49.50    3.70
  -7  12  -4   37.00    3.50
  -7  12  -4   40.10    3.60
   5   7   4   44.60    3.70
   5   7   4   45.00    3.60
 -12   5   4   36.50    3.40
  -6  -7  -4   29.00    2.70
  13  -6  -4   24.10    3.60
  -6  -7  -4   34.20    3.30
  -7  13  -4   27.20    2.90
  -7  13  -4   27.90    3.10
  13  -6  -4   29.50    2.50
 -13   6   4   29.60    3.00
   6   7   4   29.00    3.20
   6   7   4   30.10    3.40
  14  -7  -4    9.60    1.80
  -7  -7  -4    9.10    2.20
  -7  14  -4    1.70    1.50
  -7  -7  -4    5.20    1.50
  -7  14  -4    4.60    1.90
   7   7   4    7.30    2.10
   7   7   4    4.60    1.90
  -7  15  -4    3.90    1.90
  15  -8  -4    1.60    1.50
  -8  -7  -4    4.40    2.30
  15  -8  -4   -2.80    2.00
  -7  15  -4    6.10    2.00
 -15   8   4    1.60    1.70
   8   7   4    1.90    1.90
   8   7   4    4.20    2.00
  14  -8  -4   17.40    3.30
  -8  -6  -4   22.90    2.90
  -6  14  -4   23.00    2.80
  -6  14  -4   20.40    2.90
 -14   8   4   19.80    2.60
   8   6   4   16.40    3.10
   8   6   4   24.60    3.10
  -5  13  -4  104.39    6.80
  -8  -5  -4   93.19    6.30
  -5  13  -4  110.59    6.80
  -8  -5  -4  104.49    6.70
  13  -8  -4  114.69    7.10
   8   5   4  106.19    6.70
   8   5   4  101.59    6.90
  -8  -4  -4   26.60    2.50
  -8  -4  -4   33.10    2.90
  12  -8  -4   23.60    3.40
  -4  12  -4   31.40    3.00
   8   4   4   31.60    3.00
   4 -12   4   31.60    3.00
   8   4   4   30.90    3.20
  -3  11  -4  192.28   10.90
  -8  -3  -4  174.18   10.70
  -8  -3  -4  157.98   10.40
  11  -8  -4  189.88   11.00
   8   3   4  180.88   10.90
   3 -11   4  192.68   10.90
  -8  -2  -4   82.59    5.40
  10  -8  -4   84.99    5.60
  -8  -2  -4   71.79    5.00
  -2  10  -4   90.49    5.50
   8   2   4   84.19    5.30
   2 -10   4   83.69    5.40
   8   2   4   81.99    5.60
  -8  -1  -4   38.30    3.20
  -8  -1  -4   32.50    2.60
  -1   9  -4   39.40    3.10
   9  -8  -4   37.20    3.20
   8   1   4   40.00    3.40
   1  -9   4   38.80    3.10
  -8   0  -4   16.20    2.20
   0   8  -4   15.60    2.20
   8  -8  -4   16.70    2.30
  -8   0  -4   14.00    1.70
   0  -8   4   13.80    2.00
   8   0   4   15.40    2.60
   7  -8  -4    1.70    1.20
  -8   1  -4    2.50    1.00
   1   7  -4    3.00    1.30
  -8   1  -4    4.50    1.20
   8  -1   4    2.30    1.60
  -1  -7   4    3.00    1.20
   6  -8  -4    5.50    1.40
  -8   2  -4    3.80    1.20
   2   6  -4    3.40    1.30
  -8   2  -4    4.50    0.90
  -2  -6   4    2.70    1.30
   8  -2   4    3.30    1.60
   3   5  -4   19.10    2.20
  -8   3  -4   20.20    2.20
  -8   3  -4   20.90    1.90
   5  -8  -4   20.00    2.40
  -3  -5   4   20.90    2.30
   8  -3   4   19.70    2.80
   4  -8  -4   25.10    2.40
   4   4  -4   26.30    2.50
   4  -8  -4   25.30    2.30
   4  -8  -4   24.90    2.50
  -8   4  -4   26.60    2.20
  -8   4  -4   25.80    2.40
  -4  -4   4   26.70    2.60
   8  -4   4   28.50    3.00
   3  -8  -4    7.00    1.30
   5   3  -4    6.90    1.40
  -8   5  -4    4.90    1.40
   3  -8  -4    5.20    1.30
  -8   5  -4    5.00    1.10
  -3   8   4    5.00    1.40
   8  -5   4    3.90    1.60
  -3   8   4    5.80    1.40
  -5  -3   4    6.50    1.40
   2  -8  -4   27.70    2.50
   6   2  -4   22.90    2.40
  -8   6  -4   19.10    2.60
   2  -8  -4   26.70    2.40
  -6  -2   4   22.70    2.30
  -2   8   4   22.70    2.50
   8  -6   4   25.10    3.00
  -2   8   4   25.40    2.60
  -8   7  -4   30.20    3.00
   1  -8  -4   36.70    3.00
  -8   7  -4   36.70    3.20
   7   1  -4   34.50    2.80
  -7  -1   4   35.40    2.90
  -1   8   4   28.20    2.90
  -1   8   4   35.40    3.00
   8   0  -4   17.40    2.00
   0  -8  -4   13.60    2.20
  -8   8  -4   18.40    2.60
  -8   8  -4   15.60    2.30
   0  -8  -4   15.80    2.30
  -8   0   4   14.60    2.30
   0   8   4   15.70    2.30
   0   8   4   16.40    2.40
  -1  -8  -4   14.40    2.30
   9  -1  -4   13.60    2.00
  -8   9  -4   14.70    2.50
  -8   9  -4   11.70    2.00
  -1  -8  -4   15.30    2.20
  -9   1   4   13.20    2.30
   1   8   4   15.80    2.50
   1   8   4   15.30    2.30
  -2  -8  -4    7.40    1.80
  10  -2  -4    8.40    1.60
  -8  10  -4    8.00    1.70
  -2  -8  -4    8.50    1.60
  -8  10  -4    6.40    1.70
   2   8   4   12.30    2.40
   2   8   4    5.30    1.70
 -10   2   4    9.00    1.80
  -3  -8  -4   17.00    2.60
  -3  -8  -4   15.70    2.20
  -8  11  -4   12.10    2.40
  -8  11  -4    9.20    2.00
  11  -3  -4   12.20    2.00
 -11   3   4   14.30    2.50
   3   8   4   15.30    2.80
   3   8   4   14.30    2.60
  -8  12  -4  129.99    8.30
  12  -4  -4  132.19    7.90
  -8  12  -4  129.19    8.20
  -4  -8  -4  137.09    8.20
  -4  -8  -4  129.89    8.00
   4   8   4  129.99    8.30
   4   8   4  130.79    8.20
 -12   4   4  137.99    8.10
  13  -5  -4    5.40    1.60
  -5  -8  -4   11.30    2.30
  -8  13  -4    5.50    1.70
  -5  -8  -4   12.50    2.10
  -8  13  -4    6.00    1.80
 -13   5   4    7.80    1.90
   5   8   4    6.70    1.90
   5   8   4   14.90    2.70
  -6  -8  -4   89.09    6.10
  -8  14  -4   97.99    6.10
  -6  -8  -4   78.39    5.70
  -8  14  -4   85.89    6.00
  14  -6  -4  103.39    6.50
  14  -6  -4   88.69    5.60
   6   8   4   92.49    6.20
   6   8   4   88.79    6.20
 -14   6   4   88.79    5.90
  -8  15  -4    5.80    1.80
  -8  15  -4    2.90    1.90
  15  -7  -4    4.90    1.60
  15  -7  -4    2.10    2.20
  -7  -8  -4    5.00    2.50
 -15   7   4    4.20    1.90
   7   8   4    4.50    2.00
   7   8   4    6.30    2.10
  -8  16  -4    2.70    1.90
  16  -8  -4    2.70    1.60
  -8  -8  -4    3.70    2.50
  16  -8  -4   -3.70    2.10
   8   8   4    1.80    2.10
 -16   8   4    3.70    2.00
   8   8   4    6.60    2.40
  -8  17  -4    9.60    2.20
  17  -9  -4    4.70    3.30
  17  -9  -4    5.30    1.80
  -9  -8  -4    5.60    3.00
   9   8   4    5.90    2.40
 -17   9   4    8.80    2.80
   9   8   4    7.60    2.40
  16  -9  -4   29.60    3.80
  -7  16  -4   35.30    3.60
  -9  -7  -4   29.70    3.70
   9   7   4   33.20    3.70
   9   7   4   34.60    3.70
  15  -9  -4    3.20    2.20
  -9  -6  -4   11.20    2.30
  -6  15  -4    9.30    1.90
  -6  15  -4    7.70    2.00
   9   6   4    8.40    2.00
   9   6   4   12.60    2.30
  -5  14  -4    3.10    1.60
  -9  -5  -4    5.40    1.80
   9   5   4    2.10    1.90
   9   5   4    3.00    1.70
   5 -14   4    1.90    1.60
  -4  13  -4   12.70    2.30
  13  -9  -4    6.70    1.90
   9   4   4   15.40    2.70
   4 -13   4    7.20    1.80
   9   4   4    7.50    1.70
  12  -9  -4   19.90    2.90
  -3  12  -4   20.40    2.60
  -9  -3  -4   24.20    2.70
  -9  -3  -4   18.60    2.10
   9   3   4   27.50    3.00
   3 -12   4   19.20    2.70
  -2  11  -4   31.70    2.80
  -9  -2  -4   21.10    2.10
  11  -9  -4   27.70    3.00
  -9  -2  -4   26.80    2.80
   9   2   4   17.50    2.60
   9   2   4   29.80    3.10
   2 -11   4   24.50    2.80
  -9  -1  -4    8.00    1.40
  -1  10  -4    4.30    1.50
  10  -9  -4    5.10    1.60
   1 -10   4    8.10    1.70
   9   1   4    8.00    1.90
   9  -9  -4   31.50    2.90
  -9   0  -4   24.50    2.20
   0   9  -4   33.90    2.90
  -9   0  -4   30.50    2.90
   0  -9   4   35.10    2.80
   9   0   4   30.90    3.20
   1   8  -4   13.20    2.20
   8  -9  -4   14.70    2.30
  -9   1  -4   12.90    2.10
  -1  -8   4   11.20    1.90
   9  -1   4   18.50    2.60
  -9   2  -4   21.00    2.10
   7  -9  -4   18.80    2.30
   2   7  -4   16.80    2.20
   9  -2   4   14.80    2.60
  -2  -7   4   14.60    2.10
   3   6  -4  103.29    6.30
  -9   3  -4  106.49    6.30
   6  -9  -4  100.39    6.40
  -3  -6   4   97.49    6.40
   9  -3   4   98.29    6.60
   5  -9  -4    9.90    2.00
  -5   9   4    6.60    1.40
   9  -4   4   15.30    2.60
   4  -9  -4   32.30    2.80
   5   4  -4   30.90    2.70
  -9   5  -4   29.00    2.90
   4  -9  -4   29.50    2.50
  -4   9   4   31.60    2.90
  -5  -4   4   29.40    2.70
   9  -5   4   31.30    3.20
   3  -9  -4   16.60    2.20
   3  -9  -4   15.10    2.00
  -9   6  -4   15.10    2.40
   6   3  -4   17.20    2.10
  -3   9   4   19.20    2.40
  -6  -3   4   13.40    2.10
  -3   9   4   14.70    2.10
   9  -6   4   14.70    2.70
   7   2  -4    4.60    1.40
  -9   7  -4    1.10    1.50
   2  -9  -4    2.80    1.30
   2  -9  -4    5.80    1.50
   9  -7   4    3.90    1.70
  -7  -2   4    3.30    1.30
  -2   9   4    2.80    1.30
  -2   9   4    2.70    1.40
  -9   8  -4   38.80    3.40
  -9   8  -4   31.20    3.30
   8   1  -4   38.50    3.00
   1  -9  -4   38.40    3.10
   1  -9  -4   38.20    3.50
  -1   9   4   40.10    3.20
  -8  -1   4   33.00    3.10
  -1   9   4   36.80    3.20
   0  -9  -4   35.60    3.00
   9   0  -4   33.50    2.90
   0  -9  -4   33.70    3.00
  -9   9  -4   37.20    3.20
  -9   9  -4   35.60    3.20
   0   9   4   33.00    3.10
  -9   0   4   34.90    3.10
   0   9   4   26.70    3.00
  -9  10  -4   20.60    2.70
  -1  -9  -4   18.20    2.50
  -1  -9  -4   23.20    2.60
  10  -1  -4   22.50    2.30
  -9  10  -4   13.70    2.60
   1   9   4   23.80    2.70
   1   9   4   16.30    2.70
 -10   1   4   22.50    2.70
  -2  -9  -4   56.79    4.10
  -9  11  -4   57.69    4.40
  -9  11  -4   58.79    4.30
  -2  -9  -4   60.09    4.30
  11  -2  -4   56.79    4.00
   2   9   4   52.99    4.30
   2   9   4   58.39    4.50
 -11   2   4   58.59    4.30
  12  -3  -4   11.00    2.10
  -9  12  -4    6.50    1.90
  -3  -9  -4    8.10    1.70
  -9  12  -4    7.00    1.70
  -3  -9  -4   14.10    2.60
   3   9   4    8.90    2.00
   3   9   4   13.20    2.60
 -12   3   4    9.10    2.00
  -9  13  -4   31.40    3.10
  -9  13  -4   31.20    3.40
  -4  -9  -4   36.60    3.20
  -4  -9  -4   37.20    3.50
  13  -4  -4   37.80    3.00
   4   9   4   34.40    3.70
   4   9   4   40.80    3.60
 -13   4   4   38.50    3.50
  -5  -9  -4    8.30    2.30
  -9  14  -4    1.20    1.70
  -5  -9  -4    7.50    1.60
  14  -5  -4    5.90    1.60
  -9  14  -4    2.10    1.60
   5   9   4    2.40    2.00
 -14   5   4    4.30    2.10
   5   9   4    6.60    2.00
  -6  -9  -4   31.90    3.20
  15  -6  -4   36.50    4.00
  15  -6  -4   35.70    3.00
  -6  -9  -4   39.40    4.00
  -9  15  -4   33.90    3.60
  -9  15  -4   32.40    3.50
   6   9   4   36.10    3.80
   6   9   4   35.80    4.00
 -15   6   4   41.20    3.60
  -9  16  -4    5.00    1.90
  16  -7  -4    3.20    1.70
  16  -7  -4   -2.80    2.00
  -7  -9  -4    8.90    2.90
 -16   7   4    2.80    2.10
   7   9   4    3.30    2.20
   7   9   4    5.90    2.20
  -9  17  -4   19.60    3.20
  -8  -9  -4   17.50    3.20
  17  -8  -4   14.70    3.70
  17  -8  -4   16.10    2.60
 -17   8   4   20.60    3.30
   8   9   4   17.30    3.40
   8   9   4   18.00    2.80
  18  -9  -4   18.00    2.70
  -9  18  -4   21.10    3.00
  18  -9  -4   26.40    3.80
 -18   9   4   21.80    3.50
   9   9   4   21.60    3.90
   9   9   4   21.90    3.50
  -9  19  -4    2.20    2.00
  19 -10  -4   -0.60    1.90
  19 -10  -4   -1.60    2.30
  10   9   4    4.10    2.40
  10   9   4   -0.70    2.40
  -8  18  -4   -0.50    1.80
  18 -10  -4    0.00    2.30
  10   8   4    2.10    2.20
  -7  17  -4    3.90    1.90
  17 -10  -4    3.30    2.40
  10   7   4    6.10    2.50
  10   7   4    7.20    2.20
  16 -10  -4   10.50    2.40
 -10  -6  -4   15.20    2.70
  10   6   4   19.10    3.00
  10   6   4   11.20    2.30
 -10  -5  -4   39.60    3.60
  15 -10  -4   36.30    3.90
  -5  15  -4   38.40    3.50
  10   5   4   36.60    3.70
  10   5   4   45.10    3.80
   5 -15   4   45.10    3.60
  14 -10  -4   33.60    3.60
 -10  -4  -4   32.60    3.20
  -4  14  -4   33.60    3.20
   4 -14   4   29.10    3.00
  10   4   4   33.70    3.30
  10   4   4   31.60    3.40
 -10  -3  -4  119.19    7.80
  -3  13  -4  129.69    7.80
  13 -10  -4  130.89    8.00
  10   3   4  117.99    7.90
   3 -13   4  123.79    7.80
  12 -10  -4   23.80    3.00
 -10  -2  -4   19.60    2.80
  -2  12  -4   27.30    2.80
   2 -12   4   17.70    2.70
  10   2   4   27.80    3.10
  10   2   4   23.40    2.60
  11 -10  -4   93.99    6.30
  -1  11  -4   99.99    6.30
 -10  -1  -4   95.09    6.20
  10   1   4   99.09    6.40
   1 -11   4   89.59    6.20
   0  10  -4    0.20    1.40
 -10   0  -4    0.80    1.30
  10 -10  -4    1.70    1.40
   0 -10   4    0.30    1.30
  10   0   4    2.40    1.80
   9 -10  -4   23.60    2.50
 -10   1  -4   15.80    2.30
   1   9  -4   21.70    2.40
  10  -1   4   15.90    2.70
  -1  -9   4   19.20    2.20
   2   8  -4   10.60    2.00
 -10   2  -4    9.40    1.50
   8 -10  -4    7.40    1.60
  -2  -8   4   11.00    1.80
  10  -2   4    9.20    2.10
 -10   3  -4   12.90    1.90
   3   7  -4   10.90    2.00
   7 -10  -4    8.50    1.60
  10  -3   4   13.10    2.20
  -3  -7   4    8.10    1.70
 -10   4  -4   13.70    2.10
   6 -10  -4   14.20    2.30
   4   6  -4   15.00    2.10
  10  -4   4   15.80    2.50
  -4  -6   4   12.00    2.10
  -6  10   4   14.80    2.20
   5 -10  -4    4.30    1.30
   5   5  -4    5.90    1.50
 -10   5  -4    7.20    1.60
  10  -5   4    6.80    1.80
  -5  -5   4    5.20    1.40
  -5  10   4    6.80    1.50
 -10   6  -4   31.00    3.00
   6   4  -4   29.10    2.70
   4 -10  -4   30.20    2.50
   4 -10  -4   30.10    2.80
  -4  10   4   30.40    2.90
  -6  -4   4   28.20    2.70
  10  -6   4   32.50    3.20
   7   3  -4    4.40    1.50
   3 -10  -4    3.10    1.30
   3 -10  -4    3.20    1.40
 -10   7  -4    4.50    1.60
  -3  10   4    1.90    1.40
  -3  10   4    4.30    1.40
  10  -7   4    2.00    1.60
  -7  -3   4    3.00    1.30
   8   2  -4   82.09    5.30
   2 -10  -4   85.69    5.20
   2 -10  -4   82.29    5.30
 -10   8  -4   79.69    5.60
  -2  10   4   78.39    5.40
  -8  -2   4   82.09    5.40
  -2  10   4   78.19    5.30
  10  -8   4   84.69    5.80
   9   1  -4   11.00    2.00
 -10   9  -4    5.10    1.60
   1 -10  -4    4.50    1.70
  -1  10   4    4.60    1.40
  -1  10   4    5.80    1.70
  -9  -1   4    8.00    1.70
 -10  10  -4   -0.70    1.40
 -10  10  -4   -2.30    1.40
  10   0  -4    2.50    1.50
   0 -10  -4    1.20    1.70
   0 -10  -4    1.40    1.50
   0  10   4    3.20    1.70
 -10   0   4    1.80    1.80
   0  10   4    1.20    1.40
  11  -1  -4    8.10    1.70
 -10  11  -4   11.70    2.00
  -1 -10  -4    7.30    1.70
 -10  11  -4    9.70    2.10
  -1 -10  -4    7.80    2.00
 -11   1   4   13.80    2.60
   1  10   4    6.50    1.80
   1  10   4    8.70    1.90
  -2 -10  -4   64.89    4.70
  -2 -10  -4   65.69    4.60
 -10  12  -4   67.99    4.70
  12  -2  -4   64.39    4.40
 -10  12  -4   65.89    4.80
 -12   2   4   69.39    4.90
   2  10   4   64.29    4.70
   2  10   4   61.79    4.90
  -3 -10  -4   12.10    2.40
 -10  13  -4   11.50    2.20
 -10  13  -4   14.00    2.50
  -3 -10  -4   17.00    2.50
  13  -3  -4   11.20    1.90
 -13   3   4   12.40    2.30
   3  10   4   13.10    2.30
   3  10   4   16.30    2.70
  -4 -10  -4   86.49    6.10
  14  -4  -4   88.29    5.60
 -10  14  -4   88.39    6.00
 -10  14  -4   88.89    6.10
  -4 -10  -4   85.29    5.80
   4  10   4   85.09    6.30
   4  10   4   91.19    6.00
 -14   4   4   94.59    6.10
  15  -5  -4    7.30    1.80
  -5 -10  -4    6.80    2.50
 -10  15  -4    6.30    1.80
  -5 -10  -4    5.20    1.70
 -10  15  -4    4.50    1.90
   5  10   4    8.60    2.40
 -15   5   4    9.30    2.20
   5  10   4    5.10    2.10
  16  -6  -4   33.10    3.00
  -6 -10  -4   33.80    4.00
 -10  16  -4   36.80    3.50
 -16   6   4   37.60    3.80
   6  10   4   32.10    3.70
   6  10   4   28.40    4.10
  17  -7  -4    0.60    2.70
 -10  17  -4   -1.10    2.00
  -7 -10  -4    5.40    2.80
  17  -7  -4    2.00    1.90
   7  10   4    0.50    2.30
 -17   7   4    5.60    2.30
   7  10   4    3.80    2.20
  18  -8  -4    0.20    1.90
  -8 -10  -4    0.70    2.90
  18  -8  -4    1.00    2.20
 -10  18  -4   -1.50    2.00
 -18   8   4    4.30    2.60
   8  10   4    0.80    2.40
   8  10   4    5.70    2.40
 -10  19  -4   -0.60    2.50
  19  -9  -4    5.00    2.10
  19  -9  -4    3.70    2.40
 -10  19  -4   -0.20    2.10
 -19   9   4    5.30    2.70
   9  10   4    2.80    2.60
   9  10   4    2.10    2.80
 -10  20  -4    1.50    2.10
  20 -10  -4   -2.80    2.50
  20 -10  -4    4.00    2.10
 -10  20  -4    0.40    2.80
 -20  10   4    2.70    2.80
  10  10   4    4.80    2.70
  10  10   4    1.60    2.80
 -10  21  -4    2.30    2.20
  21 -11  -4   -1.00    2.20
  21 -11  -4    0.10    2.60
  11  10   4    0.90    3.10
  11  10   4    1.90    3.00
  -9  20  -4   25.30    3.40
  20 -11  -4   27.30    4.10
  20 -11  -4   26.00    3.00
  11   9   4   31.70    4.00
  11   9   4   22.90    3.40
  19 -11  -4   12.20    2.80
  -8  19  -4   14.90    2.40
  11   8   4   15.40    2.90
  11   8   4   12.80    2.70
  -7  18  -4   36.00    3.50
  18 -11  -4   35.70    4.10
  11   7   4   31.10    4.10
  11   7   4   33.90    4.10
  17 -11  -4    1.00    2.10
  -6  17  -4    4.60    1.90
  11   6   4    4.50    3.70
  11   6   4    5.10    2.00
  16 -11  -4    2.20    2.90
 -11  -5  -4    4.90    2.50
  11   5   4    4.60    1.90
  11   5   4    5.70    2.20
  15 -11  -4   -2.80    1.70
 -11  -4  -4    3.60    2.10
  -4  15  -4   -0.20    1.60
  11   4   4    1.30    1.70
  11   4   4    4.80    1.90
  -3  14  -4   13.50    2.60
  14 -11  -4   14.90    2.80
 -11  -3  -4   19.40    2.80
  11   3   4   14.50    2.80
   3 -14   4   11.00    1.90
 -11  -2  -4    5.60    2.00
  -2  13  -4    3.50    1.60
  13 -11  -4    2.10    1.60
  11   2   4    4.40    1.90
  11   2   4    2.80    1.40
  -1  12  -4   27.90    3.00
 -11  -1  -4   33.10    3.00
  12 -11  -4   25.10    3.20
  11   1   4   35.40    3.40
   1 -12   4   30.20    3.10
   0  11  -4   25.40    2.90
 -11   0  -4   29.50    2.80
  11 -11  -4   28.30    3.00
  11   0   4   28.00    3.30
   0 -11   4   26.50    2.80
 -11   1  -4   16.50    2.20
  10 -11  -4   13.70    2.40
   1  10  -4   13.60    2.40
  11  -1   4   14.20    2.80
  -1 -10   4   19.00    2.30
 -11   2  -4   54.29    4.10
   9 -11  -4   61.69    4.30
   2   9  -4   62.19    4.30
  -2  -9   4   57.89    4.10
  11  -2   4   57.39    4.60
   8 -11  -4   16.10    2.40
 -11   3  -4   20.50    2.30
   3   8  -4   15.10    2.30
  -3  -8   4   14.70    2.10
  11  -3   4   14.90    2.80
   7 -11  -4   46.40    3.60
 -11   4  -4   46.00    3.60
   4   7  -4   49.90    3.60
  11  -4   4   43.70    3.90
  -4  -7   4   45.60    3.60
  -7  11   4   44.00    3.60
 -11   5  -4   55.89    4.10
   5   6  -4   53.89    3.90
   6 -11  -4   55.19    4.00
  -5  -6   4   49.30    4.00
  -6  11   4   56.99    4.00
  11  -5   4   57.69    4.40
   6   5  -4    6.90    1.60
 -11   6  -4   14.50    2.50
   5 -11  -4   10.80    2.20
  -5  11   4   12.00    2.30
  11  -6   4    7.70    2.10
  -6  -5   4    6.20    1.50
 -11   7  -4    3.00    1.60
   7   4  -4    4.00    1.50
   4 -11  -4    2.60    1.50
  11  -7   4    1.40    1.60
  -4  11   4    2.70    1.50
  -7  -4   4    4.80    1.50
 -11   8  -4  189.58   10.90
   8   3  -4  186.38   10.70
   3 -11  -4  179.18   10.50
   3 -11  -4  180.38   10.70
  11  -8   4  193.18   11.10
  -3  11   4  175.18   10.80
  -3  11   4  166.18   10.50
  -8  -3   4  174.88   10.70
 -11   9  -4   23.80    3.00
   2 -11  -4   19.70    3.40
   2 -11  -4   31.20    3.00
   9   2  -4   34.60    2.80
  11  -9   4   25.80    3.40
  -2  11   4   31.60    2.90
  -9  -2   4   33.60    3.10
  -2  11   4   28.10    3.00
  10   1  -4  100.79    6.00
   1 -11  -4   94.49    6.00
   1 -11  -4   92.89    6.10
 -11  10  -4   98.19    6.20
 -11  10  -4   85.09    6.20
  -1  11   4   91.49    6.00
 -10  -1   4   94.49    6.20
  -1  11   4   89.49    6.10
 -11  11  -4   25.80    2.90
   0 -11  -4   25.20    3.10
  11   0  -4   29.50    2.80
 -11  11  -4   25.70    3.10
   0 -11  -4   27.10    2.90
 -11   0   4   30.80    3.20
   0  11   4   28.20    3.20
   0  11   4   26.00    2.90
  12  -1  -4    9.40    1.80
 -11  12  -4   12.80    2.40
  -1 -11  -4    9.60    2.30
 -11  12  -4    5.60    1.90
  -1 -11  -4    9.00    1.80
   1  11   4   10.20    2.00
 -12   1   4    9.60    2.20
   1  11   4    5.50    1.90
  -2 -11  -4    5.60    2.30
 -11  13  -4    6.80    1.90
  -2 -11  -4    3.80    1.60
  13  -2  -4    2.50    1.70
 -11  13  -4    6.80    1.80
 -13   2   4    7.10    2.20
   2  11   4    2.10    2.00
   2  11   4    3.00    2.00
  -3 -11  -4   14.20    2.50
  -3 -11  -4   11.40    2.60
 -11  14  -4    7.30    2.10
  14  -3  -4   12.70    2.30
 -11  14  -4    9.80    2.10
   3  11   4    6.70    2.30
 -14   3   4   11.20    2.30
   3  11   4    9.20    2.20
 -11  15  -4    6.30    1.90
 -11  15  -4    5.50    2.00
  -4 -11  -4    8.20    2.50
  15  -4  -4    7.20    1.90
  -4 -11  -4    4.50    1.80
 -15   4   4    9.30    2.50
   4  11   4    5.80    2.30
   4  11   4    4.00    2.20
  -5 -11  -4    9.50    2.60
 -11  16  -4    6.30    2.10
  -5 -11  -4    5.30    1.80
  16  -5  -4    7.70    1.90
   5  11   4    5.20    2.40
   5  11   4    8.70    2.40
 -16   5   4    5.90    2.40
 -11  17  -4   12.20    2.40
  -6 -11  -4   14.10    3.00
  17  -6  -4   13.60    2.40
 -11  17  -4   13.80    2.50
   6  11   4   14.20    2.80
 -17   6   4   22.10    3.70
   6  11   4   15.40    2.80
  18  -7  -4   -0.10    2.30
 -11  18  -4   -1.10    2.30
  -7 -11  -4    5.70    3.00
  18  -7  -4   -0.30    2.00
 -11  18  -4   -4.00    1.90
 -18   7   4    3.80    2.60
   7  11   4    2.70    2.50
   7  11   4    1.00    2.50
  19  -8  -4    7.60    2.60
  19  -8  -4    4.40    2.30
 -11  19  -4    3.90    2.70
 -11  19  -4    6.20    2.30
 -19   8   4    9.70    2.90
   8  11   4    7.30    2.70
  20  -9  -4    2.80    2.30
  20  -9  -4    1.20    2.60
 -11  20  -4    1.50    2.20
 -11  20  -4    0.70    2.90
   9  11   4   -0.40    3.00
   9  11   4    3.50    2.90
 -20   9   4    6.10    3.00
  21 -10  -4    4.70    2.30
  21 -10  -4    1.90    2.90
 -11  21  -4   -2.90    3.20
 -11  21  -4   -3.60    2.10
  10  11   4   -1.80    3.00
 -21  10   4    2.90    3.00
  10  11   4   -0.60    2.80
  22 -11  -4    0.10    2.90
 -11  22  -4   -1.10    2.30
  22 -11  -4   -0.30    2.40
  11  11   4   -1.10    3.30
  11  11   4   -5.30    3.00
 -22  11   4    4.40    3.60
 -11  23  -4   18.70    3.30
  23 -12  -4   23.10    3.90
  23 -12  -4   22.80    3.60
  12  11   4   15.90    3.80
  12  11   4   12.40    4.10
  22 -12  -4    3.40    2.90
  22 -12  -4    3.30    2.40
 -10  22  -4    0.20    2.50
  12  10   4    1.10    3.40
  12  10   4    1.10    3.00
  21 -12  -4   -0.50    2.70
  -9  21  -4    1.70    2.40
  21 -12  -4    2.60    2.00
  12   9   4   -1.90    2.90
  12   9   4    1.90    2.70
  -8  20  -4    3.10    2.30
  20 -12  -4    3.80    2.60
  12   8   4    7.20    2.60
  12   8   4    7.40    2.60
  -7  19  -4    1.10    2.00
  19 -12  -4   -2.80    2.30
  12   7   4    0.00    2.30
  12   7   4   -0.60    2.40
  18 -12  -4    4.90    2.30
  -6  18  -4    5.40    2.00
  12   6   4    4.70    2.20
  12   6   4    4.20    2.60
  -5  17  -4   -0.80    1.80
  17 -12  -4    1.60    2.00
  12   5   4   -0.90    2.00
  12   5   4    0.50    2.00
  -4  16  -4    9.10    2.00
  12   4   4   14.70    3.70
  12   4   4   10.40    2.00
  15 -12  -4   11.70    2.10
 -12  -3  -4   17.90    3.40
  -3  15  -4   14.50    3.20
  12   3   4   12.40    2.40
 -12  -2  -4    7.90    2.10
  14 -12  -4    9.70    2.10
  -2  14  -4   14.60    2.50
  12   2   4   10.50    1.70
   2 -14   4    5.90    2.00
  12   2   4   15.20    2.40
  -1  13  -4   30.80    3.20
  13 -12  -4   32.60    3.30
 -12  -1  -4   31.40    3.20
  12   1   4   34.80    3.40
   1 -13   4   28.40    3.20
  12 -12  -4    3.90    1.60
   0  12  -4    3.60    1.60
 -12   0  -4    3.20    1.70
   0 -12   4    4.90    1.70
  12   0   4    3.50    2.00
   1  11  -4    9.30    1.80
  11 -12  -4    5.50    1.70
 -12   1  -4   14.20    2.20
  12  -1   4    8.20    2.30
  -1 -11   4   12.30    2.30
   2  10  -4   72.79    4.80
 -12   2  -4   64.79    4.70
  10 -12  -4   71.69    4.90
  12  -2   4   72.49    5.10
  -2 -10   4   60.29    4.60
 -12   3  -4    8.80    1.80
   9 -12  -4   14.50    2.40
   3   9  -4   13.80    2.30
  12  -3   4   15.30    2.80
  -3  -9   4    8.20    1.60
   4   8  -4  146.69    8.20
 -12   4  -4  133.69    8.30
   8 -12  -4  135.89    8.30
  12  -4   4  136.69    8.50
  -8  12   4  131.79    8.40
  -4  -8   4  118.79    8.20
 -12   5  -4   46.20    3.80
   7 -12  -4   51.49    3.70
   5   7  -4   43.70    3.60
  -7  12   4   49.30    3.70
  12  -5   4   41.80    4.00
  -5  -7   4   39.90    3.50
 -12   6  -4   24.20    2.80
   6 -12  -4   24.70    2.70
   6   6  -4   23.10    2.50
  -6  -6   4   20.00    2.60
  12  -6   4   25.00    3.20
  -6  12   4   22.20    2.70
   5 -12  -4   43.80    3.60
 -12   7  -4   48.80    3.80
   7   5  -4   45.00    3.50
  -7  -5   4   40.60    3.50
  12  -7   4   48.10    4.10
  -5  12   4   38.50    3.60
 -12   8  -4   32.20    3.30
   4 -12  -4   35.90    3.10
   8   4  -4   32.10    3.00
  -8  -4   4   27.00    3.10
  -4  12   4   35.40    3.30
  12  -8   4   37.60    3.60
 -12   9  -4   21.00    2.70
   9   3  -4   24.20    2.60
   3 -12  -4   22.80    2.70
   3 -12  -4   18.80    2.40
  -3  12   4   20.20    2.70
  12  -9   4   25.90    3.30
  -3  12   4   17.30    2.80
  -9  -3   4   19.20    2.80
 -12  10  -4   24.60    2.80
  10   2  -4   25.00    2.70
   2 -12  -4   27.70    2.90
   2 -12  -4   22.00    2.90
 -10  -2   4   22.50    3.10
  -2  12   4   25.80    2.80
  -2  12   4   26.50    3.10
   1 -12  -4   27.90    2.90
 -12  11  -4   27.90    3.10
  11   1  -4   24.90    2.90
   1 -12  -4   28.10    2.90
 -12  11  -4   26.50    3.00
 -11  -1   4   25.60    3.30
  -1  12   4   28.90    3.00
  -1  12   4   26.20    3.20
  12   0  -4    5.50    1.80
 -12  12  -4    2.00    1.70
 -12  12  -4    1.90    1.80
   0 -12  -4    3.30    2.00
   0 -12  -4    4.80    1.60
 -12   0   4    5.40    2.10
   0  12   4    1.50    1.70
   0  12   4    2.40    1.70
 -12  13  -4   37.20    3.60
  -1 -12  -4   33.50    3.50
  -1 -12  -4   34.50    3.30
 -12  13  -4   39.90    3.50
  13  -1  -4   34.30    3.20
 -13   1   4   32.70    3.80
   1  12   4   35.50    3.50
   1  12   4   30.70    3.90
  -2 -12  -4   42.00    3.70
  -2 -12  -4   42.60    4.10
  14  -2  -4   42.40    3.60
 -12  14  -4   48.50    4.10
 -12  14  -4   46.90    3.90
 -14   2   4   48.90    4.30
   2  12   4   44.40    4.10
   2  12   4   36.70    4.40
 -12  15  -4   17.90    2.90
  -3 -12  -4   15.90    2.80
  15  -3  -4   18.10    2.60
 -12  15  -4   14.70    2.70
  -3 -12  -4   17.20    2.80
 -12  15  -4   13.80    2.70
   3  12   4   16.40    2.70
 -15   3   4   21.70    3.60
   3  12   4   13.40    2.60
  16  -4  -4   25.70    3.00
  -4 -12  -4   24.70    3.70
  -4 -12  -4   25.00    3.20
 -12  16  -4   23.10    3.20
   4  12   4   27.20    4.20
 -16   4   4   29.70    3.90
   4  12   4   24.90    3.50
 -12  17  -4   -0.70    2.10
  -5 -12  -4    3.90    2.70
  17  -5  -4    0.40    1.80
 -12  17  -4   -0.40    1.90
   5  12   4    0.90    2.30
   5  12   4    0.60    2.50
 -17   5   4    2.60    2.50
  18  -6  -4   -0.10    2.10
  -6 -12  -4    1.50    2.90
 -12  18  -4   -2.20    2.00
 -12  18  -4   -0.10    2.40
 -18   6   4    2.80    2.80
   6  12   4    0.60    2.60
   6  12   4   -2.40    2.40
 -12  19  -4   11.60    2.50
  19  -7  -4   11.70    2.50
  19  -7  -4   10.50    2.90
 -12  19  -4    9.10    2.80
 -19   7   4   14.80    3.30
   7  12   4    7.10    2.90
   7  12   4    9.70    3.00
  20  -8  -4    2.20    2.70
 -12  20  -4    2.00    2.40
  20  -8  -4    2.00    2.50
 -12  20  -4    3.30    2.90
   8  12   4    3.80    2.70
 -20   8   4    9.70    3.30
   8  12   4    3.80    3.30
  21  -9  -4   18.00    3.40
 -12  21  -4   17.70    3.00
  21  -9  -4   16.90    2.90
 -12  21  -4   14.00    3.40
 -21   9   4   19.50    3.70
   9  12   4   11.90    3.50
   9  12   4   15.40    3.30
  22 -10  -4    7.50    3.10
 -12  22  -4    7.40    2.50
  22 -10  -4   11.90    2.80
 -22  10   4    9.40    3.70
  10  12   4    1.80    3.00
  23 -11  -4    5.30    2.70
  23 -11  -4    3.90    3.10
 -12  23  -4    3.30    2.60
  11  12   4    0.00    3.10
  24 -12  -4   21.60    4.00
  24 -12  -4   26.30    4.00
 -12  24  -4   17.70    3.50
  12  12   4   15.20    3.90
  25 -13  -4   11.00    3.90
 -12  25  -4    9.70    3.30
  13  12   4    5.00    3.60
 -11  24  -4    1.50    2.90
  24 -13  -4    3.10    3.40
  13  11   4   -0.70    3.40
  23 -13  -4   12.00    2.70
  23 -13  -4    5.70    3.10
 -10  23  -4    8.50    2.90
  13  10   4    3.10    3.70
  13  10   4    5.60    3.40
  22 -13  -4    1.30    2.20
  22 -13  -4    6.40    3.00
  -9  22  -4    4.30    2.50
  13   9   4    5.10    2.90
  13   9   4    2.10    3.20
  21 -13  -4    1.40    2.70
  -8  21  -4    0.40    2.10
  13   8   4    7.40    2.70
  13   8   4    4.50    2.90
  20 -13  -4   18.60    3.70
  -7  20  -4   16.80    3.20
  13   7   4   12.40    2.80
  13   7   4   19.00    3.10
  19 -13  -4    0.80    2.10
  -6  19  -4    0.80    1.90
  13   6   4   -0.20    2.70
  13   6   4    2.00    2.30
  18 -13  -4   11.20    2.40
  -5  18  -4   17.20    2.90
  13   5   4   15.90    3.10
  13   5   4   12.30    2.40
  17 -13  -4    4.80    2.10
  -4  17  -4    1.50    1.90
  13   4   4    5.40    2.30
  13   4   4    1.00    1.90
  -3  16  -4    0.10    1.70
  16 -13  -4    2.80    1.90
  13   3   4    5.00    2.10
  -2  15  -4   15.40    2.60
  13   2   4   18.60    4.10
  -1  14  -4   19.80    3.10
  14 -13  -4   20.10    2.90
  13   1   4   19.20    3.10
   0  13  -4   12.30    2.40
  13 -13  -4   19.10    2.60
 -13   0  -4   10.20    2.00
   0 -13   4   12.70    2.30
  13   0   4   21.40    3.10
 -13   1  -4   37.40    3.30
  12 -13  -4   38.10    3.40
   1  12  -4   41.70    3.40
  13  -1   4   42.10    3.90
  -1 -12   4   34.80    3.40
  11 -13  -4    3.70    1.60
   2  11  -4    5.10    1.70
  -2 -11   4    6.30    1.60
  13  -2   4    4.50    2.10
   3  10  -4   17.90    2.50
 -13   3  -4   10.70    2.10
  10 -13  -4   16.10    2.50
  -3 -10   4   12.80    2.20
  13  -3   4   14.90    2.50
   9 -13  -4   40.30    3.30
 -13   4  -4   36.30    3.40
   4   9  -4   44.80    3.40
  13  -4   4   37.80    3.80
  -4  -9   4   32.30    3.10
  -9  13   4   33.40    3.60
 -13   5  -4    8.80    2.00
   5   8  -4   14.60    2.30
   8 -13  -4   13.80    2.40
  -5  -8   4    8.00    1.70
  13  -5   4    8.20    2.20
   6   7  -4   33.60    3.10
   7 -13  -4   31.20    3.10
 -13   6  -4   36.10    3.20
  13  -6   4   33.70    3.50
  -6  -7   4   24.30    2.90
  -7  13   4   23.80    3.00
   6 -13  -4    7.70    1.70
 -13   7  -4    7.70    1.80
   7   6  -4    7.00    1.80
  -7  -6   4    6.50    1.70
  -6  13   4    5.50    1.50
  13  -7   4    7.30    2.20
   8   5  -4  110.19    6.80
 -13   8  -4  107.99    7.00
   5 -13  -4  110.29    6.80
  13  -8   4  110.89    7.30
  -5  13   4  100.99    6.90
  -8  -5   4   99.59    6.90
   4 -13  -4   16.20    2.50
 -13   9  -4   13.20    2.50
   9   4  -4   16.30    2.50
  -9  -4   4   14.30    2.60
  -4  13   4    9.70    1.90
  13  -9   4   15.80    3.00
  10   3  -4  125.29    7.40
   3 -13  -4  101.99    7.10
   3 -13  -4  124.99    7.40
 -13  10  -4  121.69    7.40
  13 -10   4  129.09    8.00
  -3  13   4  113.99    7.20
  -3  13   4  108.79    7.50
 -10  -3   4  115.49    7.50
 -13  11  -4    1.10    1.60
  11   2  -4    5.60    1.80
   2 -13  -4    1.60    1.50
   2 -13  -4   -3.60    1.60
 -11  -2   4    5.20    2.20
  -2  13   4    1.10    1.70
   1 -13  -4   32.30    3.00
   1 -13  -4   23.90    3.00
  12   1  -4   29.40    3.00
 -13  12  -4   30.60    3.40
 -13  12  -4   32.00    3.20
  -1  13   4   28.00    3.30
  -1  13   4   26.40    3.10
 -12  -1   4   29.20    3.70
 -13  13  -4   10.60    2.10
 -13  13  -4   12.00    2.30
   0 -13  -4    9.80    2.30
  13   0  -4   10.10    2.10
   0 -13  -4   12.90    2.50
   0  13   4   13.40    2.30
 -13   0   4   13.80    2.70
   0  13   4   13.30    2.30
 -13  14  -4    3.10    1.50
  -1 -13  -4    2.40    1.70
 -13  14  -4    4.50    1.90
  14  -1  -4    2.40    1.80
  -1 -13  -4    1.90    2.30
 -13  14  -4    2.80    2.00
   1  13   4    1.70    2.20
   1  13   4    4.10    2.20
 -14   1   4    3.70    2.30
  -2 -13  -4    3.00    2.50
  15  -2  -4    6.80    2.00
 -13  15  -4    3.00    1.70
  -2 -13  -4    5.50    1.90
 -13  15  -4    2.30    1.90
 -15   2   4    5.10    2.40
   2  13   4    0.80    2.20
   2  13   4    6.60    2.20
  16  -3  -4    5.70    2.00
  -3 -13  -4    5.80    2.70
 -13  16  -4    6.10    1.90
  -3 -13  -4    4.90    2.00
 -16   3   4    8.20    2.80
   3  13   4    2.70    2.50
   3  13   4    6.80    2.30
  17  -4  -4    2.80    2.00
  -4 -13  -4   -0.30    2.70
 -13  17  -4    3.90    2.10
 -13  17  -4    1.00    1.90
   4  13   4    2.80    2.60
   4  13   4    1.30    2.40
 -17   4   4    3.60    2.80
 -13  18  -4    6.70    2.40
  18  -5  -4    6.70    2.40
  -5 -13  -4    3.10    3.00
 -13  18  -4    7.70    2.40
 -18   5   4    6.90    2.90
   5  13   4    4.70    2.70
   5  13   4    6.40    2.80
 -13  19  -4    5.60    2.30
  -6 -13  -4    2.60    3.40
 -13  19  -4    5.60    2.70
  19  -6  -4    9.90    2.40
 -19   6   4    8.20    3.00
   6  13   4    5.30    2.70
   6  13   4    6.10    3.10
  20  -7  -4    2.10    2.90
 -13  20  -4   -2.50    2.30
  20  -7  -4   -1.60    2.40
 -13  20  -4   -0.60    2.80
 -20   7   4    0.70    3.30
   7  13   4   -6.60    2.70
 -13  21  -4    5.40    3.40
  21  -8  -4    4.90    2.50
 -13  21  -4    0.30    2.60
  21  -8  -4    1.60    3.20
 -21   8   4    3.00    3.50
   8  13   4    3.70    3.10
  22  -9  -4    1.60    2.70
 -13  22  -4   -0.90    3.70
  22  -9  -4    0.90    3.20
 -13  22  -4   -2.00    2.50
 -22   9   4    0.60    3.70
   9  13   4   -0.80    3.00
  23 -10  -4    2.60    3.10
  23 -10  -4    2.60    3.00
 -13  23  -4    0.30    2.60
  10  13   4    1.10    3.10
  24 -11  -4    6.50    3.40
  24 -11  -4    3.90    3.10
 -13  24  -4   -1.60    2.70
  11  13   4   -1.30    3.30
 -13  25  -4   24.90    4.40
  25 -12  -4   33.00    5.60
  12  13   4   20.80    4.30
 -11  25  -4   33.10    4.60
  25 -14  -4   29.10    5.30
  14  11   4   22.80    4.40
  24 -14  -4   -1.00    3.00
 -10  24  -4    1.80    2.90
  14  10   4   -3.90    3.30
  23 -14  -4   -0.80    2.90
  -9  23  -4    0.40    2.70
  14   9   4    4.60    3.00
  14   9   4   -5.80    3.40
  -8  22  -4    1.10    2.50
  22 -14  -4   -1.20    2.80
  14   8   4   -0.10    3.10
  14   8   4    3.90    2.70
  21 -14  -4    2.00    2.70
  -7  21  -4    4.10    2.20
  14   7   4    1.10    2.70
  14   7   4   -2.40    2.40
  20 -14  -4    2.70    2.50
  -6  20  -4    1.20    2.10
  14   6   4   -1.20    2.60
  14   6   4    2.90    2.40
  19 -14  -4   10.90    2.60
  -5  19  -4   12.90    2.40
  14   5   4    7.50    2.50
  14   5   4    7.50    2.40
  -4  18  -4    7.80    2.20
  18 -14  -4    5.80    2.10
  14   4   4    8.60    2.50
  14   4   4    4.60    2.10
  17 -14  -4    3.50    2.00
  -3  17  -4    4.90    1.90
  14   3   4    5.90    2.30
  14   3   4    1.70    2.20
  16 -14  -4    0.90    1.90
  -2  16  -4    0.60    1.70
  14   2   4    2.20    2.10
  -1  15  -4    4.80    1.80
  15 -14  -4    1.10    1.80
  14   1   4    4.10    2.10
   0  14  -4    3.40    2.00
   1  13  -4    2.10    2.10
  13 -14  -4    3.60    1.80
  14  -1   4    5.50    2.10
 -14   2  -4   45.00    4.00
   2  12  -4   48.00    3.90
  12 -14  -4   52.59    4.00
  14  -2   4   49.20    4.40
  -2 -12   4   45.20    4.10
   3  11  -4    9.00    2.00
  11 -14  -4   11.90    2.30
 -14   3  -4    6.40    2.10
  -3 -11   4    8.40    1.80
  14  -3   4   12.00    2.20
 -14   4  -4   86.99    6.20
  10 -14  -4   95.39    6.00
   4  10  -4   97.89    6.10
 -10  14   4   88.59    6.30
  -4 -10   4   80.69    5.90
  14  -4   4   92.79    6.30
 -14   5  -4    4.60    1.90
   9 -14  -4    6.50    1.70
   5   9  -4    5.30    1.80
  -5  -9   4    5.70    1.60
  14  -5   4    8.20    2.20
  -9  14   4    6.20    1.80
   8 -14  -4   95.39    6.10
   6   8  -4   93.39    6.10
 -14   6  -4   95.19    6.20
  14  -6   4   95.89    6.40
  -6  -8   4   82.39    6.00
  -8  14   4   88.19    6.20
 -14   7  -4    5.40    1.80
   7 -14  -4    6.60    1.70
   7   7  -4    4.80    1.70
  -7  -7   4    6.00    1.70
  -7  14   4    3.50    1.60
  14  -7   4    8.40    2.10
   6 -14  -4   19.80    2.70
   8   6  -4   19.50    2.60
 -14   8  -4   23.50    2.70
  -6  14   4   15.80    2.70
  14  -8   4   25.10    3.40
  -8  -6   4   19.80    2.80
   9   5  -4    4.50    1.80
   5 -14  -4    1.30    1.60
 -14   9  -4    3.80    1.70
  -9  -5   4    1.00    1.80
  14  -9   4    2.30    2.00
  -5  14   4    3.20    1.60
  10   4  -4   31.90    3.20
 -14  10  -4   33.90    3.20
   4 -14  -4   33.90    3.30
  14 -10   4   33.30    3.80
 -10  -4   4   34.80    3.40
  -4  14   4   25.90    3.50
  11   3  -4   10.90    2.20
   3 -14  -4   14.60    2.50
 -14  11  -4   11.10    2.00
 -11  -3   4   17.10    3.20
  -3  14   4    8.10    2.00
  14 -11   4    8.50    2.50
  -3  14   4   13.60    2.50
  12   2  -4   13.80    2.50
 -14  12  -4   10.90    2.20
 -14  12  -4   12.40    2.30
   2 -14  -4   11.30    1.90
   2 -14  -4    8.40    2.10
 -12  -2   4   13.10    2.70
  -2  14   4    9.50    2.00
  -2  14   4   11.80    2.10
   1 -14  -4   14.10    2.50
   1 -14  -4   20.20    2.80
  13   1  -4   17.40    2.60
 -14  13  -4   22.20    2.90
 -14  13  -4   20.20    3.10
 -13  -1   4   21.30    3.60
  -1  14   4   16.30    3.10
  -1  14   4   20.30    2.90
  14   0  -4    4.40    1.80
 -14  14  -4    1.80    1.80
   0 -14  -4    5.20    1.80
   0 -14  -4   -2.90    2.20
   0  14   4   -3.10    2.20
   0  14   4    0.30    2.10
 -14   0   4    4.00    2.60
  -1 -14  -4   10.90    2.70
  -1 -14  -4   16.50    2.80
 -14  15  -4   14.50    2.50
  15  -1  -4   18.20    2.70
   1  14   4   17.60    3.20
   1  14   4    7.90    2.50
 -15   1   4   12.50    2.90
 -14  16  -4    6.50    2.30
 -14  16  -4    6.40    1.90
  -2 -14  -4    6.10    2.10
  -2 -14  -4    2.00    2.60
  16  -2  -4    8.40    2.10
   2  14   4    5.00    2.60
   2  14   4    9.90    2.50
 -16   2   4    5.80    2.80
  -3 -14  -4   -0.40    2.70
 -14  17  -4    4.40    2.30
 -14  17  -4    5.50    2.10
  17  -3  -4    3.60    2.10
  -3 -14  -4    4.20    2.00
   3  14   4    3.40    3.20
   3  14   4    3.70    2.60
 -17   3   4    5.80    2.90
  -4 -14  -4    1.50    3.10
 -14  18  -4    4.70    2.30
 -14  18  -4    6.60    2.40
  18  -4  -4    6.20    2.30
   4  14   4    0.80    2.70
 -18   4   4    3.00    2.90
  -5 -14  -4   18.90    4.00
  19  -5  -4   27.80    3.70
 -14  19  -4   31.30    4.10
 -14  19  -4   28.90    3.60
   5  14   4   25.70    3.50
 -19   5   4   28.70    4.90
 -14  20  -4    2.80    2.40
  20  -6  -4    1.60    2.50
 -14  20  -4    4.60    3.00
 -20   6   4    4.00    3.60
 -14  21  -4   25.00    3.80
  21  -7  -4   36.10    4.90
 -14  21  -4   25.60    5.10
  21  -7  -4   21.90    3.50
 -21   7   4   25.00    4.30
   7  14   4   24.70    3.90
 -14  22  -4   10.00    3.00
 -14  22  -4   10.20    3.80
  22  -8  -4   12.90    3.70
  22  -8  -4   12.60    3.20
 -22   8   4   14.10    4.30
   8  14   4    7.80    3.20
 -14  23  -4    9.10    4.40
  23  -9  -4   10.70    3.50
  23  -9  -4   14.70    3.30
 -14  23  -4    8.60    2.80
   9  14   4    7.00    3.40
 -23   9   4    6.30    6.80
  24 -10  -4    5.80    3.50
  24 -10  -4    3.90    3.30
 -14  24  -4    4.20    2.90
  10  14   4    1.00    3.60
 -14  25  -4   -0.20    3.00
  25 -11  -4    5.90    3.60
  25 -11  -4    8.20    3.50
  11  14   4   -4.30    3.70
 -10  25  -4   17.60    3.60
  25 -15  -4   17.40    4.20
  15  10   4   10.60    3.90
  24 -15  -4    0.60    3.40
  -9  24  -4    3.20    2.90
  15   9   4    2.30    3.20
  -8  23  -4    1.20    2.70
  23 -15  -4    4.60    3.00
  15   8   4    2.60    2.90
  -7  22  -4    1.90    2.40
  22 -15  -4    3.10    2.80
  15   7   4    2.70    2.70
  15   7   4   -1.50    2.80
  21 -15  -4   -1.60    2.40
  -6  21  -4    4.00    2.30
  15   6   4    1.10    2.60
  15   6   4   -4.20    2.80
  20 -15  -4   -2.60    2.40
  -5  20  -4    3.70    2.20
  15   5   4    4.20    2.50
  15   5   4    4.10    2.60
  19 -15  -4    3.00    2.40
  -4  19  -4    8.50    2.20
  15   4   4   10.20    2.60
  15   4   4    7.10    2.30
  -3  18  -4    5.50    2.10
  18 -15  -4    2.70    2.10
  15   3   4    3.60    2.10
  15   3   4    6.30    2.50
  17 -15  -4   49.70    4.20
  -2  17  -4   44.90    4.20
  15   2   4   50.39    4.30
  16 -15  -4   17.10    3.00
  -1  16  -4   18.40    2.90
  15   1   4   16.20    3.20
   0  15  -4   75.09    5.60
  15 -15  -4   82.19    5.70
  15   0   4   77.69    5.70
  14 -15  -4   18.10    2.80
   1  14  -4   17.50    2.80
  15  -1   4   18.30    3.30
   2  13  -4    2.80    1.90
  13 -15  -4    4.70    1.80
  15  -2   4    4.00    2.30
  11 -15  -4    6.90    2.00
   4  11  -4   13.80    2.50
  15  -4   4    7.80    2.50
  10 -15  -4    5.00    1.60
   5  10  -4    7.10    1.90
  15  -5   4    9.40    2.40
  -5 -10   4    5.50    1.70
 -15   6  -4   36.50    3.80
   9 -15  -4   35.00    3.40
   6   9  -4   36.20    3.30
  -9  15   4   30.10    4.00
  -6  -9   4   34.90    3.40
  15  -6   4   35.80    3.80
 -15   7  -4    8.10    2.00
   8 -15  -4    8.10    1.70
   7   8  -4    6.80    1.90
  15  -7   4    6.60    2.20
  -8  15   4    3.60    1.80
  -7  -8   4    4.80    2.00
 -15   8  -4    7.00    1.90
   8   7  -4    0.80    1.70
   7 -15  -4    3.20    1.60
  -8  -7   4    1.90    1.80
  -7  15   4    4.40    1.60
  15  -8   4    3.70    2.20
   9   6  -4   10.70    2.10
 -15   9  -4   14.70    2.50
   6 -15  -4    7.10    1.80
  15  -9   4    9.60    2.40
  -9  -6   4    9.00    2.00
  -6  15   4    8.70    1.80
   5 -15  -4   40.60    3.60
 -15  10  -4   43.00    3.70
  10   5  -4   40.40    3.50
  15 -10   4   44.00    4.10
  -5  15   4   32.90    3.90
 -10  -5   4   36.90    3.70
  11   4  -4    2.70    1.90
   4 -15  -4   -1.70    1.60
 -15  11  -4    1.70    2.40
 -11  -4   4    2.90    2.30
  15 -11   4    3.90    2.10
  -4  15   4    2.60    2.00
   3 -15  -4   13.60    2.20
  12   3  -4   14.90    2.60
   3 -15  -4   11.00    2.00
  -3  15   4   13.00    2.10
  -3  15   4    7.90    2.10
 -12  -3   4   13.40    2.70
  15 -12   4   12.80    2.70
 -15  13  -4   11.70    2.60
   2 -15  -4   13.30    2.40
  13   2  -4   13.70    2.20
   2 -15  -4   14.80    2.60
  -2  15   4    9.50    2.40
 -13  -2   4   15.50    3.00
  -2  15   4   15.30    2.80
  14   1  -4    0.10    1.80
   1 -15  -4   -1.10    2.30
   1 -15  -4    3.10    1.80
 -14  -1   4    3.70    2.70
  -1  15   4    4.50    2.10
  -1  15   4   -0.80    3.50
 -15  15  -4   75.19    5.30
   0 -15  -4   61.79    5.30
  15   0  -4   69.49    5.00
   0 -15  -4   66.99    5.30
   0  15   4   66.79    5.30
 -15   0   4   73.89    5.80
 -15  16  -4    6.90    2.20
  -1 -15  -4   -0.70    2.90
  16  -1  -4    5.90    2.20
   1  15   4    6.00    2.40
 -16   1   4    6.50    2.80
  -2 -15  -4   12.10    3.30
  17  -2  -4   14.40    2.50
  -2 -15  -4   14.30    2.60
 -15  17  -4   15.90    2.80
 -15  17  -4   16.10    2.90
 -17   2   4   17.60    3.40
   2  15   4   13.60    3.00
 -15  18  -4   40.60    4.00
 -15  18  -4   35.60    3.80
  -3 -15  -4   25.80    4.70
  18  -3  -4   33.90    3.60
 -18   3   4   34.10    5.20
   3  15   4   30.20    4.30
  -4 -15  -4   -0.30    3.40
 -15  19  -4    5.90    2.50
  19  -4  -4    3.70    2.50
 -15  19  -4    6.70    2.50
   4  15   4   -0.80    2.70
 -19   4   4    1.10    3.50
 -15  20  -4    5.00    2.50
  20  -5  -4    3.20    2.80
 -15  20  -4    3.10    2.80
   5  15   4   -3.30    2.90
 -20   5   4    1.70    3.80
 -15  21  -4    8.80    3.20
 -15  21  -4    7.90    2.60
  21  -6  -4    5.60    3.00
   6  15   4    6.70    3.40
 -21   6   4    5.00    4.20
 -15  22  -4    1.20    3.50
  22  -7  -4    3.00    3.30
  22  -7  -4   -1.80    2.80
 -15  22  -4    2.00    2.70
   7  15   4    1.00    3.20
 -22   7   4    2.20    4.40
 -15  23  -4    5.00    4.00
  23  -8  -4    0.70    3.20
  23  -8  -4    1.50    3.20
 -15  23  -4    0.20    2.80
 -23   8   4    1.00    4.80
   8  15   4   -1.60    3.20
  24  -9  -4    3.40    3.70
  24  -9  -4    9.70    3.30
 -15  24  -4    0.00    2.90
   9  15   4    2.30    3.60
 -15  25  -4   -0.50    3.00
  25 -10  -4    2.40    3.70
  25 -10  -4    3.70    3.70
  10  15   4    4.90    3.90
  -9  25  -4    6.00    3.40
  25 -16  -4   -2.10    3.80
  16   9   4    7.20    3.50
  -8  24  -4    5.70    3.20
  24 -16  -4    6.90    3.70
  16   8   4   10.30    3.20
  -7  23  -4    5.80    3.00
  23 -16  -4   -0.10    3.10
  16   7   4    2.40    3.00
  -6  22  -4    6.90    2.80
  22 -16  -4    2.50    3.20
  16   6   4    5.10    3.20
  21 -16  -4    2.00    2.70
  -5  21  -4    6.30    2.70
  16   5   4    4.20    2.70
  16   5   4    5.50    2.80
  20 -16  -4   -0.20    2.40
  -4  20  -4    2.60    2.30
  16   4   4    4.80    2.40
  16   4   4    0.90    2.40
  19 -16  -4    8.10    2.40
  -3  19  -4   15.10    2.70
  16   3   4   18.10    3.50
  18 -16  -4   24.10    3.50
  -2  18  -4   20.30    3.30
  16   2   4   20.80    3.50
  17 -16  -4   29.90    3.50
  -1  17  -4   23.10    3.30
  16   1   4   20.80    3.40
  16 -16  -4   10.40    2.30
   0  16  -4   12.10    2.30
  16   0   4   10.40    2.60
  15 -16  -4    2.80    1.70
   1  15  -4    6.90    2.10
  16  -1   4    7.60    2.40
   2  14  -4    8.40    2.00
  14 -16  -4   11.40    2.00
  16  -2   4    8.50    2.40
   3  13  -4    7.70    2.20
  13 -16  -4    5.80    1.80
  16  -3   4    8.90    2.50
  12 -16  -4   24.80    3.00
   4  12  -4   26.70    3.20
  16  -4   4   28.00    3.60
   5  11  -4    8.10    2.20
  11 -16  -4    7.10    1.90
  16  -5   4    7.70    2.40
  10 -16  -4   34.60    3.40
  16  -6   4   30.40    4.50
   9 -16  -4    4.60    2.20
   7   9  -4    4.40    2.20
   8   8  -4    4.90    1.90
  -8  -8   4   -1.80    2.30
   9   7  -4   34.10    3.30
  -9  -7   4   33.90    3.50
  10   6  -4   13.60    2.30
 -10  -6   4   16.40    3.00
  11   5  -4    6.30    2.00
 -11  -5   4    7.90    2.50
  12   4  -4   11.30    2.30
   4 -16  -4    9.50    2.50
  16 -12   4   10.60    4.60
 -12  -4   4   10.70    2.70
  13   3  -4   -1.20    2.00
   3 -16  -4    2.50    2.20
   3 -16  -4    1.70    1.80
  -3  16   4    4.60    1.90
 -13  -3   4    3.80    2.60
   2 -16  -4    3.60    1.80
   2 -16  -4    1.70    2.40
 -16  14  -4   -0.70    2.00
  14   2  -4    0.00    1.90
 -14  -2   4    0.50    2.60
  -2  16   4    3.90    2.10
  15   1  -4   12.90    2.40
   1 -16  -4   15.00    3.00
 -16  15  -4   16.10    3.00
   1 -16  -4   12.00    2.20
  -1  16   4   12.20    2.60
 -15  -1   4   13.00    3.20
  16   0  -4   10.40    2.40
   0 -16  -4    9.40    2.30
   0 -16  -4   10.40    3.00
 -16  16  -4    9.50    2.50
 -16   0   4    6.90    3.00
   0  16   4   10.40    2.50
  -1 -16  -4   25.70    4.20
  17  -1  -4   25.20    3.40
 -16  17  -4   31.50    3.60
  -1 -16  -4   26.10    3.50
 -17   1   4   26.70    4.00
   1  16   4   24.10    3.90
 -16  18  -4   33.60    3.60
 -16  18  -4   36.10    4.00
  -2 -16  -4   35.40    4.70
  18  -2  -4   31.10    3.70
 -18   2   4   36.90    5.40
   2  16   4   29.20    4.40
  19  -3  -4   11.00    2.70
  -3 -16  -4    9.10    3.80
 -16  19  -4   10.50    2.70
 -16  19  -4   12.70    2.60
   3  16   4   10.40    3.10
 -19   3   4   13.40    4.00
  -4 -16  -4    5.10    4.10
 -16  20  -4    4.30    2.50
  20  -4  -4    5.50    2.90
 -16  20  -4    6.50    2.80
   4  16   4    1.20    3.00
 -20   4   4    3.00    4.00
  21  -5  -4   24.00    3.60
 -16  21  -4   23.70    4.00
 -16  21  -4   22.60    3.70
 -21   5   4   26.70    4.90
   5  16   4   21.70    4.00
 -16  22  -4   12.30    3.10
  22  -6  -4    3.70    3.30
 -16  22  -4   10.10    3.80
 -22   6   4    9.80    4.70
   6  16   4    7.50    3.50
  23  -7  -4    9.70    3.50
  23  -7  -4   14.70    3.90
 -16  23  -4    9.40    3.10
   7  16   4   14.20    3.80
 -23   7   4   15.50    5.20
  24  -8  -4   -0.50    3.60
 -16  24  -4    2.80    3.10
  24  -8  -4    1.20    3.40
   8  16   4    3.90    3.90
  25  -9  -4   -1.70    3.70
  25  -9  -4    1.50    3.70
 -16  25  -4   -2.80    3.00
   9  16   4    2.20    3.90
  25 -17  -4    0.60    3.40
  -8  25  -4    4.50    3.40
  17   8   4    2.50    3.30
  24 -17  -4    3.20    3.20
  -7  24  -4    2.50    3.10
  17   7   4    6.40    3.20
  23 -17  -4    0.70    3.00
  -6  23  -4    1.30    2.90
  17   6   4   -4.10    3.00
  -5  22  -4    0.90    2.60
  22 -17  -4   -0.50    2.80
  17   5   4   -0.20    2.90
  21 -17  -4   -1.50    2.80
  -4  21  -4    0.90    2.50
  17   4   4    1.60    2.50
  -3  20  -4    3.10    2.40
  20 -17  -4    2.80    2.70
  17   3   4    6.60    2.80
  19 -17  -4    6.20    2.50
  -2  19  -4    6.20    2.40
  17   2   4    7.70    2.60
  -1  18  -4   24.00    3.30
  18 -17  -4   18.20    3.30
  17   1   4   18.10    3.50
  17 -17  -4  115.39    7.60
   0  17  -4  117.79    7.70
  17   0   4  115.59    7.90
  16 -17  -4   29.70    3.50
   1  16  -4   34.70    3.50
  17  -1   4   28.60    3.80
   2  15  -4   16.50    3.10
  15 -17  -4   19.40    3.00
  17  -2   4   24.90    3.60
  14 -17  -4    3.90    1.80
   3  14  -4    7.80    2.10
  17  -3   4    5.60    2.40
   4  13  -4    0.60    2.00
  13 -17  -4    1.20    1.80
  17  -4   4    5.10    2.40
  12 -17  -4    0.80    1.60
   5  12  -4   -0.90    1.80
  17  -5   4   -1.10    2.30
   6  11  -4   15.30    2.80
  11 -17  -4   11.50    2.00
  17  -6   4   15.10    2.80
   7  10  -4    4.70    2.00
  10 -17  -4    3.30    1.70
  17  -7   4    0.70    2.20
   8   9  -4   15.00    2.70
   9 -17  -4   16.60    2.70
  17  -8   4   20.10    3.30
   9   8  -4    8.70    2.20
   8 -17  -4    5.60    1.90
  17  -9   4    8.80    2.60
   7 -17  -4    8.00    1.80
  10   7  -4    4.00    3.30
  17 -10   4    8.00    2.60
   6 -17  -4    4.00    1.80
  17 -11   4    8.20    2.50
   5 -17  -4    0.40    1.70
  12   5  -4    2.00    3.10
  17 -12   4    1.10    2.20
  13   4  -4   -0.40    2.10
   4 -17  -4   -1.00    1.70
  17 -13   4    5.60    2.70
 -17  14  -4    1.50    2.20
  14   3  -4    1.60    2.20
   3 -17  -4    4.40    1.80
   3 -17  -4    4.70    2.50
  -3  17   4    3.10    2.10
   2 -17  -4   41.70    4.40
 -17  15  -4   46.40    4.10
   2 -17  -4   38.10    3.80
  15   2  -4   39.20    3.80
  -2  17   4   39.60    4.10
 -15  -2   4   47.70    7.40
   1 -17  -4   26.20    3.30
 -17  16  -4   26.40    3.60
   1 -17  -4   20.30    3.60
  16   1  -4   19.70    3.30
  -1  17   4   24.40    3.60
 -16  -1   4   22.70    5.50
   0 -17  -4   93.79    6.80
  17   0  -4   95.79    6.80
 -17  17  -4  113.39    7.10
   0 -17  -4   87.89    7.20
   0  17   4  101.99    7.00
 -17   0   4  102.99    8.80
  18  -1  -4   49.00    4.80
 -17  18  -4   67.49    5.10
  -1 -17  -4   49.10    5.70
   1  17   4   55.19    5.40
 -18   1   4   67.49    7.60
  19  -2  -4    4.10    2.80
  -2 -17  -4    1.30    3.80
 -17  19  -4    3.90    2.30
 -17  19  -4    6.30    2.70
 -19   2   4    6.60    6.40
   2  17   4    7.50    3.00
 -17  20  -4    8.40    2.70
 -17  20  -4   11.30    2.80
  20  -3  -4    9.10    3.20
  -3 -17  -4    8.40    4.50
   3  17   4    7.70    3.30
 -17  21  -4    4.80    2.90
 -17  21  -4   -3.10    3.10
  21  -4  -4    0.10    3.40
  22  -5  -4   -0.50    4.10
 -17  22  -4   -1.30    3.00
   5  17   4    7.30    3.70
 -17  23  -4    0.10    3.00
   6  17   4    9.60    3.80
 -17  24  -4    1.00    3.10
  24  -7  -4   -0.30    3.70
   7  17   4    6.60    3.80
 -17  25  -4   -1.90    3.20
  25  -8  -4   -1.80    3.80
   8  17   4    4.00    4.00
  -7  25  -4    4.60    3.50
  25 -18  -4   -3.50    3.70
  18   7   4    5.00    3.50
  24 -18  -4   18.40    3.90
  -6  24  -4   13.30    3.60
  18   6   4   13.80    3.90
  23 -18  -4    8.30    3.40
  -5  23  -4    2.20    2.90
  18   5   4    1.10    3.00
  -4  22  -4   20.60    4.00
  22 -18  -4   23.90    4.80
  18   4   4   19.90    3.90
  -3  21  -4   15.20    2.90
  21 -18  -4   11.90    3.00
  18   3   4    7.10    3.00
  20 -18  -4   18.40    3.70
  -2  20  -4   23.20    3.60
  18   2   4   21.00    3.80
  -1  19  -4   36.30    4.30
  19 -18  -4   39.20    4.20
  18   1   4   43.90    4.30
   0  18  -4    4.70    2.40
  18 -18  -4   -0.80    2.10
  18   0   4    0.90    2.50
  17 -18  -4   67.89    5.30
   1  17  -4   66.99    5.30
  18  -1   4   63.29    5.50
  16 -18  -4   40.50    3.90
   2  16  -4   42.10    4.20
  18  -2   4   47.80    4.60
   3  15  -4   33.60    3.80
  15 -18  -4   37.80    3.70
  14 -18  -4    5.10    2.00
   4  14  -4    8.70    2.10
  18  -4   4    6.10    2.70
  13 -18  -4    7.60    1.90
   5  13  -4    9.50    2.20
  18  -5   4    9.70    2.50
   6  12  -4    0.10    2.00
  12 -18  -4    1.80    1.70
  18  -6   4    2.20    2.40
  11 -18  -4   -1.20    1.60
   7  11  -4    2.60    1.90
  18  -7   4    4.50    2.50
   8  10  -4    2.40    2.10
  10 -18  -4    0.30    1.70
  18  -8   4    0.90    2.20
   9   9  -4   21.70    3.00
   9 -18  -4   18.30    3.00
  18  -9   4   25.20    3.70
   8 -18  -4    3.60    1.70
  10   8  -4    1.70    2.10
  18 -10   4    5.50    2.50
  11   7  -4   29.30    3.20
   7 -18  -4   28.70    3.20
  18 -11   4   34.80    4.40
  12   6  -4    3.50    2.00
   6 -18  -4    3.10    1.80
  18 -12   4    5.60    2.60
  13   5  -4   10.50    2.30
   5 -18  -4   12.10    2.20
  18 -13   4   16.30    3.10
   4 -18  -4    6.00    2.60
  14   4  -4    3.60    2.20
   4 -18  -4    7.20    1.90
  18 -14   4    2.80    2.80
 -18  15  -4    0.00    2.10
   3 -18  -4    3.70    2.80
  15   3  -4    4.40    2.10
   3 -18  -4    4.20    2.00
  -3  18   4    2.80    2.40
 -18  16  -4   20.80    3.40
   2 -18  -4   21.30    4.10
  16   2  -4   16.50    3.20
   2 -18  -4   20.30    3.20
  -2  18   4   18.80    3.50
 -18  17  -4   16.40    3.00
  17   1  -4   15.60    2.90
   1 -18  -4   11.60    2.50
   1 -18  -4   17.10    3.60
  -1  18   4   15.90    3.20
 -18  18  -4    2.20    2.60
   0 -18  -4   -0.50    3.70
  18   0  -4   -1.50    2.50
   0  18   4    1.00    2.90
  19  -1  -4    0.20    2.70
  -1 -18  -4    0.20    4.30
 -18  19  -4   -2.10    2.50
   1  18   4   -2.80    2.80
  20  -2  -4    5.20    3.10
  -2 -18  -4    6.40    4.70
 -18  20  -4   10.90    3.10
   2  18   4    1.80    3.40
  21  -3  -4    7.50    3.50
 -18  21  -4    9.60    2.90
   3  18   4    4.40    3.70
 -18  22  -4    5.10    3.00
  22  -4  -4   -4.20    3.40
   4  18   4    6.50    3.70
  23  -5  -4    2.20    3.90
 -18  23  -4    9.50    3.30
   5  18   4    7.20    3.70
  24  -6  -4   -1.30    3.80
 -18  24  -4    0.00    3.10
   6  18   4    5.90    4.10
 -18  25  -4   -0.70    3.20
  25  -7  -4    1.50    4.00
  25  -7  -4    2.50    4.40
   7  18   4    6.60    4.30
  -5  24  -4    5.40    3.50
  24 -19  -4    1.40    3.40
  19   5   4    0.40    3.20
  23 -19  -4    1.80    3.30
  -4  23  -4   -1.10    3.10
  19   4   4   -0.60    3.00
  22 -19  -4   11.90    3.10
  -3  22  -4    8.70    3.50
  19   3   4   13.30    3.30
  21 -19  -4    7.10    2.90
  -2  21  -4    1.80    2.80
  19   2   4    4.10    2.80
  -1  20  -4    2.00    2.50
  20 -19  -4    3.10    2.60
  19   1   4    3.50    2.70
   0  19  -4    2.40    2.60
  19 -19  -4    5.50    2.60
  19   0   4    9.50    2.80
  18 -19  -4    0.30    2.10
   1  18  -4    2.30    2.30
  19  -1   4    0.40    2.50
  17 -19  -4    5.90    2.20
   2  17  -4    8.70    2.50
  19  -2   4   12.70    2.80
  16 -19  -4   13.30    2.50
   3  16  -4   14.90    2.80
  19  -3   4   22.00    3.70
   4  15  -4    7.10    2.40
  15 -19  -4    4.90    2.00
  19  -4   4   13.70    2.90
   5  14  -4   23.80    3.40
  14 -19  -4   28.40    3.30
  19  -5   4   40.00    4.30
   6  13  -4    6.60    2.20
  13 -19  -4    5.50    1.90
  19  -6   4   10.00    2.90
  12 -19  -4    7.00    2.00
   7  12  -4    9.20    2.20
  19  -7   4   14.70    2.90
  11 -19  -4    6.90    2.00
   8  11  -4   10.10    2.30
  19  -8   4    6.90    2.60
   9  10  -4    0.80    2.00
  10 -19  -4    2.30    1.80
  19  -9   4    3.10    2.60
  10   9  -4    1.40    1.90
   9 -19  -4    0.90    1.70
  19 -10   4    4.00    2.50
  11   8  -4   11.00    2.40
   8 -19  -4   12.80    2.20
  19 -11   4   21.90    3.40
   7 -19  -4    1.10    1.80
  12   7  -4    1.10    1.90
  19 -12   4    1.40    2.80
  13   6  -4    0.80    2.00
   6 -19  -4   -1.30    1.80
  19 -13   4    0.30    2.70
   5 -19  -4    9.10    2.10
  14   5  -4    8.80    2.50
  19 -14   4   13.40    3.40
  15   4  -4    5.50    2.40
   4 -19  -4   10.20    2.20
   4 -19  -4    7.70    2.90
  -4  19   4   11.10    2.50
  16   3  -4    9.50    2.60
   3 -19  -4   11.10    3.30
 -19  16  -4    9.70    2.80
   3 -19  -4   11.30    2.30
  -3  19   4   10.20    2.70
  17   2  -4    1.30    2.70
   2 -19  -4    7.10    2.40
   2 -19  -4    3.00    3.50
 -19  17  -4    7.60    2.70
  -2  19   4    4.90    2.80
 -19  18  -4   40.00    4.30
   1 -19  -4   30.30    3.80
  18   1  -4   27.50    3.90
   1 -19  -4   33.90    5.40
  -1  19   4   34.70    4.50
 -19  19  -4    7.30    2.80
  19   0  -4    6.20    2.80
   0 -19  -4   10.20    4.30
   0  19   4    6.90    3.30
  -1 -19  -4   34.20    6.40
  20  -1  -4   30.90    4.30
 -19  20  -4   37.90    4.50
   1  19   4   25.00    5.00
  21  -2  -4   12.70    3.40
 -19  21  -4    8.70    3.30
  -2 -19  -4   10.30    6.30
   2  19   4    7.40    3.70
 -19  22  -4   24.00    4.30
  22  -3  -4   13.90    3.90
   3  19   4   19.60    4.20
 -19  23  -4   19.30    3.70
  23  -4  -4    6.20    4.00
   4  19   4   21.50    4.50
 -19  24  -4    5.40    3.30
  24  -5  -4    0.00    4.00
   5  19   4    2.50    4.10
  -4  24  -4    4.10    3.40
  24 -20  -4    3.50    3.80
  20   4   4   12.70    3.30
  -3  23  -4   -1.40    3.10
  23 -20  -4    0.90    3.10
  20   3   4    3.20    3.30
  -2  22  -4    1.70    2.90
  22 -20  -4    1.70    3.20
  20   2   4   10.90    3.10
  21 -20  -4    4.90    2.90
  -1  21  -4    5.50    2.80
  20   1   4   14.50    3.10
   0  20  -4    1.30    2.80
  20 -20  -4    3.80    2.70
  20   0   4    9.30    3.00
   1  19  -4   27.20    4.10
  19 -20  -4   30.10    4.20
  20  -1   4   40.90    4.40
  18 -20  -4    7.00    2.40
   2  18  -4    9.00    2.70
  20  -2   4   10.80    2.80
  17 -20  -4    6.60    2.20
   3  17  -4   12.60    2.70
  20  -3   4   24.20    4.10
   4  16  -4    2.40    2.20
  16 -20  -4    3.40    2.10
  20  -4   4    6.10    2.90
  15 -20  -4    5.10    2.00
   5  15  -4    1.40    2.10
  20  -5   4    8.00    3.00
   6  14  -4    3.40    2.20
  14 -20  -4    1.60    1.90
  20  -6   4    4.00    2.80
  13 -20  -4   -1.30    1.90
   7  13  -4    0.50    2.20
  20  -7   4   -0.10    2.60
   8  12  -4    7.00    2.30
  12 -20  -4    8.10    2.20
  20  -8   4    4.50    3.00
   9  11  -4    1.80    2.10
  11 -20  -4    2.40    1.80
  20  -9   4    3.00    2.50
  10  10  -4    0.90    2.00
  10 -20  -4    1.80    1.90
  20 -10   4    6.50    2.60
  11   9  -4   21.40    3.10
   9 -20  -4   23.10    3.00
  20 -11   4   35.00    4.50
   8 -20  -4    3.60    1.90
  12   8  -4    5.00    2.30
  20 -12   4    6.90    3.20
  13   7  -4   16.30    2.70
   7 -20  -4   12.60    2.30
  20 -13   4   22.10    3.60
  14   6  -4    2.70    2.30
   6 -20  -4    4.30    2.00
  20 -14   4    1.90    3.10
   5 -20  -4    1.90    2.70
  15   5  -4   -0.20    2.20
   5 -20  -4   -1.50    1.90
  20 -15   4    2.50    3.30
   4 -20  -4    1.90    2.10
 -20  16  -4    0.20    2.60
   4 -20  -4    1.70    3.00
  16   4  -4    1.20    2.50
  -4  20   4   -1.80    2.60
  17   3  -4   -0.40    2.80
   3 -20  -4    2.30    3.40
   3 -20  -4    0.20    2.20
 -20  17  -4    2.90    2.50
  -3  20   4    1.70    2.70
   2 -20  -4    9.10    2.50
 -20  18  -4   18.70    3.30
  18   2  -4   10.20    2.90
   2 -20  -4   12.00    4.00
  -2  20   4   13.60    3.40
   1 -20  -4    0.70    4.20
 -20  19  -4    7.50    3.10
  19   1  -4    4.00    2.90
  -1  20   4    0.40    3.20
 -20  20  -4    2.00    2.90
   0 -20  -4    1.50    4.80
  20   0  -4    4.30    3.00
   0  20   4    2.30    3.50
  21  -1  -4   12.40    3.60
  -1 -20  -4    8.10    5.70
 -20  21  -4    9.20    3.40
   1  20   4   13.20    4.20
 -20  22  -4    3.90    3.40
  22  -2  -4    7.40    3.90
   2  20   4    6.30    4.30
  23  -3  -4   -3.90    4.00
 -20  23  -4    7.40    3.60
   3  20   4    5.70    4.30
 -20  24  -4   -0.50    3.40
  24  -4  -4   -1.90    4.20
   4  20   4    1.50    4.30
  -2  23  -4    3.70    3.30
  23 -21  -4    2.50    3.40
  21   2   4   11.20    3.30
  -1  22  -4    1.60    3.20
  22 -21  -4    2.20    3.60
  21   1   4    0.40    3.10
  21 -21  -4    7.00    3.20
   0  21  -4    6.10    3.30
  21   0   4   10.70    3.10
   1  20  -4    9.80    3.00
  20 -21  -4    9.20    2.90
  21  -1   4   11.50    3.20
   2  19  -4    7.70    2.80
  19 -21  -4    8.90    2.60
  21  -2   4    9.60    3.10
  18 -21  -4    5.30    2.40
   3  18  -4    4.90    2.60
  21  -3   4   11.30    3.20
   4  17  -4    0.70    2.40
  17 -21  -4    5.20    2.10
  21  -4   4    5.90    2.90
  16 -21  -4   19.00    3.20
   5  16  -4   25.00    3.60
  21  -5   4   32.40    4.70
  15 -21  -4    3.60    2.20
   6  15  -4    6.90    2.50
  21  -6   4   10.60    3.30
   7  14  -4   20.20    3.50
  14 -21  -4   26.60    3.50
  21  -7   4   35.40    4.60
  13 -21  -4    3.20    2.00
   8  13  -4    3.00    2.30
  21  -8   4    6.40    3.00
  12 -21  -4   13.70    2.40
   9  12  -4   16.80    2.60
  21  -9   4   17.60    3.40
  10  11  -4   -1.50    2.10
  11 -21  -4    3.80    1.70
  21 -10   4    3.40    3.00
  10 -21  -4   -1.10    1.60
  11  10  -4    0.80    2.10
  21 -11   4    2.20    3.00
  12   9  -4   -0.60    2.10
   9 -21  -4   -1.80    1.80
  21 -12   4    0.80    3.30
   8 -21  -4    5.10    2.10
  13   8  -4    1.80    2.20
  21 -13   4    7.20    3.60
  14   7  -4    2.20    2.40
   7 -21  -4    2.50    1.90
  21 -14   4    3.90    3.50
   6 -21  -4    0.10    2.00
  15   6  -4    0.00    2.30
  21 -15   4   -1.00    3.40
   5 -21  -4    3.00    2.10
  16   5  -4    8.10    2.60
  21 -16   4    9.50    3.80
  17   4  -4   -0.40    2.90
   4 -21  -4   -1.30    2.20
 -21  17  -4    0.10    2.80
  -4  21   4    0.60    2.80
 -21  18  -4   15.50    3.20
  18   3  -4    3.20    2.80
   3 -21  -4    6.40    2.40
  -3  21   4   14.00    3.30
  19   2  -4    6.50    2.90
 -21  19  -4    0.10    3.10
  -2  21   4    0.20    3.30
  20   1  -4    7.00    3.50
 -21  20  -4    7.30    3.40
  -1  21   4    2.50    3.70
 -21  21  -4    7.80    3.50
  21   0  -4    7.50    3.70
   0  21   4    3.90    4.00
 -21  22  -4   73.39    6.40
  22  -1  -4   64.69    6.70
   1  21   4   57.59    9.10
 -21  23  -4   18.50    3.80
  23  -2  -4    8.60    4.30
   2  21   4   11.40    4.50
  22 -22  -4   -2.20    2.90
   0  22  -4   -3.40    3.10
  22   0   4    5.50    3.20
   1  21  -4   52.99    5.50
  21 -22  -4   63.89    6.10
  22  -1   4   76.79    6.20
   2  20  -4    5.00    2.90
  20 -22  -4    2.70    2.90
  22  -2   4    4.30    3.20
  19 -22  -4   22.70    3.70
   3  19  -4   17.80    3.40
  22  -3   4   31.30    5.00
   4  18  -4    2.60    2.60
  18 -22  -4    5.10    2.40
  22  -4   4    7.30    3.20
   5  17  -4   -0.50    2.50
  17 -22  -4   -2.60    2.20
  22  -5   4    3.30    3.40
  16 -22  -4    8.00    2.30
   6  16  -4    7.30    2.50
  15 -22  -4    1.60    2.30
   7  15  -4   -1.50    2.30
  22  -7   4    1.10    3.10
   8  14  -4    7.90    2.50
  14 -22  -4   10.30    2.20
  22  -8   4   13.00    3.30
  13 -22  -4   -0.50    2.10
   9  13  -4   -2.80    2.20
  22  -9   4    1.80    3.30
  10  12  -4    5.80    2.30
  12 -22  -4    8.00    2.10
  22 -10   4   10.20    3.10
  11  11  -4   -1.60    2.30
  11 -22  -4   -2.50    1.90
  22 -11   4    3.10    3.10
  12  10  -4    0.80    2.10
  10 -22  -4   -2.30    1.80
  22 -12   4    2.10    3.20
  13   9  -4    3.70    2.30
   9 -22  -4    5.30    2.00
  22 -13   4    0.70    3.60
  14   8  -4   -0.60    2.30
   8 -22  -4   -1.20    1.90
  22 -14   4    2.50    3.30
   7 -22  -4   -2.90    1.90
  15   7  -4    0.90    2.50
  22 -15   4    3.40    3.80
   6 -22  -4    4.90    2.20
  16   6  -4    5.80    2.70
  22 -16   4    5.30    4.00
   5 -22  -4   -3.80    2.20
  17   5  -4    1.00    2.80
 -22  17  -4   -0.60    3.30
   4 -22  -4   12.50    2.50
  18   4  -4   15.80    3.30
 -22  18  -4   21.60    3.70
  -4  22   4   20.10    3.40
  19   3  -4    7.50    3.10
 -22  19  -4   17.80    3.60
  -3  22   4    7.30    3.60
 -22  20  -4    6.20    3.40
  20   2  -4    1.90    3.50
  -2  22   4    2.90    3.70
  21   1  -4    2.60    3.80
 -22  21  -4    8.40    3.60
  -1  22   4   -3.30    4.00
 -22  22  -4    4.10    3.70
  22   0  -4    4.80    3.80
   0  22   4    0.20    4.30
   2  21  -4   13.50    3.40
  21 -23  -4   13.30    3.40
  23  -2   4   16.90    3.70
   3  20  -4    4.80    2.90
  20 -23  -4    3.60    3.00
  23  -3   4   14.60    3.90
  19 -23  -4    7.70    3.00
   4  19  -4   17.20    3.20
  23  -4   4   32.50    4.90
  18 -23  -4    3.40    2.60
   5  18  -4    0.40    2.60
  23  -5   4   10.90    3.90
   6  17  -4    2.40    2.60
  17 -23  -4    2.00    2.40
  23  -6   4   10.70    3.70
  16 -23  -4    8.20    2.40
   7  16  -4   10.80    2.80
  23  -7   4   14.10    3.60
  15 -23  -4   -2.30    2.20
   8  15  -4    2.10    2.40
  23  -8   4   -0.10    3.20
   9  14  -4    8.40    2.60
  14 -23  -4    9.60    2.30
  23  -9   4   13.60    3.80
  10  13  -4   -3.70    2.20
  13 -23  -4   -1.30    1.90
  23 -10   4   -0.80    3.30
  11  12  -4   -0.20    2.20
  12 -23  -4    0.20    2.00
  23 -11   4    7.20    3.60
  11 -23  -4   10.60    2.40
  12  11  -4   16.80    2.80
  13  10  -4   11.10    2.60
  10 -23  -4    8.00    2.10
  23 -13   4   10.10    4.20
  14   9  -4    2.40    2.40
   9 -23  -4    1.90    1.90
  23 -14   4    1.20    3.80
  15   8  -4    3.60    2.70
   8 -23  -4    1.80    2.20
  23 -15   4    9.30    4.10
  16   7  -4    5.40    2.90
   7 -23  -4    2.70    2.30
  23 -16   4    5.40    4.20
  17   6  -4   -2.30    3.10
   6 -23  -4   -1.80    2.30
  23 -17   4   -7.90    4.40
 -23  18  -4    4.10    3.40
  18   5  -4    0.00    3.00
   5 -23  -4    1.70    2.30
 -23  19  -4    1.90    3.50
  19   4  -4   -0.60    2.90
  -4  23   4    1.10    3.50
  20   3  -4   -0.70    3.70
 -23  20  -4   -0.90    3.50
  -3  23   4   -4.80    3.80
 -23  21  -4   10.20    3.90
  21   2  -4    7.20    4.10
  -2  23   4   -0.10    4.20
   4  20  -4   -4.80    2.90
  20 -24  -4    0.50    3.10
  24  -4   4    6.70    3.70
  19 -24  -4   -0.50    2.60
   5  19  -4    1.40    2.80
  24  -5   4    6.70    4.10
   6  18  -4   -1.20    2.60
  18 -24  -4   -3.20    2.40
  24  -6   4    4.80    3.90
  17 -24  -4   -1.60    2.40
   7  17  -4    0.00    2.70
  24  -7   4    6.40    3.90
  16 -24  -4    0.00    2.20
   8  16  -4    1.30    2.50
  24  -8   4    3.60    3.80
  15 -24  -4    3.00    2.20
   9  15  -4    1.10    2.40
  24  -9   4    6.50    4.00
  14 -24  -4    0.00    2.20
  10  14  -4    2.70    2.70
  24 -10   4   -6.60    3.50
  13 -24  -4    0.60    2.20
  11  13  -4    1.50    2.40
  24 -11   4   -4.10    3.50
  12  12  -4   13.70    2.80
  12 -24  -4   18.20    3.20
  24 -12   4   30.50    5.30
  13  11  -4   -1.40    2.30
  11 -24  -4    2.00    2.00
  24 -13   4    0.90    4.10
  14  10  -4   -0.20    2.40
  10 -24  -4    2.10    2.10
  24 -14   4   -3.30    4.20
   9 -24  -4    0.50    2.20
  15   9  -4    1.30    2.70
  24 -15   4    1.10    4.20
   8 -24  -4    5.50    2.40
  16   8  -4    4.10    2.80
  24 -16   4    9.00    4.40
   7 -24  -4    0.00    2.30
  17   7  -4    0.50    2.90
  24 -17   4    2.80    4.70
 -24  18  -4   11.70    4.00
   6 -24  -4    7.90    2.50
  18   6  -4   10.10    3.30
  19   5  -4    2.90    3.10
 -24  19  -4    7.60    3.90
 -24  20  -4    7.00    3.90
  20   4  -4    0.50    3.90
  18 -25  -4   -1.80    2.60
  25  -7   4    7.40    4.20
   8  17  -4   -5.50    2.50
  17 -25  -4   -2.80    2.30
  25  -8   4    8.90    4.30
  16 -25  -4   -3.10    2.40
   9  16  -4   -4.50    2.50
  25  -9   4    4.70    4.10
  10  15  -4   -1.40    2.60
  15 -25  -4   -1.30    2.20
  25 -10   4   -4.10    4.10
  11  14  -4   -1.10    2.40
  14 -25  -4   -4.50    2.30
  25 -11   4    3.40    4.00
  13 -25  -4   18.10    3.20
  12  13  -4   20.50    3.60
  25 -12   4   39.10    5.90
  12 -25  -4    6.50    2.30
  13  12  -4    9.00    2.70
  25 -13   4   15.20    5.10
  11 -25  -4   23.20    3.50
  14  11  -4   20.50    3.40
  25 -14   4   35.30    6.70
  10 -25  -4   10.10    2.60
  15  10  -4   10.90    2.90
  25 -15   4   21.10    5.10
   9 -25  -4    5.00    2.60
  16   9  -4   -1.30    3.00
  25 -16   4    5.50    4.80
   8 -25  -4   -4.00    2.30
  17   8  -4   -1.00    2.90
  25 -17   4    0.30    5.00
   7 -25  -4   -3.40    2.20
  18   7  -4   -1.60    3.40
  25 -18   4   -3.50    4.90
   0   0  -5  779.52   43.60
   0   0  -5  767.92   43.60
   0   0  -5  769.72   43.60
  -1   0  -5   60.29    4.70
   0   1  -5   62.19    4.70
  -1   0  -5   62.29    4.70
   1  -1  -5   68.09    4.70
   0   1  -5   61.19    4.70
   1  -1  -5   70.09    5.00
  -1   0  -5   61.09    4.80
   1  -1  -5   68.49    4.70
   1   0  -5   61.69    4.60
   0  -1  -5   50.49    4.60
  -1   1  -5   59.59    4.50
  -1   1  -5   67.79    4.60
   1   0  -5   60.99    4.70
   1   0  -5   62.49    4.60
  -1   1  -5   59.39    4.60
   0  -1  -5   64.99    4.70
   0  -1  -5   68.99    4.70
   2  -1  -5   27.00    3.20
  -1   2  -5   22.00    2.90
  -1  -1  -5   20.20    2.90
   2  -1  -5   26.70    2.80
  -1   2  -5   26.20    2.80
   2  -1  -5   19.20    2.90
  -1  -1  -5   17.10    2.80
  -1  -1  -5   25.60    3.00
  -1   3  -5   22.80    2.80
   3  -2  -5   24.80    2.80
  -2  -1  -5   29.20    3.00
  -2  -1  -5   20.10    2.80
   3  -2  -5   22.90    2.90
  -2  -1  -5   20.30    3.00
   3  -2  -5   28.80    3.20
  -1   3  -5   24.10    2.80
   2  -2  -5  147.29    8.50
  -2   0  -5  139.29    8.60
   0   2  -5  135.39    8.60
   0   2  -5  127.19    8.50
   2  -2  -5  149.09    8.70
  -2   0  -5  139.09    8.60
  -2   0  -5  134.19    8.50
   2  -2  -5  140.49    8.60
   1  -2  -5   17.30    2.70
  -2   1  -5   20.40    2.80
  -2   1  -5   24.50    2.70
  -2   1  -5   13.10    2.70
   1  -2  -5   24.00    2.80
   1  -2  -5   25.80    3.00
   1   1  -5   18.80    2.80
   1   1  -5   16.60    2.70
   2   0  -5  137.59    8.40
   0  -2  -5  129.49    8.40
   2   0  -5  134.29    8.60
  -2   2  -5  135.19    8.50
   0  -2  -5  146.89    8.50
  -2   2  -5  131.39    8.50
   0  -2  -5  142.49    8.50
  -2   3  -5   13.80    2.50
   3  -1  -5   13.10    2.10
   3  -1  -5   12.00    2.30
  -1  -2  -5   15.30    2.30
   3  -1  -5   13.00    2.10
  -1  -2  -5   13.70    2.30
  -1  -2  -5   11.00    1.90
  -2   3  -5   15.60    2.20
  -2  -2  -5    1.50    1.40
  -2   4  -5    0.10    1.30
   4  -2  -5   -1.20    1.50
   4  -2  -5   -0.80    1.80
  -2  -2  -5   -1.20    1.60
   4  -2  -5    0.60    1.50
  -2   4  -5    0.50    1.50
   2   2   5    1.60    1.80
  -2   5  -5   22.60    2.80
  -3  -2  -5   25.60    3.10
  -2   5  -5   21.10    2.90
   5  -3  -5   25.30    3.20
  -3  -2  -5   22.50    2.70
   5  -3  -5   21.40    2.50
   5  -3  -5   20.10    2.90
   3   2   5   24.80    3.10
  -3  -1  -5   -1.00    1.30
   4  -3  -5    1.50    1.60
  -3  -1  -5   -0.50    1.60
   4  -3  -5    1.00    1.70
  -1   4  -5    2.90    1.50
  -1   4  -5    1.10    1.50
   4  -3  -5    0.40    1.50
   3   1   5   -0.30    1.80
   0   3  -5    4.80    1.70
  -3   0  -5    6.30    1.70
   0   3  -5    5.40    1.70
   3  -3  -5    4.70    1.70
   3  -3  -5    5.90    1.90
   3  -3  -5    5.30    1.70
  -3   0  -5    1.70    1.50
  -3   0  -5   -0.70    1.80
   1   2  -5   12.50    2.20
   2  -3  -5   13.20    2.30
  -3   1  -5   15.20    2.50
  -3   1  -5   11.10    1.80
   1   2  -5   13.70    2.50
   2  -3  -5   14.50    2.60
   2  -3  -5   11.60    2.00
  -3   1  -5   12.10    2.40
   1  -3  -5   30.20    3.00
  -3   2  -5   28.90    2.90
  -3   2  -5   23.00    3.00
   1  -3  -5   23.80    2.90
   2   1  -5   24.90    3.20
   2   1  -5   19.80    2.90
  -3   2  -5   21.00    2.80
   1  -3  -5   28.80    3.20
  -3   3  -5    7.10    1.70
   0  -3  -5    1.20    1.60
  -3   3  -5    5.90    1.60
   0  -3  -5    7.50    1.80
   3   0  -5    3.90    2.00
   0  -3  -5    5.10    1.90
   3   0  -5    3.50    1.60
  -1  -3  -5   13.00    1.90
  -3   4  -5   18.30    2.60
   4  -1  -5   12.80    2.40
  -3   4  -5   13.80    2.50
   4  -1  -5   13.10    2.00
  -1  -3  -5   14.10    2.20
   5  -2  -5    0.10    1.90
   5  -2  -5   -1.20    1.40
  -2  -3  -5    0.30    1.30
   5  -2  -5   -0.40    1.50
  -3   5  -5   -1.30    1.70
  -2  -3  -5    2.10    1.70
  -3   5  -5    1.30    1.60
   2   3   5    1.60    1.80
  -3   6  -5    2.30    1.60
   6  -3  -5    1.00    1.40
  -3   6  -5    3.10    1.70
   6  -3  -5    0.90    1.60
  -3  -3  -5    2.50    1.40
   6  -3  -5    2.70    2.00
  -3  -3  -5    4.40    1.90
   3   3   5    4.10    1.80
   7  -4  -5    1.30    2.00
  -4  -3  -5   -0.40    1.30
  -3   7  -5    2.90    1.70
  -3   7  -5    1.50    1.60
   7  -4  -5    0.80    1.60
  -4  -3  -5    0.70    1.80
   7  -4  -5   -0.30    1.40
   4   3   5    0.70    2.00
  -4  -2  -5   24.10    2.60
   6  -4  -5   19.40    2.50
  -4  -2  -5   25.20    2.90
  -2   6  -5   23.40    3.10
   6  -4  -5   20.70    3.10
  -2   6  -5   25.90    2.90
   6  -4  -5   26.10    3.10
   4   2   5   24.10    3.20
  -4  -1  -5    2.90    1.40
   5  -4  -5    1.80    1.60
   5  -4  -5    1.70    1.70
  -1   5  -5   -1.00    1.50
  -1   5  -5    2.10    1.70
   5  -4  -5    1.30    1.50
  -4  -1  -5    3.70    1.70
   4   1   5    2.60    1.90
   0   4  -5    1.70    1.50
  -4   0  -5   -0.30    1.20
   0   4  -5    0.70    1.60
   4  -4  -5    0.70    1.80
  -4   0  -5    1.40    1.50
   4  -4  -5   -1.10    1.50
   4  -4  -5    0.00    1.60
   4   0   5    1.60    1.90
   3  -4  -5   12.10    2.20
   3  -4  -5   12.80    1.90
  -4   1  -5   11.70    2.30
  -4   1  -5   14.40    2.40
  -4   1  -5   13.90    2.50
   1   3  -5   14.40    2.50
   3  -4  -5   14.30    2.50
   1   3  -5   13.30    2.00
   2   2  -5    2.10    1.60
   2  -4  -5    2.80    1.70
   2   2  -5    3.30    1.60
   2  -4  -5   -0.30    1.40
   2  -4  -5    2.60    1.60
  -4   2  -5    2.80    1.60
  -4   2  -5    1.70    1.30
  -4   2  -5    2.10    1.60
   1  -4  -5   -0.10    1.40
   1  -4  -5    2.90    1.80
   1  -4  -5    2.50    1.60
   3   1  -5    0.30    1.70
  -4   3  -5    0.70    1.40
   3   1  -5   -3.10    1.50
  -4   3  -5    2.20    1.70
  -4   3  -5   -0.50    1.50
  -4   4  -5   -0.60    1.70
  -4   4  -5   -0.70    1.70
   4   0  -5   -1.60    1.50
   0  -4  -5   -0.50    1.70
   0  -4  -5    0.50    1.40
   0  -4  -5    0.80    1.70
   4   0  -5   -1.00    1.80
  -1  -4  -5   27.90    3.10
  -4   5  -5   31.50    3.20
  -4   5  -5   27.50    3.10
   5  -1  -5   30.20    3.50
  -1  -4  -5   27.70    2.90
   5  -1  -5   26.90    2.70
   1   4   5   28.60    3.30
  -2  -4  -5   13.90    2.60
   6  -2  -5   10.40    2.20
  -2  -4  -5   10.40    1.80
  -4   6  -5   15.50    2.70
   6  -2  -5   10.20    1.80
  -4   6  -5   12.50    2.10
   2   4   5    8.50    2.20
  -4   7  -5   14.10    2.30
   7  -3  -5   12.70    2.50
   7  -3  -5   12.40    2.20
  -3  -4  -5   13.30    2.30
  -3  -4  -5   14.70    2.50
  -4   7  -5   13.70    2.00
   7  -3  -5   14.40    2.30
   3   4   5   13.70    2.50
  -4  -4  -5   18.20    2.60
  -4  -4  -5   16.10    2.80
   8  -4  -5   16.30    2.50
   8  -4  -5   16.70    2.30
   8  -4  -5   15.70    2.50
  -4   8  -5   19.50    2.70
  -4   8  -5   12.30    2.30
   4   4   5   19.40    2.70
  -5  -4  -5    4.90    1.60
  -4   9  -5    3.30    1.50
   9  -5  -5    1.50    1.70
  -4   9  -5    4.50    1.90
   9  -5  -5    4.80    1.50
  -5  -4  -5    2.70    2.10
   9  -5  -5    2.40    2.10
   5   4   5    5.00    2.10
   8  -5  -5    7.70    1.60
  -3   8  -5   11.00    2.10
   8  -5  -5    7.20    2.00
  -5  -3  -5    6.80    2.20
   8  -5  -5    8.70    2.20
  -5  -3  -5    8.50    1.70
  -3   8  -5    7.50    1.60
   5   3   5    9.20    2.40
  -5  -2  -5   13.90    2.50
  -2   7  -5   14.70    2.50
   7  -5  -5    6.40    2.00
  -5  -2  -5    9.50    1.60
   7  -5  -5    5.80    1.80
   7  -5  -5    6.90    1.60
  -2   7  -5    6.90    1.80
   5   2   5    8.00    2.30
  -1   6  -5   17.40    2.60
   6  -5  -5   12.30    2.10
  -5  -1  -5   15.50    2.40
  -1   6  -5   10.60    2.00
   6  -5  -5   14.20    2.70
  -5  -1  -5   12.10    2.30
   6  -5  -5   11.00    2.20
   5   1   5   16.00    2.60
   0   5  -5    1.80    1.60
   5  -5  -5   -0.10    1.70
   0   5  -5    2.50    1.60
  -5   0  -5    1.20    1.20
   5  -5  -5   -0.30    1.40
  -5   0  -5   -0.60    1.60
   5  -5  -5   -1.00    1.40
   5   0   5   -0.40    1.80
   4  -5  -5   27.40    3.10
  -5   1  -5   28.10    2.80
  -5   1  -5   28.30    3.00
   1   4  -5   26.80    3.00
   1   4  -5   32.50    3.00
   4  -5  -5   29.30    2.80
   4  -5  -5   26.60    3.10
   5  -1   5   26.20    3.40
   2   3  -5    1.50    1.70
  -5   2  -5    0.70    1.30
  -5   2  -5    2.50    1.50
   3  -5  -5   -0.50    1.40
   2   3  -5    1.00    1.60
   3  -5  -5    0.80    1.60
   3  -5  -5    1.20    1.60
   3   2  -5   24.20    2.70
  -5   3  -5   22.90    2.70
   2  -5  -5   21.10    2.70
  -5   3  -5   23.00    2.90
  -5   3  -5   21.80    2.90
   2  -5  -5   24.10    2.90
   2  -5  -5   26.30    2.90
   3   2  -5   26.40    3.20
   1  -5  -5    3.40    1.70
   1  -5  -5    2.10    1.40
  -5   4  -5    2.20    1.70
   1  -5  -5    2.80    1.90
   4   1  -5    1.40    1.40
  -5   4  -5    1.20    1.70
   4   1  -5    4.10    2.00
   5   0  -5    3.60    2.00
   0  -5  -5   -0.30    1.40
  -5   5  -5   -2.20    1.60
   0  -5  -5    1.10    1.70
  -5   5  -5    0.10    1.60
   5   0  -5   -1.90    1.30
   0   5   5    1.20    1.80
  -1  -5  -5    1.70    1.70
  -1  -5  -5    3.50    1.60
  -5   6  -5    3.50    1.70
   6  -1  -5    1.30    1.50
  -5   6  -5    2.70    1.70
   1   5   5    2.10    2.00
  -5   7  -5    1.20    1.70
   7  -2  -5    0.50    1.40
  -5   7  -5    3.10    1.50
  -2  -5  -5    0.70    1.40
  -2  -5  -5    1.20    1.80
   2   5   5    1.00    2.10
  -5   8  -5    0.10    1.30
  -3  -5  -5    5.60    2.00
  -3  -5  -5    3.30    1.50
  -5   8  -5    0.30    1.60
   8  -3  -5    0.60    1.50
   3   5   5    4.40    2.20
  -4  -5  -5    2.40    1.60
  -5   9  -5    0.30    1.40
  -5   9  -5    1.70    1.70
   9  -4  -5    2.40    1.80
  -4  -5  -5    3.20    2.10
   9  -4  -5    1.20    1.50
   4   5   5    3.90    2.10
  -5  -5  -5    0.40    1.50
  -5  -5  -5    5.30    2.20
  -5  10  -5    0.90    1.70
  10  -5  -5    2.20    1.50
  -5  10  -5    1.60    1.60
  10  -5  -5   -1.60    1.70
   5   5   5   -1.60    2.10
  -5  11  -5    2.10    2.30
  -5  11  -5    2.20    1.80
  11  -6  -5   -0.10    1.90
  -6  -5  -5    5.40    2.30
  11  -6  -5    2.60    1.60
  -6  -5  -5    0.50    1.50
   6   5   5    3.10    2.30
  10  -6  -5    1.10    2.10
  10  -6  -5    2.10    1.50
  -6  -4  -5    2.60    2.20
  -4  10  -5   -0.50    1.50
  -4  10  -5   -0.40    1.70
  10  -6  -5   -1.40    1.60
  -6  -4  -5   -0.60    1.50
   6   4   5   -0.30    2.20
   9  -6  -5    1.10    1.40
  -6  -3  -5    1.80    1.50
   9  -6  -5    3.20    1.80
  -3   9  -5    2.70    1.80
   9  -6  -5    3.10    2.10
  -6  -3  -5    1.80    2.00
  -3   9  -5    4.90    1.50
   6   3   5    0.00    1.90
   8  -6  -5   15.80    3.00
  -2   8  -5   21.00    2.80
  -2   8  -5   19.10    2.70
  -6  -2  -5   16.40    2.50
  -6  -2  -5   16.70    2.80
   8  -6  -5   18.90    2.20
   8  -6  -5   15.40    3.00
   6   2   5   18.80    3.20
  -1   7  -5   -0.80    1.70
  -6  -1  -5    2.00    1.40
  -1   7  -5    2.20    1.60
   7  -6  -5    0.40    1.80
   7  -6  -5    1.30    1.50
   7  -6  -5   -0.30    1.30
  -6  -1  -5    4.00    1.60
   6   1   5    3.00    2.00
   6  -6  -5   16.40    2.90
   0   6  -5   16.20    2.60
   6  -6  -5   26.10    2.90
  -6   0  -5   20.40    2.40
   6  -6  -5   14.20    2.30
  -6   0  -5   19.50    2.50
   0   6  -5   22.40    3.00
   6   0   5   17.40    3.10
   1   5  -5    2.30    1.60
   5  -6  -5    1.50    1.50
   1   5  -5    1.70    1.70
   5  -6  -5    0.40    1.50
   5  -6  -5    0.10    1.80
  -6   1  -5    3.00    1.60
  -6   1  -5    1.20    1.30
   6  -1   5    4.20    1.90
   4  -6  -5   11.50    1.90
  -6   2  -5   10.10    2.00
   4  -6  -5   11.50    1.80
   4  -6  -5   11.60    1.90
  -6   2  -5    8.80    1.70
   2   4  -5   10.30    1.90
   6  -2   5   10.40    2.30
   3  -6  -5    2.50    1.50
  -6   3  -5    0.50    1.50
   3  -6  -5    2.30    1.70
   3   3  -5    2.70    1.50
   3  -6  -5    3.20    1.70
  -6   3  -5    4.50    1.70
   4   2  -5   23.30    2.60
  -6   4  -5   22.40    2.70
   2  -6  -5   28.20    2.90
  -6   4  -5   24.10    3.00
   2  -6  -5   25.40    2.90
  -6   4  -5   19.50    3.10
   2  -6  -5   27.00    2.90
  -4  -2   5   29.20    3.20
   1  -6  -5   13.60    2.50
   1  -6  -5   16.00    2.70
   5   1  -5   12.50    2.40
  -6   5  -5   14.70    2.40
  -6   5  -5   13.50    2.30
  -5  -1   5   17.50    2.90
  -6   6  -5   15.90    2.80
   6   0  -5   18.10    2.40
   0  -6  -5   16.90    2.70
  -6   6  -5   18.10    2.70
   0  -6  -5   22.20    2.70
  -6   0   5   17.30    3.10
   0   6   5   17.00    2.90
  -6   7  -5   18.60    2.70
  -1  -6  -5   19.10    2.70
  -1  -6  -5   15.80    2.80
  -6   7  -5   22.70    2.90
   7  -1  -5   18.60    2.40
   1   6   5   19.20    3.00
  -7   1   5   17.80    3.10
  -2  -6  -5   20.80    3.00
  -2  -6  -5   22.10    2.80
  -6   8  -5   21.20    2.60
  -6   8  -5   19.70    3.10
   8  -2  -5   18.30    2.40
  -8   2   5   17.80    3.20
   2   6   5   21.30    3.10
   9  -3  -5   27.40    2.70
  -3  -6  -5   27.10    3.40
  -3  -6  -5   29.60    3.10
  -6   9  -5   28.10    3.00
  -6   9  -5   27.00    3.20
   3   6   5   24.70    3.40
  -9   3   5   22.90    3.40
  -4  -6  -5   18.20    3.10
  -4  -6  -5   17.50    2.70
  10  -4  -5   19.00    3.10
  -6  10  -5   13.40    2.50
  10  -4  -5   12.20    2.30
  -6  10  -5   19.50    2.70
   4   6   5   17.70    2.80
 -10   4   5   15.50    3.10
  -6  11  -5    2.20    1.80
  -5  -6  -5   -1.80    2.20
  11  -5  -5    2.40    1.70
  -5  -6  -5    3.50    1.70
  -6  11  -5    0.30    2.20
  11  -5  -5    0.70    1.90
 -11   5   5    0.00    1.90
   5   6   5    3.70    2.00
   5   6   5    1.70    2.20
  -6  -6  -5   27.00    3.70
  -6  -6  -5   22.40    2.80
  12  -6  -5   22.80    2.50
 -12   6   5   22.40    3.30
   6   6   5   25.30    3.50
   6   6   5   18.40    3.60
  -6  13  -5    0.10    1.80
  13  -7  -5    0.60    1.90
  -7  -6  -5    0.70    1.50
  13  -7  -5    1.80    1.60
  -7  -6  -5    0.70    2.60
 -13   7   5    2.20    2.10
   7   6   5    1.70    2.10
   7   6   5    5.80    2.60
  -7  -5  -5   33.10    4.00
  12  -7  -5   32.50    2.80
  -7  -5  -5   30.10    3.00
   7   5   5   29.40    3.70
   7   5   5   33.40    3.90
  -7  -4  -5   15.40    2.40
  11  -7  -5   16.00    2.60
  -7  -4  -5   20.80    3.30
  -4  11  -5   20.70    3.60
  11  -7  -5   21.10    3.10
  11  -7  -5   15.10    2.20
  -4  11  -5   17.80    2.80
   7   4   5   21.80    3.10
  -7  -3  -5    7.20    2.20
  -3  10  -5    8.70    2.00
  -3  10  -5    6.50    1.60
  10  -7  -5    7.20    1.60
  10  -7  -5    3.10    2.00
  -7  -3  -5    6.80    1.60
   7   3   5    7.30    2.50
  -7  -2  -5    1.50    1.40
  -2   9  -5    3.30    1.70
   9  -7  -5    2.50    2.10
   9  -7  -5    0.40    1.40
   9  -7  -5    1.10    1.70
  -7  -2  -5    2.10    1.70
  -2   9  -5    0.30    1.80
   7   2   5    2.30    2.00
   8  -7  -5   14.90    2.20
  -1   8  -5   18.70    2.70
  -7  -1  -5   18.40    2.40
  -7  -1  -5   17.90    2.70
   8  -7  -5   17.70    3.00
  -1   8  -5   19.10    2.80
   8  -7  -5   19.00    2.90
   7   1   5   17.60    3.10
   7  -7  -5    0.90    1.90
  -7   0  -5    1.40    1.30
   7  -7  -5    0.60    1.60
   0   7  -5    1.20    1.70
  -7   0  -5    1.30    1.60
   7  -7  -5   -2.00    1.30
   0   7  -5    1.60    1.70
   7   0   5    0.40    2.10
   1   6  -5   18.10    2.60
  -7   1  -5   20.80    2.50
  -7   1  -5   23.40    2.80
   6  -7  -5   21.40    2.40
   6  -7  -5   20.50    2.80
  -1  -6   5   19.20    2.80
   7  -1   5   19.80    3.20
   5  -7  -5    1.90    1.50
   2   5  -5   -1.30    1.40
   5  -7  -5    1.10    1.60
  -7   2  -5    4.60    1.70
   5  -7  -5    0.00    1.40
  -7   2  -5    4.00    1.30
   7  -2   5    4.80    2.00
  -2  -5   5    1.30    1.60
  -7   3  -5   14.50    2.60
   4  -7  -5   16.30    2.60
   3   4  -5   13.60    2.30
   4  -7  -5   13.50    2.60
  -7   3  -5   12.80    2.30
   4  -7  -5   13.50    2.00
  -3  -4   5    9.60    2.00
   7  -3   5   15.90    2.50
  -7   4  -5    2.70    1.40
   3  -7  -5    2.20    1.70
  -7   4  -5    0.60    1.70
   4   3  -5    2.50    1.60
   3  -7  -5    0.60    1.40
   3  -7  -5   -1.00    1.70
  -4  -3   5   -0.50    1.70
  -7   5  -5    6.90    1.80
   2  -7  -5    7.90    1.70
  -7   5  -5    5.90    1.90
   2  -7  -5    8.30    1.90
   5   2  -5    6.30    1.70
  -7   5  -5    7.30    1.60
   2  -7  -5    7.00    1.80
  -5  -2   5    5.20    2.10
   1  -7  -5    3.00    1.60
  -7   6  -5    0.00    1.60
   6   1  -5    1.10    1.50
   1  -7  -5   -1.10    1.60
  -7   6  -5    1.00    1.50
  -1   7   5    1.00    1.80
  -6  -1   5   -1.90    2.00
   0  -7  -5   -0.10    1.70
  -7   7  -5   -2.60    1.70
   7   0  -5   -0.30    1.50
  -7   7  -5    0.30    1.50
   0  -7  -5    1.00    1.60
  -7   0   5   -1.20    1.80
   0   7   5    0.70    1.90
  -1  -7  -5    4.80    1.80
  -7   8  -5    7.60    2.00
   8  -1  -5    5.10    1.60
  -7   8  -5    6.90    1.70
  -1  -7  -5    5.00    2.00
  -8   1   5    4.40    2.10
   1   7   5    7.50    2.20
  -7   9  -5    9.60    1.90
  -2  -7  -5    9.50    2.20
  -2  -7  -5    7.60    1.80
  -7   9  -5    9.20    2.10
   9  -2  -5    8.30    1.80
   2   7   5    9.10    2.20
  -9   2   5    9.60    2.20
  -3  -7  -5    3.90    2.30
  -3  -7  -5    6.50    1.90
  -7  10  -5    4.80    1.90
  -7  10  -5    5.20    1.90
  10  -3  -5    3.50    1.80
   3   7   5    4.70    2.00
 -10   3   5    6.30    2.00
   3   7   5    2.90    2.30
  -7  11  -5    4.60    1.80
  -4  -7  -5    4.50    2.50
  11  -4  -5    6.60    1.80
  -4  -7  -5    3.70    1.80
   4   7   5    4.30    2.10
 -11   4   5    4.50    2.10
   4   7   5    4.20    2.30
  -5  -7  -5    6.10    1.70
  12  -5  -5    5.00    1.80
  -5  -7  -5    6.80    2.70
 -12   5   5    4.90    2.00
   5   7   5    4.40    2.20
   5   7   5    6.10    2.50
  -7  13  -5    1.70    1.80
  -6  -7  -5    5.00    2.70
  -6  -7  -5    1.80    1.60
  13  -6  -5    1.40    2.10
  13  -6  -5    2.80    1.70
 -13   6   5    3.70    2.10
   6   7   5    3.50    2.70
   6   7   5    1.20    2.20
  14  -7  -5    0.60    2.20
  -7  -7  -5    3.40    1.60
  -7  14  -5    2.60    2.10
  -7  -7  -5    8.20    2.80
  14  -7  -5    2.70    1.70
 -14   7   5    1.10    2.10
   7   7   5    6.00    2.60
   7   7   5    2.40    2.20
  15  -8  -5    2.50    2.00
  -7  15  -5   -2.50    1.80
  15  -8  -5    2.20    1.70
  -8  -7  -5    3.00    1.70
   8   7   5    4.90    2.60
   8   7   5    1.20    2.20
 -15   8   5    0.30    2.20
  14  -8  -5   -0.10    2.00
  14  -8  -5   -0.50    1.60
  -8  -6  -5    1.20    1.60
  -8  -6  -5    1.30    2.80
  -6  14  -5    2.90    1.90
   8   6   5    3.50    2.70
   8   6   5    1.70    2.20
  -5  13  -5   27.60    3.20
  -8  -5  -5   30.20    4.10
  -8  -5  -5   29.30    2.80
  13  -8  -5   25.20    3.70
   8   5   5   31.00    4.10
   8   5   5   28.40    3.60
  -8  -4  -5    2.10    2.30
  -8  -4  -5    3.60    1.40
  12  -8  -5    2.90    2.70
   8   4   5    5.00    2.40
  -3  11  -5   35.70    3.40
  11  -8  -5   40.80    3.70
  11  -8  -5   32.30    2.80
  -8  -3  -5   38.40    3.80
  -8  -3  -5   31.80    3.00
   8   3   5   37.40    4.00
  -2  10  -5    4.80    1.80
  -8  -2  -5    3.40    1.40
  10  -8  -5    4.40    1.40
  -8  -2  -5    5.70    2.00
  10  -8  -5    1.40    1.80
   8   2   5    4.20    2.20
  -8  -1  -5    0.60    1.70
  -8  -1  -5    4.00    1.40
   9  -8  -5    2.00    1.30
   9  -8  -5   -0.60    1.70
  -1   9  -5    3.20    1.70
   8   1   5    2.50    2.10
   8  -8  -5    0.60    1.40
  -8   0  -5    2.90    1.30
   0   8  -5    3.80    1.80
  -8   0  -5    4.60    1.70
   8  -8  -5    3.40    1.70
   8   0   5    6.50    2.30
   0  -8   5    7.90    1.90
   7  -8  -5    3.50    1.50
   7  -8  -5    4.90    1.60
  -8   1  -5    5.20    1.40
  -8   1  -5    6.90    1.90
   7  -8  -5    4.70    1.70
   1   7  -5    5.40    1.80
  -1  -7   5    5.70    1.80
   8  -1   5    5.60    2.20
  -8   2  -5   22.60    2.40
   6  -8  -5   16.70    2.40
   6  -8  -5   18.40    2.70
   2   6  -5   20.20    2.60
  -8   2  -5   22.20    2.90
   6  -8  -5   22.20    2.90
   8  -2   5   18.10    3.20
  -2  -6   5   16.40    2.80
   5  -8  -5    3.80    2.60
  -8   3  -5    4.90    1.80
   5  -8  -5    2.80    1.60
   3   5  -5    2.40    1.60
  -8   3  -5    4.30    1.30
   5  -8  -5    3.40    1.50
  -3  -5   5    0.40    1.70
   8  -3   5    3.80    1.90
   4   4  -5   14.00    2.50
  -8   4  -5   16.50    2.70
  -8   4  -5   15.10    2.30
   4  -8  -5   14.70    2.60
   4  -8  -5   16.10    2.50
   4  -8  -5   16.10    2.40
  -4  -4   5   16.40    2.30
   8  -4   5   17.00    2.70
   5   3  -5   10.50    1.90
   3  -8  -5    8.80    1.90
   3  -8  -5    9.50    1.80
   3  -8  -5   10.30    1.90
  -8   5  -5    8.60    1.90
  -8   5  -5    9.40    1.70
  -5  -3   5    7.90    2.00
  -8   6  -5   16.50    2.40
  -8   6  -5   19.40    2.80
   2  -8  -5   16.80    2.70
   2  -8  -5   17.70    2.70
  -8   6  -5   15.90    2.50
   6   2  -5   19.90    2.50
  -6  -2   5   15.80    3.10
   1  -8  -5   16.30    2.80
  -8   7  -5   21.10    3.00
  -8   7  -5   21.90    2.70
   1  -8  -5   20.40    2.80
   7   1  -5   20.00    2.60
  -1   8   5   15.10    2.90
  -7  -1   5   21.00    3.20
   0  -8  -5    1.20    1.90
   8   0  -5    4.90    1.70
   0  -8  -5    3.70    1.70
  -8   8  -5    2.00    1.70
  -8   8  -5    3.90    1.70
   0   8   5    5.10    2.20
  -8   0   5    4.40    2.20
  -8   9  -5    2.90    1.60
  -1  -8  -5    1.30    1.60
  -8   9  -5    2.20    1.80
  -1  -8  -5   -1.00    2.00
   9  -1  -5    1.40    1.60
   1   8   5    2.70    2.00
   1   8   5    0.50    2.00
  -9   1   5    3.50    2.10
  -2  -8  -5    1.50    1.70
  10  -2  -5    2.00    1.80
  -8  10  -5   -0.80    1.90
  -8  10  -5   -0.10    1.80
  -2  -8  -5    0.40    2.20
   2   8   5    0.10    2.00
 -10   2   5   -0.70    2.00
   2   8   5   -1.30    2.10
  -3  -8  -5    0.50    2.30
  11  -3  -5    1.50    1.80
  -8  11  -5   -0.70    1.90
  -3  -8  -5    0.90    1.80
   3   8   5   -0.80    2.10
   3   8   5    0.60    2.10
 -11   3   5    0.00    2.00
  -4  -8  -5   19.90    3.10
  -4  -8  -5   20.40    2.90
  12  -4  -5   18.30    2.60
   4   8   5   19.80    2.90
 -12   4   5   17.10    3.30
   4   8   5   22.20    3.60
  13  -5  -5    8.20    1.90
  -5  -8  -5    6.60    1.90
  13  -5  -5    4.80    2.30
  -8  13  -5    8.60    2.10
  -5  -8  -5   10.90    2.80
   5   8   5    8.40    2.50
   5   8   5    9.60    2.80
 -13   5   5    7.40    2.20
  -8  14  -5   18.10    2.90
  14  -6  -5   14.30    2.50
  -6  -8  -5   16.30    2.80
  14  -6  -5   16.10    2.90
  -6  -8  -5   23.60    3.90
 -14   6   5   18.20    3.40
   6   8   5   15.90    2.70
   6   8   5   26.10    3.80
  -7  -8  -5    0.40    3.10
  -7  -8  -5    0.00    1.70
  15  -7  -5    1.50    1.70
  -8  15  -5    2.10    2.00
  15  -7  -5    1.20    2.00
   7   8   5    2.70    2.40
   7   8   5    4.80    2.80
 -15   7   5   -1.30    2.20
  -8  16  -5   -1.70    1.90
  16  -8  -5   -0.30    2.10
  16  -8  -5   -0.10    1.80
   8   8   5    3.50    4.10
   8   8   5   -1.20    2.30
 -16   8   5   -1.00    2.20
  17  -9  -5   -1.70    2.10
  17  -9  -5   -1.20    1.90
  -8  17  -5    0.80    2.10
   9   8   5   -1.10    2.70
   9   8   5    1.50    2.50
  -7  16  -5    7.60    2.20
   9   7   5    5.60    2.50
   9   7   5   10.60    3.20
  15  -9  -5    0.00    2.10
  -6  15  -5    2.20    2.00
   9   6   5    1.20    2.30
   9   6   5    6.70    4.50
  14  -9  -5    8.10    2.20
  -9  -5  -5    7.80    1.70
  -5  14  -5   10.00    2.20
   9   5   5    9.50    2.20
   9   5   5   12.60    3.10
  -9  -4  -5    3.20    1.40
  -9  -4  -5    8.00    2.70
  -4  13  -5    5.10    1.80
  13  -9  -5    4.70    2.00
   9   4   5    7.20    2.50
  12  -9  -5    7.80    2.20
  -9  -3  -5   12.50    2.10
  -3  12  -5   12.60    2.40
  -9  -3  -5   13.10    2.60
   9   3   5   13.90    2.90
  11  -9  -5   24.00    4.40
  -9  -2  -5   23.50    3.10
  -2  11  -5   25.00    3.10
  -9  -2  -5   16.40    2.30
   9   2   5   20.40    3.50
  10  -9  -5    0.90    1.60
  -1  10  -5    2.80    1.70
  -9  -1  -5    4.80    2.00
  -9  -1  -5    1.10    1.20
   9   1   5    0.90    2.10
   1 -10   5    3.50    1.70
   0   9  -5   15.40    2.60
  -9   0  -5   15.30    2.70
  -9   0  -5   14.30    2.10
   9  -9  -5   15.20    2.70
   0  -9   5   13.70    2.70
   9   0   5   18.30    2.70
   8  -9  -5    0.20    1.30
   1   8  -5    0.60    1.60
   8  -9  -5    3.10    1.60
  -9   1  -5    2.10    1.70
  -9   1  -5    2.70    1.20
   9  -1   5    3.40    2.10
  -1  -8   5    2.00    1.80
  -9   2  -5    8.50    1.40
   7  -9  -5    6.90    1.80
   2   7  -5    8.00    1.90
  -9   2  -5   10.00    2.20
   9  -2   5   12.10    2.50
  -2  -7   5    5.80    1.90
   6  -9  -5   28.90    3.20
   6  -9  -5   26.90    2.80
   6  -9  -5   29.20    2.70
   3   6  -5   27.30    3.00
  -9   3  -5   30.00    3.20
  -9   3  -5   30.40    2.60
  -3  -6   5   25.80    3.10
   9  -3   5   29.40    3.60
  -9   4  -5    3.40    1.20
   5  -9  -5    2.40    1.60
  -9   4  -5    3.40    1.70
   4   5  -5    1.00    1.60
   5  -9  -5    2.50    1.60
   5  -9  -5    2.80    1.50
   9  -4   5    4.80    2.10
  -4  -5   5    2.60    1.80
  -9   5  -5    2.90    1.40
   4  -9  -5    3.00    2.10
   5   4  -5    5.30    1.80
  -9   5  -5    3.90    1.60
   4  -9  -5    5.70    1.70
   4  -9  -5    5.20    1.80
   9  -5   5    0.60    2.00
  -5  -4   5    4.90    1.90
  -9   6  -5    1.10    1.40
  -9   6  -5    0.60    1.60
   3  -9  -5    0.80    1.70
   3  -9  -5    0.50    1.60
   6   3  -5    0.60    1.60
  -6  -3   5    2.40    2.00
   7   2  -5    2.50    1.70
  -9   7  -5   -0.10    1.70
   2  -9  -5    2.60    1.80
   2  -9  -5    1.50    1.60
  -9   7  -5    2.30    1.80
  -7  -2   5   -0.70    2.00
  -2   9   5    3.30    2.00
  -9   8  -5    0.40    1.70
   1  -9  -5    2.50    2.00
  -9   8  -5    1.90    1.70
   1  -9  -5    2.60    1.70
   8   1  -5    2.60    1.70
  -1   9   5    1.60    1.90
  -8  -1   5   -0.40    1.90
  -1   9   5    3.00    2.00
  -9   9  -5   15.00    2.40
   0  -9  -5   15.60    2.80
  -9   9  -5   11.80    2.40
   9   0  -5   18.40    2.60
   0  -9  -5   15.80    3.00
   0   9   5   19.90    3.10
   0   9   5   16.40    3.30
  -9   0   5   16.50    2.60
  -9  10  -5   16.40    2.80
  -1  -9  -5   14.90    2.80
  -1  -9  -5   15.20    2.50
  -9  10  -5   14.30    3.60
  10  -1  -5   12.50    2.20
 -10   1   5   13.30    2.60
   1   9   5    8.10    2.40
   1   9   5   13.20    2.50
  11  -2  -5    7.40    2.00
  -2  -9  -5    8.40    2.50
  -2  -9  -5    7.00    2.00
  -9  11  -5    5.20    2.80
   2   9   5    7.90    2.40
 -11   2   5    5.40    2.30
   2   9   5    3.80    2.40
  12  -3  -5    2.80    1.90
  -9  12  -5    0.40    1.80
  -3  -9  -5    7.50    2.50
  -3  -9  -5    2.50    1.90
 -12   3   5    3.20    2.20
   3   9   5    4.20    2.40
   3   9   5    1.10    2.20
  -4  -9  -5    2.80    2.60
  13  -4  -5    1.90    1.80
  -4  -9  -5    0.10    1.80
  -9  13  -5   -0.80    1.70
   4   9   5   -0.20    2.30
   4   9   5    5.10    2.70
 -13   4   5    2.30    2.20
  -9  14  -5    5.40    1.90
  14  -5  -5    2.80    2.20
  -5  -9  -5    5.60    1.90
  -5  -9  -5    5.90    2.90
  14  -5  -5    3.00    1.90
   5   9   5    5.30    2.50
   5   9   5    5.40    2.70
 -14   5   5    4.60    2.40
  -6  -9  -5    1.90    1.90
  15  -6  -5    1.10    1.80
  15  -6  -5    2.70    2.10
  -6  -9  -5    4.00    2.90
  -9  15  -5    0.90    1.80
 -15   6   5    1.80    2.40
   6   9   5    1.40    2.40
   6   9   5    5.10    2.70
  -7  -9  -5    1.10    1.90
  -9  16  -5    1.50    2.20
  16  -7  -5   -1.50    2.10
  16  -7  -5    1.70    1.90
  -7  -9  -5   -2.40    4.00
   7   9   5   -0.30    2.50
 -16   7   5    1.60    2.50
   7   9   5    2.50    2.80
  17  -8  -5    3.00    2.10
  17  -8  -5    7.70    2.50
  -9  17  -5    6.50    2.30
 -17   8   5    6.70    2.70
   8   9   5    5.40    2.90
   8   9   5    5.00    2.90
  18  -9  -5    8.50    2.40
  18  -9  -5    9.20    2.70
  -9  18  -5    7.80    2.50
 -18   9   5    6.90    2.80
   9   9   5   10.40    3.20
   9   9   5    7.90    2.90
  19 -10  -5    2.50    2.20
  19 -10  -5    1.20    2.70
  -9  19  -5   -0.90    2.10
  10   9   5    5.10    3.10
  10   9   5    3.30    3.10
  18 -10  -5    3.30    2.50
  -8  18  -5   -1.30    2.00
  10   8   5   -0.60    2.90
  10   8   5   -0.40    2.90
  -7  17  -5    2.10    1.90
  17 -10  -5    3.60    2.10
  10   7   5    2.60    2.60
  10   7   5    4.70    2.70
  16 -10  -5    3.50    2.20
  -6  16  -5    2.90    1.80
  10   6   5    9.50    2.90
  10   6   5    0.70    2.40
  15 -10  -5    9.10    2.40
  -5  15  -5    7.10    2.10
  10   5   5    9.00    2.40
  10   5   5   11.10    2.80
  14 -10  -5    0.10    1.90
  -4  14  -5   -1.50    1.70
 -10  -3  -5    9.90    2.00
  13 -10  -5   11.10    2.40
  -3  13  -5   11.90    2.20
  10   3   5   18.80    3.10
  -2  12  -5    4.00    1.80
  12 -10  -5    5.60    1.90
 -10  -2  -5    4.70    1.30
 -10  -2  -5    3.30    2.50
  10   2   5    4.20    2.50
 -10  -1  -5   15.50    2.00
  11 -10  -5   14.70    3.00
 -10  -1  -5   21.10    2.90
  10   1   5   21.70    3.50
 -10   0  -5    1.90    1.10
  10 -10  -5    4.00    1.80
   0  10  -5    4.40    1.80
 -10   0  -5    3.20    2.00
  10   0   5    2.60    2.10
   0 -10   5    4.30    2.20
   9 -10  -5   16.90    2.70
 -10   1  -5   10.50    2.50
   1   9  -5   12.80    2.20
  10  -1   5   14.90    2.60
  -1  -9   5    9.80    2.30
 -10   2  -5   -0.50    1.80
   2   8  -5    0.80    1.60
   8 -10  -5    2.20    1.50
  10  -2   5    3.80    2.10
  -2  -8   5   -0.50    1.90
 -10   3  -5    9.30    2.10
   3   7  -5    5.40    1.80
   7 -10  -5    2.30    1.70
  -3  -7   5    2.90    1.70
  10  -3   5    5.80    2.30
 -10   4  -5   19.80    2.70
   6 -10  -5   17.60    2.70
   4   6  -5   17.80    2.60
  -4  -6   5   14.40    2.40
  10  -4   5   21.40    3.00
   5   5  -5    1.10    1.60
 -10   5  -5    0.50    1.70
   5 -10  -5    2.20    1.60
   5 -10  -5    1.90    1.60
  10  -5   5    0.90    2.10
  -5  -5   5   -1.60    1.90
 -10   6  -5    0.90    1.60
   6   4  -5    1.40    1.80
   4 -10  -5    0.90    1.70
   4 -10  -5    2.10    1.50
  10  -6   5    2.10    2.20
  -6  -4   5   -0.50    2.00
 -10   7  -5    5.20    1.80
   7   3  -5    8.60    1.90
   3 -10  -5    6.90    1.80
   3 -10  -5    6.90    2.00
  -3  10   5    7.20    2.10
  -7  -3   5    7.90    2.20
   2 -10  -5    5.50    2.10
 -10   8  -5    4.60    1.80
   2 -10  -5    1.70    1.70
   8   2  -5    5.80    1.90
 -10   8  -5    7.20    1.90
  -2  10   5    4.30    2.00
  -2  10   5    3.40    2.00
  -8  -2   5    6.80    2.30
 -10   9  -5    5.70    3.10
   1 -10  -5    2.40    2.20
 -10   9  -5    0.50    1.80
   1 -10  -5    2.20    1.80
   9   1  -5    0.20    1.80
  -1  10   5    3.60    2.10
  -1  10   5    3.60    2.10
  -9  -1   5    2.90    2.20
   0 -10  -5    5.00    2.20
 -10  10  -5    5.10    2.20
   0 -10  -5    3.30    1.90
  10   0  -5    3.10    1.90
   0  10   5    1.90    2.00
 -10   0   5    5.50    2.30
   0  10   5    3.10    2.20
  11  -1  -5    4.30    2.00
  -1 -10  -5    6.50    2.10
  -1 -10  -5   10.00    2.60
 -10  11  -5    4.40    3.20
   1  10   5    9.40    2.50
   1  10   5    6.70    2.50
 -11   1   5    5.00    2.40
 -10  12  -5   14.10    2.40
  12  -2  -5   11.00    2.20
  -2 -10  -5   11.60    2.60
  -2 -10  -5   12.00    2.20
   2  10   5    6.80    2.50
   2  10   5   12.40    2.60
 -12   2   5   11.30    2.50
  -3 -10  -5    7.20    2.10
  -3 -10  -5    7.40    2.80
  13  -3  -5    8.50    2.10
 -10  13  -5    9.70    2.20
   3  10   5    8.10    2.60
   3  10   5    6.90    2.50
 -13   3   5    6.40    2.40
  -4 -10  -5   10.80    3.00
  -4 -10  -5   10.50    2.10
  14  -4  -5   10.30    2.10
 -10  14  -5   10.10    2.10
   4  10   5   17.00    2.90
   4  10   5    9.50    2.70
 -14   4   5   15.50    2.70
  -5 -10  -5   -0.20    3.00
  15  -5  -5    0.20    1.90
 -10  15  -5    3.20    1.90
  -5 -10  -5    0.20    1.80
 -15   5   5    1.00    2.40
   5  10   5   -1.80    2.50
   5  10   5    3.30    2.60
  -6 -10  -5    4.70    2.10
  16  -6  -5    4.00    2.00
  -6 -10  -5    5.40    3.20
 -10  16  -5    1.10    1.90
  16  -6  -5    5.60    2.30
 -16   6   5    5.10    2.70
   6  10   5    2.10    2.80
   6  10   5    4.30    2.80
  17  -7  -5    3.90    2.40
 -10  17  -5    3.60    2.30
  17  -7  -5    3.40    2.20
   7  10   5    3.70    4.70
   7  10   5    1.10    2.70
 -17   7   5    5.00    2.80
  18  -8  -5    0.10    2.60
 -10  18  -5   -0.80    2.10
  18  -8  -5   -0.40    2.30
   8  10   5    0.10    2.90
   8  10   5    4.30    3.10
 -18   8   5    2.70    2.80
 -10  19  -5    3.80    2.30
  19  -9  -5    1.00    2.60
  19  -9  -5    4.20    2.40
 -19   9   5    2.50    2.90
   9  10   5    0.40    3.00
   9  10   5    2.60    3.20
 -10  20  -5   -0.60    2.20
  20 -10  -5    1.10    3.00
  20 -10  -5    4.40    2.40
  10  10   5    4.40    3.50
  10  10   5    7.30    3.40
  21 -11  -5    5.40    2.60
 -10  21  -5    2.10    2.40
  21 -11  -5   -2.80    2.80
  11  10   5    2.00    3.60
  11  10   5    3.10    3.80
  20 -11  -5   16.50    3.40
  20 -11  -5   15.80    3.10
  -9  20  -5   19.40    2.80
  11   9   5   17.00    3.70
  11   9   5   15.90    3.50
  -8  19  -5    0.40    2.00
  19 -11  -5    0.70    2.60
  11   8   5   -0.10    2.90
  11   8   5    2.90    3.30
  18 -11  -5   15.40    2.90
  -7  18  -5   11.90    2.40
  11   7   5    8.10    2.70
  11   7   5   12.90    3.20
  17 -11  -5    1.50    2.30
  -6  17  -5    1.20    2.00
  11   6   5    4.50    2.50
  11   6   5    2.00    2.90
  16 -11  -5   -1.00    2.20
  -5  16  -5   -1.90    1.70
  11   5   5   -2.70    2.30
  11   5   5    2.00    2.70
  15 -11  -5   -1.70    1.90
  -4  15  -5    3.00    1.90
  11   4   5    5.20    2.70
  11   4   5    3.10    2.20
  14 -11  -5   11.20    2.30
  -3  14  -5    9.40    2.20
  11   3   5   15.60    3.10
  13 -11  -5   -0.70    1.60
  -2  13  -5   -0.10    1.80
  11   2   5    0.80    2.90
  -1  12  -5   12.30    2.20
  12 -11  -5    9.10    2.10
   0  11  -5   10.10    2.10
  11 -11  -5    8.10    2.00
  11   0   5    9.70    2.70
   1  10  -5    7.40    2.30
  11  -1   5    9.30    2.50
   2   9  -5    4.40    1.80
   9 -11  -5    3.50    1.90
 -11   2  -5    4.10    2.50
  -2  -9   5    6.80    2.10
  11  -2   5    7.60    2.20
   8 -11  -5   -0.40    1.40
 -11   3  -5    0.20    1.90
   3   8  -5    1.20    1.60
  -3  -8   5    0.50    1.90
  11  -3   5    3.10    2.20
 -11   4  -5    8.10    2.00
   7 -11  -5    3.00    1.70
   4   7  -5    3.70    1.80
  -4  -7   5    4.60    1.80
  11  -4   5    6.10    2.50
   6 -11  -5    2.70    1.70
 -11   5  -5    1.00    1.60
   5   6  -5    3.90    1.80
  -5  -6   5    3.10    1.80
  11  -5   5    6.50    2.10
   5 -11  -5    4.80    1.70
 -11   6  -5    5.20    1.90
   6   5  -5    2.80    1.80
  11  -6   5    2.60    2.20
  -6  -5   5    4.60    2.00
 -11   7  -5   19.60    3.70
   4 -11  -5   14.30    2.90
   7   4  -5   18.60    2.80
  -7  -4   5   17.10    2.70
  -4  11   5   17.10    3.00
  11  -7   5   24.50    3.50
 -11   8  -5   29.20    3.60
   3 -11  -5   35.90    3.50
   3 -11  -5   35.40    3.40
   8   3  -5   41.40    3.40
  -8  -3   5   31.10    4.00
  -3  11   5   31.70    3.60
  -3  11   5   37.60    3.50
   9   2  -5   23.20    3.00
   2 -11  -5   23.90    3.10
   2 -11  -5   22.90    3.20
 -11   9  -5   21.20    3.70
  -2  11   5   22.70    3.20
  -2  11   5   25.70    3.50
  -9  -2   5   23.50    3.70
  10   1  -5   19.50    2.80
 -11  10  -5   16.30    4.00
   1 -11  -5   21.80    3.10
   1 -11  -5   17.80    3.10
  -1  11   5   19.30    3.10
 -10  -1   5   18.60    3.60
  -1  11   5   18.60    3.70
   0 -11  -5    9.40    2.30
   0 -11  -5    8.60    2.50
 -11  11  -5   10.00    2.10
  11   0  -5    9.70    2.20
 -11   0   5   10.30    2.60
   0  11   5    5.00    2.50
   0  11   5    9.10    2.50
  -1 -11  -5    0.70    2.40
  -1 -11  -5    3.20    1.90
  12  -1  -5    3.10    2.00
 -11  12  -5    3.50    1.90
 -12   1   5    5.10    2.50
   1  11   5    1.60    2.30
   1  11   5   -0.10    2.40
  -2 -11  -5   -2.70    2.50
  13  -2  -5    2.10    2.00
  -2 -11  -5    2.80    1.90
 -11  13  -5    1.50    1.90
   2  11   5    1.20    2.50
   2  11   5    1.50    2.50
 -13   2   5    1.50    2.40
  14  -3  -5    1.20    1.90
  -3 -11  -5    1.40    2.70
  -3 -11  -5    3.00    2.00
 -11  14  -5    5.40    2.00
 -14   3   5    2.40    2.50
   3  11   5    2.70    2.50
   3  11   5    6.40    2.50
  -4 -11  -5    1.80    3.10
  -4 -11  -5   -0.10    1.90
 -11  15  -5   -0.90    1.70
  15  -4  -5    1.60    2.10
 -15   4   5    0.30    2.60
   4  11   5    1.00    2.70
   4  11   5    6.80    2.90
  -5 -11  -5    8.60    3.60
  -5 -11  -5    7.00    2.20
 -11  16  -5    9.20    2.20
  16  -5  -5    5.70    2.20
   5  11   5    9.30    3.00
   5  11   5    5.10    2.80
 -16   5   5    3.70    2.90
  17  -6  -5    2.10    2.40
  17  -6  -5    1.20    2.30
 -11  17  -5    0.00    2.10
  -6 -11  -5   -3.20    2.00
 -17   6   5   -2.30    2.80
   6  11   5    2.60    3.10
   6  11   5    1.50    2.80
 -11  18  -5    0.70    2.30
  18  -7  -5   -0.10    2.30
  18  -7  -5   -0.90    2.60
 -18   7   5   -3.90    3.00
   7  11   5   -1.70    3.30
   7  11   5    0.40    3.00
 -11  19  -5    2.70    2.30
  19  -8  -5    9.00    2.60
  19  -8  -5    6.10    2.90
   8  11   5    7.00    3.50
 -19   8   5    3.90    3.30
   8  11   5    5.70    3.10
 -11  20  -5    3.20    2.60
  20  -9  -5    4.50    2.70
  20  -9  -5    2.80    3.00
   9  11   5    5.80    3.20
   9  11   5    4.20    3.80
 -11  21  -5   -3.00    2.40
  21 -10  -5   -3.70    3.20
  21 -10  -5   -1.10    2.50
  10  11   5    0.30    3.50
  22 -11  -5   -2.60    3.20
 -11  22  -5    1.20    2.50
  11  11   5    4.70    3.70
 -11  23  -5   20.70    3.80
  23 -12  -5   21.50    4.30
  12  11   5   27.50    4.90
  22 -12  -5    5.70    3.50
 -10  22  -5    4.20    2.80
  12  10   5    9.90    3.80
  21 -12  -5   -3.20    3.00
  -9  21  -5    1.70    2.60
  12   9   5    4.50    3.30
  12   9   5    2.60    3.90
  20 -12  -5    0.00    2.90
  -8  20  -5    5.70    2.60
  12   8   5    4.40    3.20
  12   8   5    3.90    3.20
  -7  19  -5    2.20    2.20
  19 -12  -5   -2.50    2.50
  12   7   5    0.40    2.90
  12   7   5    4.70    3.20
  -6  18  -5   -0.20    2.20
  18 -12  -5    1.40    2.40
  12   6   5    5.80    2.70
  12   6   5    1.70    2.90
  17 -12  -5   -0.10    2.20
  -5  17  -5   -0.20    2.10
  12   5   5    7.00    3.20
  12   5   5    0.80    2.40
  16 -12  -5   -0.20    1.90
  -4  16  -5    3.00    2.10
  12   4   5   -0.60    2.60
  12   4   5    2.60    2.30
  -3  15  -5    0.40    1.90
  15 -12  -5    0.00    1.90
  12   3   5    2.70    2.80
  -2  14  -5    0.70    1.70
  14 -12  -5    1.30    2.00
  12   2   5    0.40    2.40
  13 -12  -5    1.10    1.80
  -1  13  -5    3.00    1.90
  12   1   5    3.50    2.40
  12 -12  -5    0.20    1.70
   0  12  -5    3.90    1.90
  12   0   5    1.90    2.40
  11 -12  -5    1.50    1.80
   1  11  -5   -1.00    1.70
  12  -1   5   -0.10    2.30
   2  10  -5   12.20    2.50
  10 -12  -5    8.90    2.00
  12  -2   5   10.20    3.10
   3   9  -5    4.60    2.20
   9 -12  -5    3.40    2.00
   4   8  -5   23.20    2.90
  -4  -8   5   19.10    3.00
   7 -12  -5    4.50    1.70
   5   7  -5    6.20    1.90
  -5  -7   5    5.30    2.10
   6 -12  -5   22.60    3.00
   6   6  -5   22.30    2.90
  -6  -6   5   23.50    3.20
   5 -12  -5   31.60    3.40
   7   5  -5   39.50    3.40
  -5  12   5   35.80    3.70
  -7  -5   5   27.70    3.70
   8   4  -5    9.30    2.10
   4 -12  -5    6.10    2.00
  12  -8   5    6.10    3.80
  -4  12   5    6.70    1.90
  -8  -4   5    4.90    2.20
   3 -12  -5   10.20    2.20
 -12   9  -5    8.60    2.30
   9   3  -5   11.40    2.30
   3 -12  -5   12.20    2.30
  -3  12   5   12.80    2.40
  -3  12   5   10.60    2.30
  -9  -3   5   11.50    2.60
   2 -12  -5    3.70    1.90
 -12  10  -5    1.90    1.80
   2 -12  -5    1.30    2.30
  10   2  -5    4.90    2.10
 -10  -2   5    3.00    2.50
  -2  12   5    4.40    2.10
  -2  12   5    1.80    2.50
   1 -12  -5   10.20    2.30
   1 -12  -5    8.80    2.50
 -12  11  -5   10.80    2.20
  11   1  -5   12.90    2.30
 -11  -1   5    8.30    2.80
  -1  12   5    8.50    2.70
  -1  12   5    6.20    2.40
   0 -12  -5    1.10    1.90
   0 -12  -5   -0.20    2.50
 -12  12  -5    1.10    1.90
  12   0  -5    2.70    2.10
   0  12   5    3.00    2.40
 -12   0   5   -1.40    2.50
   0  12   5    3.70    2.50
  -1 -12  -5    5.40    2.90
  -1 -12  -5    3.60    2.00
 -12  13  -5    6.20    2.00
  13  -1  -5    3.80    2.10
   1  12   5    7.40    2.50
 -13   1   5    2.80    2.70
   1  12   5    2.00    2.70
  14  -2  -5   -1.60    2.00
 -12  14  -5    5.60    2.10
  -2 -12  -5    2.80    2.00
  -2 -12  -5    2.70    3.20
 -14   2   5    2.10    2.70
   2  12   5    7.70    2.80
   2  12   5    3.00    2.50
  -3 -12  -5    1.70    2.00
  15  -3  -5    1.30    2.10
  -3 -12  -5    2.50    3.20
 -12  15  -5    2.00    1.90
   3  12   5   -2.30    2.90
 -15   3   5   -0.40    2.70
   3  12   5    5.90    2.90
  -4 -12  -5    3.30    3.50
  -4 -12  -5    0.80    2.20
  16  -4  -5    3.40    2.20
 -12  16  -5   -0.30    1.90
 -16   4   5   -1.30    2.80
   4  12   5    4.70    2.80
   4  12   5    1.10    2.90
  17  -5  -5    0.90    2.30
  -5 -12  -5   -0.60    2.30
  -5 -12  -5    3.90    3.50
 -12  17  -5    3.80    2.10
 -17   5   5   -0.80    3.00
   5  12   5    3.20    2.90
   5  12   5    0.40    3.80
  18  -6  -5   -0.50    2.40
 -12  18  -5   -1.50    2.10
  18  -6  -5    2.70    2.70
 -18   6   5    1.90    3.20
 -12  19  -5   11.40    3.20
  19  -7  -5    9.90    2.90
  19  -7  -5    9.30    3.00
 -12  19  -5    7.70    2.70
 -19   7   5    9.60    3.60
   7  12   5    9.50    3.30
  20  -8  -5    4.40    3.00
  20  -8  -5    8.40    2.90
 -12  20  -5    1.90    2.40
 -12  20  -5    1.90    3.50
   8  12   5    2.00    3.50
 -20   8   5    2.80    4.10
  21  -9  -5   11.60    3.60
 -12  21  -5    1.80    4.60
  21  -9  -5    4.20    3.00
 -12  21  -5    7.90    2.80
   9  12   5   16.90    3.80
 -12  22  -5    5.00    2.90
  22 -10  -5    8.30    3.10
  22 -10  -5    5.50    3.70
  10  12   5   14.30    4.10
  23 -11  -5    2.30    3.60
 -12  23  -5   -2.00    2.90
  11  12   5   11.70    4.30
 -10  23  -5   10.70    3.20
  23 -13  -5    7.40    3.80
  13  10   5   12.60    4.20
  22 -13  -5    6.10    3.40
  -9  22  -5    7.80    2.80
  13   9   5   14.80    4.00
  -8  21  -5    1.80    2.50
  21 -13  -5    5.00    3.10
  13   8   5    2.90    3.20
  20 -13  -5   10.60    3.00
  -7  20  -5   12.80    2.60
  13   7   5   11.30    3.80
  13   7   5    7.00    3.70
  19 -13  -5    0.20    2.30
  -6  19  -5   -0.90    2.20
  13   6   5    2.60    2.90
  13   6   5    5.60    3.10
  -5  18  -5    5.10    2.30
  18 -13  -5    3.80    2.40
  13   5   5    0.80    2.60
  13   5   5   10.30    3.20
  17 -13  -5    4.80    2.40
  -4  17  -5   12.00    2.40
  13   4   5    8.10    2.50
  13   4   5   12.30    3.10
  -3  16  -5    2.10    2.00
  16 -13  -5    1.40    2.00
  13   3   5    7.10    2.80
  15 -13  -5    7.90    2.20
  -2  15  -5    7.20    2.20
  13   2   5    9.40    3.00
  14 -13  -5    4.20    2.00
  -1  14  -5    6.10    2.00
  13   1   5    9.60    2.70
   0  13  -5    2.80    1.90
  13 -13  -5    4.70    1.90
  13   0   5    7.20    2.70
   1  12  -5    4.30    1.90
  12 -13  -5    1.10    1.80
  13  -1   5    6.40    2.50
  11 -13  -5   -0.40    1.60
   2  11  -5    2.20    1.90
  13  -2   5   -2.00    2.20
   3  10  -5    9.20    2.10
  10 -13  -5    7.80    2.00
  13  -3   5    8.20    2.50
   4   9  -5    3.50    1.90
   9 -13  -5    1.10    1.60
  13  -4   5    2.70    2.10
   8 -13  -5    9.20    2.10
   5   8  -5    6.30    3.10
  13  -5   5   14.80    2.60
   6   7  -5    3.60    2.00
   7 -13  -5    1.80    1.80
  -6  -7   5    0.90    3.10
  13  -6   5    3.40    2.20
   6 -13  -5   -0.50    2.50
   7   6  -5    2.70    1.90
  13  -7   5    3.40    2.10
  -7  -6   5   -1.20    2.10
   8   5  -5   33.20    3.40
  -8  -5   5   22.80    3.80
  13  -8   5   32.20    3.90
   9   4  -5    3.30    2.10
   4 -13  -5    4.80    2.70
  -9  -4   5    3.60    2.50
  13  -9   5    5.00    2.40
 -13  10  -5   15.30    2.50
  10   3  -5   14.50    2.50
   3 -13  -5    9.50    3.20
   3 -13  -5   12.40    2.50
  -3  13   5   13.90    2.40
 -10  -3   5    9.70    2.80
  11   2  -5   -2.20    2.10
   2 -13  -5    0.10    2.40
   2 -13  -5   -0.90    2.40
 -13  11  -5    2.50    1.90
  -2  13   5    0.70    2.20
 -11  -2   5   -0.80    2.60
  12   1  -5    2.10    2.10
 -13  12  -5    0.50    1.90
   1 -13  -5    5.10    2.70
   1 -13  -5    0.80    2.80
 -12  -1   5   -0.90    2.70
  -1  13   5    0.80    2.40
   0 -13  -5    5.60    2.90
  13   0  -5    4.20    2.10
 -13  13  -5    8.00    2.20
 -13   0   5    3.60    2.70
   0  13   5    3.70    2.60
  -1 -13  -5    3.00    2.80
 -13  14  -5    3.30    1.90
  14  -1  -5   -0.20    2.10
   1  13   5    2.20    2.70
 -14   1   5    0.30    2.90
  -2 -13  -5    0.50    3.10
 -13  15  -5    2.00    2.20
  15  -2  -5    0.80    2.20
 -15   2   5    1.80    2.90
   2  13   5    2.50    2.70
  -3 -13  -5    3.20    3.40
  -3 -13  -5    1.70    2.40
 -13  16  -5    0.10    2.00
  16  -3  -5    0.00    2.20
   3  13   5    1.60    2.80
 -16   3   5    2.50    3.00
  -4 -13  -5    0.00    2.40
  -4 -13  -5    2.70    3.60
 -13  17  -5   -0.20    2.50
  17  -4  -5   -0.80    2.30
 -13  17  -5    2.00    2.20
   4  13   5   -0.20    2.80
 -17   4   5    0.50    3.20
  18  -5  -5    4.30    2.50
 -13  18  -5    2.60    2.90
 -13  18  -5    4.20    2.30
 -18   5   5    7.30    3.40
   5  13   5    0.70    3.00
 -13  19  -5    9.00    2.70
  19  -6  -5   12.50    3.10
 -13  19  -5    5.60    3.10
  19  -6  -5    9.40    2.90
 -19   6   5   14.70    3.90
   6  13   5   11.00    3.50
  20  -7  -5   -0.60    2.90
 -13  20  -5    1.80    2.50
 -13  20  -5   -2.90    3.40
  20  -7  -5    0.70    2.80
 -20   7   5    7.80    4.00
   7  13   5    3.10    3.30
  21  -8  -5    3.70    3.20
  21  -8  -5    5.20    3.40
 -13  21  -5    4.60    2.80
 -13  21  -5    3.00    3.90
   8  13   5   12.00    3.90
  22  -9  -5    1.60    3.00
 -13  22  -5   -1.80    2.80
  22  -9  -5    2.10    3.60
   9  13   5    5.20    4.20
 -13  23  -5   -4.80    2.80
  23 -10  -5   -1.90    3.80
  10  13   5    4.30    4.20
  23 -14  -5   -3.40    3.30
  -9  23  -5    2.80    3.00
  14   9   5    1.60    3.90
  22 -14  -5   -4.90    3.20
  -8  22  -5    5.30    3.00
  14   8   5    2.80    3.70
  21 -14  -5    1.00    3.20
  -7  21  -5    5.40    2.60
  14   7   5    9.60    3.60
  20 -14  -5    4.00    3.00
  -6  20  -5    1.30    2.50
  14   6   5    2.40    3.30
  19 -14  -5   12.20    2.90
  -5  19  -5   10.90    2.60
  14   5   5    9.80    3.30
  14   5   5    6.50    3.90
  -4  18  -5    7.50    2.40
  18 -14  -5   10.90    2.60
  14   4   5   15.30    3.40
  14   4   5    5.30    2.60
  17 -14  -5    0.20    2.20
  -3  17  -5   -0.50    2.00
  14   3   5    5.10    2.80
  -2  16  -5    2.80    2.00
  16 -14  -5    1.00    2.20
  14   2   5    4.50    2.90
  -1  15  -5   -0.30    1.90
  15 -14  -5   -0.70    2.00
  14   1   5    4.70    2.70
  14 -14  -5    5.10    1.90
   0  14  -5    5.10    2.00
  14   0   5    7.60    2.60
  13 -14  -5   -0.10    1.70
   1  13  -5    2.00    1.90
  14  -1   5    0.80    2.40
  12 -14  -5    3.40    1.90
   2  12  -5    4.80    2.00
  14  -2   5    5.30    2.50
   3  11  -5    4.50    2.10
  11 -14  -5    5.80    2.00
  14  -3   5    1.90    2.20
  10 -14  -5   13.50    2.70
   4  10  -5   11.90    2.40
  14  -4   5   16.00    2.80
   5   9  -5    2.80    2.00
   9 -14  -5    3.10    1.80
  14  -5   5    6.20    2.50
   8 -14  -5   14.40    2.90
   6   8  -5   19.60    2.80
  14  -6   5   22.70    3.70
   7 -14  -5    0.00    1.90
   7   7  -5    0.90    3.40
  14  -7   5    5.80    2.40
   6 -14  -5   -1.80    1.70
   8   6  -5    1.60    2.60
  14  -8   5    0.90    2.40
   5 -14  -5    7.40    2.00
   9   5  -5   11.40    2.50
  14  -9   5    8.40    2.50
  -9  -5   5    9.90    4.30
   4 -14  -5    2.40    2.20
  10   4  -5    2.00    2.20
   4 -14  -5   -0.20    1.70
  14 -10   5   -4.20    2.40
 -10  -4   5    1.20    2.70
  11   3  -5   11.00    2.50
   3 -14  -5   10.40    2.30
 -14  11  -5   11.80    2.30
   3 -14  -5   12.30    2.40
  -3  14   5   12.60    2.40
 -11  -3   5    7.30    2.90
 -14  12  -5    1.80    1.80
   2 -14  -5    1.50    2.00
   2 -14  -5    1.90    2.40
  12   2  -5    2.20    2.20
 -12  -2   5   -1.30    2.70
  -2  14   5   -3.50    2.40
   1 -14  -5    4.40    2.70
   1 -14  -5    4.30    2.10
  13   1  -5    3.70    2.30
 -14  13  -5    9.30    2.30
  -1  14   5    6.50    2.70
 -13  -1   5    6.00    3.00
   0 -14  -5    8.50    3.00
   0 -14  -5    4.60    2.20
 -14  14  -5    6.40    2.20
  14   0  -5    4.40    2.20
 -14   0   5    6.10    3.00
   0  14   5    6.30    2.80
  15  -1  -5    1.20    2.30
 -14  15  -5    2.40    2.20
  -1 -14  -5    2.40    3.10
 -14  15  -5    2.50    2.10
  -1 -14  -5    2.50    2.10
   1  14   5    1.10    2.70
 -15   1   5    2.60    3.10
  -2 -14  -5   -0.70    2.20
 -14  16  -5    2.00    2.30
  -2 -14  -5    2.50    3.50
  16  -2  -5    3.40    2.30
 -14  16  -5   -0.10    2.20
   2  14   5    5.70    3.10
 -16   2   5    3.30    3.30
  17  -3  -5    1.40    2.50
 -14  17  -5   -3.80    2.10
  -3 -14  -5   -1.30    3.50
  -3 -14  -5    2.20    2.40
 -14  17  -5   -1.20    2.40
 -17   3   5    0.30    3.30
   3  14   5    3.90    3.00
 -14  18  -5   11.80    2.90
  -4 -14  -5   12.40    4.30
  -4 -14  -5    8.70    2.60
 -14  18  -5   17.60    3.30
  18  -4  -5   11.40    2.80
   4  14   5   14.40    3.40
 -18   4   5   12.30    4.00
  19  -5  -5    7.70    2.90
 -14  19  -5   11.90    2.80
 -14  19  -5    9.90    3.10
   5  14   5    6.90    4.20
 -19   5   5   10.30    4.00
  20  -6  -5   -0.60    3.00
  20  -6  -5    0.70    3.00
 -14  20  -5    1.00    3.80
 -14  20  -5    1.50    2.70
 -20   6   5   -4.10    4.00
   6  14   5    5.60    3.50
 -14  21  -5   12.50    3.10
  21  -7  -5    8.40    3.70
  21  -7  -5   14.30    3.50
   7  14   5   17.90    4.10
 -14  22  -5   -3.00    3.00
  22  -8  -5   -1.60    3.50
  22  -8  -5   -1.50    3.30
   8  14   5    6.80    4.00
  23  -9  -5   10.80    3.80
 -14  23  -5    9.20    3.20
  23  -9  -5    9.70    4.10
   9  14   5   21.40    4.30
  23 -15  -5    9.30    3.80
  -8  23  -5    9.00    3.10
  15   8   5    3.60    4.00
  22 -15  -5    1.30    3.30
  -7  22  -5    2.20    2.80
  15   7   5    0.70    3.60
  21 -15  -5   -0.60    2.90
  -6  21  -5    2.00    2.60
  15   6   5   -1.50    3.50
  -5  20  -5    4.70    2.60
  20 -15  -5    0.60    2.70
  15   5   5    7.80    3.40
  19 -15  -5   -3.20    2.40
  -4  19  -5    1.60    2.40
  15   4   5    6.50    3.10
  -3  18  -5    5.00    2.40
  18 -15  -5    4.90    2.50
  15   3   5   14.90    3.50
  -2  17  -5    9.50    2.40
  17 -15  -5    7.80    2.50
  15   2   5   13.70    3.10
  -1  16  -5    6.60    2.20
  16 -15  -5    2.20    2.10
  15   1   5    6.60    3.10
   0  15  -5   23.60    3.40
  15 -15  -5   25.80    3.50
  15   0   5   27.70    4.20
  14 -15  -5    4.70    2.10
   1  14  -5    5.70    2.10
  15  -1   5    4.40    2.80
  13 -15  -5    1.90    2.00
   2  13  -5    1.90    2.00
  15  -2   5    1.10    2.50
   3  12  -5   -2.50    1.90
  12 -15  -5    0.00    1.70
  15  -3   5   -0.10    2.40
   4  11  -5    2.50    2.00
  11 -15  -5    1.40    1.80
  15  -4   5    1.80    2.30
  10 -15  -5    2.90    1.80
   5  10  -5    2.10    2.00
  15  -5   5    4.30    2.30
   9 -15  -5   -2.80    1.60
   6   9  -5    1.10    2.10
  15  -6   5    3.10    2.40
   7   8  -5   -1.50    2.10
   8 -15  -5   -1.60    1.80
  15  -7   5   -4.40    2.50
   7 -15  -5    0.40    1.70
   8   7  -5    1.00    2.10
  15  -8   5    3.40    2.30
   6 -15  -5    3.40    1.80
   9   6  -5    1.80    2.20
  15  -9   5    5.00    2.60
   5 -15  -5    6.20    2.00
  10   5  -5    5.30    2.50
  15 -10   5    9.00    2.90
   4 -15  -5    2.80    2.20
   4 -15  -5    0.80    2.00
   3 -15  -5   -3.50    1.90
   3 -15  -5   -2.50    2.40
 -15  12  -5   -0.30    1.90
  12   3  -5    1.10    3.70
  -3  15   5   -0.70    2.20
   2 -15  -5    7.60    2.30
  13   2  -5    6.30    2.60
   2 -15  -5    1.10    2.60
 -15  13  -5   11.70    2.40
  -2  15   5    6.70    2.60
 -15  14  -5    0.70    2.20
   1 -15  -5   -2.00    2.80
   1 -15  -5   -1.20    2.10
  14   1  -5   -1.90    2.20
  -1  15   5    1.90    2.70
 -14  -1   5    2.10    3.20
  15   0  -5   20.80    3.00
   0 -15  -5   17.80    3.50
   0 -15  -5   24.50    3.60
 -15  15  -5   23.10    3.50
   0  15   5   26.00    4.20
 -15   0   5   16.70    3.80
  16  -1  -5   -0.30    2.40
 -15  16  -5    0.50    2.60
 -15  16  -5   -2.20    2.20
  -1 -15  -5    0.40    2.30
  -1 -15  -5   -1.40    3.60
 -16   1   5    0.50    3.60
   1  15   5    4.70    3.10
  -2 -15  -5   -0.80    2.50
  -2 -15  -5   -2.60    3.80
  17  -2  -5    0.00    2.60
 -15  17  -5    1.00    2.50
 -15  17  -5    1.80    2.30
   2  15   5    1.80    2.90
 -17   2   5    0.00    3.90
  -3 -15  -5    5.30    2.70
  -3 -15  -5    6.30    4.20
 -15  18  -5    8.70    2.80
  18  -3  -5    8.20    3.00
 -15  18  -5    7.40    2.70
   3  15   5    9.70    3.40
 -18   3   5    7.40    4.10
  19  -4  -5    6.30    2.90
 -15  19  -5    9.20    2.60
 -19   4   5    5.70    4.30
   4  15   5    6.00    4.10
  20  -5  -5   -1.70    3.00
 -15  20  -5    0.50    2.70
 -20   5   5    0.80    4.40
   5  15   5    1.80    3.50
 -15  21  -5    9.10    3.20
  21  -6  -5   10.60    3.50
  21  -6  -5    8.50    3.50
   6  15   5   15.50    4.10
  22  -7  -5    1.70    3.80
  22  -7  -5    3.40    3.70
 -15  22  -5    8.30    3.20
   7  15   5   13.80    4.20
  23  -8  -5    3.80    3.70
  23  -8  -5    1.10    3.60
 -15  23  -5   -4.40    3.00
   8  15   5    8.30    4.30
  23 -16  -5    0.10    3.70
  -7  23  -5    3.90    3.10
  16   7   5    1.10    3.60
  22 -16  -5    5.10    3.50
  -6  22  -5    8.00    2.90
  16   6   5   13.10    4.20
  -5  21  -5    7.90    2.80
  21 -16  -5    3.90    3.20
  16   5   5    6.40    3.40
  20 -16  -5   -1.30    2.70
  -4  20  -5    4.50    2.60
  16   4   5    4.60    3.40
  -3  19  -5   -0.20    2.40
  19 -16  -5   -2.10    2.30
  16   3   5    4.30    3.50
  -2  18  -5   21.10    3.70
  18 -16  -5   15.50    2.90
  16   2   5   20.00    3.50
  -1  17  -5    2.50    2.50
  17 -16  -5    0.00    2.40
  16   1   5    2.20    3.00
  16 -16  -5    9.60    2.50
   0  16  -5   10.20    2.50
  16   0   5   12.70    3.20
   1  15  -5   -1.10    2.10
  15 -16  -5   -1.50    2.00
  16  -1   5    1.70    2.70
   2  14  -5    1.60    2.20
  14 -16  -5    2.30    1.90
  16  -2   5   -0.60    2.80
   3  13  -5   -2.80    2.10
  13 -16  -5   -0.50    1.90
  16  -3   5    2.50    2.70
   4  12  -5    3.80    2.10
  12 -16  -5    0.00    1.70
  16  -4   5   -0.90    2.40
  11 -16  -5    2.00    1.90
   5  11  -5    5.50    2.30
  16  -5   5    6.80    2.90
  10 -16  -5    4.10    2.10
   6  10  -5    7.30    2.30
  16  -6   5    7.10    2.70
   7   9  -5    0.50    2.10
   9 -16  -5    3.10    1.80
  16  -7   5    2.60    2.60
   8 -16  -5    0.50    1.90
   8   8  -5   -1.90    2.10
  16  -8   5   -4.30    2.20
   9   7  -5    4.70    2.30
   7 -16  -5    4.00    1.90
  16  -9   5    4.70    2.40
   6 -16  -5   -3.80    1.80
  10   6  -5    0.10    2.30
  16 -10   5    3.70    2.60
   5 -16  -5   -0.80    2.00
  11   5  -5   -0.10    2.30
  16 -11   5    2.30    2.70
   4 -16  -5   -1.80    1.90
  12   4  -5    1.10    2.30
   4 -16  -5    1.50    2.40
 -16  12  -5   -2.60    2.20
 -16  13  -5    7.90    2.40
   3 -16  -5   -0.10    2.70
  13   3  -5    5.80    2.40
   3 -16  -5    3.30    2.00
  -3  16   5    0.40    2.60
  14   2  -5   -0.40    2.20
   2 -16  -5   -1.00    2.10
 -16  14  -5    1.70    2.30
   2 -16  -5    3.00    3.00
  -2  16   5    1.90    2.60
   1 -16  -5    3.50    2.30
   1 -16  -5    1.80    3.20
  15   1  -5    1.20    2.70
 -16  15  -5    6.40    2.40
  -1  16   5    3.90    3.10
   0 -16  -5    7.10    3.60
 -16  16  -5    9.40    2.50
  16   0  -5    6.80    3.30
   0 -16  -5    8.00    2.60
   0  16   5   15.40    3.40
  -1 -16  -5   12.20    2.80
 -16  17  -5   12.60    2.90
  -1 -16  -5    9.70    4.10
   1  16   5   10.40    3.40
 -16  18  -5   30.10    4.00
  -2 -16  -5   18.20    4.70
  -2 -16  -5   18.20    3.30
   2  16   5   28.10    4.80
 -16  19  -5    0.90    2.60
  -3 -16  -5   -0.50    5.70
   3  16   5    0.20    3.40
 -16  20  -5    1.20    2.90
   4  16   5    3.60    3.40
 -16  21  -5    3.60    3.00
  21  -5  -5    9.10    4.40
   5  16   5   16.30    4.20
  22  -6  -5    4.20    3.60
  22  -6  -5   -2.40    3.80
 -16  22  -5    0.70    3.20
   6  16   5    3.90    4.30
  23  -7  -5    2.70    4.20
  23  -7  -5    7.50    3.90
 -16  23  -5    7.90    3.30
   7  16   5   13.20    4.60
  22 -17  -5    2.40    3.30
  -5  22  -5    5.90    3.10
  17   5   5    0.70    3.60
  -4  21  -5    3.10    2.90
  21 -17  -5    0.20    3.00
  17   4   5    0.80    3.30
  -3  20  -5    1.60    2.70
  20 -17  -5   -4.40    2.90
  17   3   5    5.00    3.30
  -2  19  -5   -3.40    2.50
  19 -17  -5   -0.80    2.50
  17   2   5    2.60    3.30
  18 -17  -5   10.60    2.60
  -1  18  -5    8.90    2.60
  17   1   5    9.40    3.40
  17 -17  -5   28.10    3.90
   0  17  -5   28.40    3.80
  17   0   5   31.80    4.80
  16 -17  -5   13.40    2.60
   1  16  -5   16.20    2.90
  17  -1   5   19.40    3.60
   2  15  -5    2.40    2.20
  15 -17  -5    1.70    2.10
  17  -2   5   -0.70    2.80
   3  14  -5    4.90    2.30
  17  -3   5    3.20    2.60
   4  13  -5   -4.20    2.20
  13 -17  -5   -0.80    1.90
  17  -4   5   -2.40    2.60
   5  12  -5    0.10    2.30
  12 -17  -5   -2.20    1.90
  17  -5   5    0.70    2.40
  11 -17  -5   -0.30    1.90
   6  11  -5   -0.20    2.20
  17  -6   5    0.10    2.30
  10 -17  -5    2.10    1.90
   7  10  -5    5.60    2.50
  17  -7   5    7.60    2.80
   8   9  -5    1.60    2.40
   9 -17  -5    4.60    1.90
  17  -8   5    4.00    2.70
   8 -17  -5   -0.40    1.80
   9   8  -5    0.30    2.30
  17  -9   5    0.40    2.70
   7 -17  -5    0.20    2.00
  10   7  -5    0.80    2.40
  17 -10   5    4.60    2.70
   6 -17  -5    0.10    1.90
  11   6  -5    2.10    2.50
  17 -11   5    2.10    2.60
   5 -17  -5    0.30    2.00
  12   5  -5   -0.10    2.40
  17 -12   5   -1.80    2.70
  13   4  -5    7.40    2.50
 -17  13  -5    4.60    2.40
   4 -17  -5    7.10    2.80
   4 -17  -5    4.30    2.10
  14   3  -5   -1.10    2.30
   3 -17  -5   -1.50    2.00
 -17  14  -5    2.30    2.30
   3 -17  -5    2.80    3.00
  -3  17   5    3.50    2.80
   2 -17  -5    4.50    2.40
 -17  15  -5    7.50    2.50
   2 -17  -5    9.60    3.30
  15   2  -5    5.80    2.60
  -2  17   5    6.90    3.10
   1 -17  -5    3.50    3.60
   1 -17  -5   -2.40    2.30
 -17  16  -5    0.20    2.40
  16   1  -5    2.30    2.60
  -1  17   5    3.10    3.00
 -17  17  -5   32.40    4.00
   0 -17  -5   31.40    5.20
  17   0  -5   23.60    3.90
   0 -17  -5   25.20    4.30
   0  17   5   30.90    5.00
  -1 -17  -5    7.10    4.30
  -1 -17  -5    6.10    2.90
  18  -1  -5   -0.80    2.80
 -17  18  -5    8.20    2.80
   1  17   5    6.10    3.50
 -17  19  -5    5.00    3.00
  19  -2  -5    0.00    3.00
  -2 -17  -5   -1.40    2.80
  -2 -17  -5    4.30    4.80
   2  17   5    0.90    3.50
  20  -3  -5   -2.40    3.20
 -17  20  -5    1.00    2.90
 -17  21  -5    4.40    2.90
  21  -4  -5    2.20    3.70
   4  17   5    6.90    4.30
  22  -5  -5    8.10    4.00
 -17  22  -5    5.70    3.30
   5  17   5   15.40    4.60
  -4  22  -5   12.30    3.50
  22 -18  -5   10.10    3.80
  18   4   5   14.00    3.90
  -3  21  -5    4.90    2.90
  21 -18  -5    9.00    3.40
  18   3   5    8.10    3.70
  -2  20  -5   -1.10    2.80
  20 -18  -5   -2.10    3.00
  18   2   5   13.60    3.60
  19 -18  -5   -2.40    2.50
  -1  19  -5    1.30    2.60
  18   1   5    7.00    3.20
  18 -18  -5    6.50    2.50
   0  18  -5   12.50    2.90
  18   0   5   14.40    3.70
  17 -18  -5    7.70    2.60
   1  17  -5    3.00    2.40
  18  -1   5   11.30    3.40
   2  16  -5   27.30    3.90
  16 -18  -5   20.30    3.60
  18  -2   5   26.70    4.60
  15 -18  -5    5.90    2.40
   3  15  -5    9.50    2.70
  18  -3   5   13.60    3.30
   4  14  -5   15.70    3.00
  14 -18  -5    7.10    2.20
  18  -4   5   10.90    3.20
  13 -18  -5    1.40    2.00
   5  13  -5    3.30    2.40
  18  -5   5    6.70    2.60
   6  12  -5    2.90    2.40
  12 -18  -5   -0.40    1.80
  18  -6   5    1.10    2.50
  11 -18  -5    2.80    2.00
   7  11  -5   -3.80    2.30
  18  -7   5    0.70    2.60
  10 -18  -5    0.40    1.80
   8  10  -5   -4.10    2.30
  18  -8   5    6.10    2.80
   9 -18  -5    6.10    2.20
   9   9  -5    7.80    2.70
  18  -9   5    9.30    3.20
   8 -18  -5    1.80    2.10
  10   8  -5    3.00    2.40
  18 -10   5    2.90    2.70
  11   7  -5   16.80    3.00
   7 -18  -5   12.80    2.40
  18 -11   5   14.60    3.20
  12   6  -5   -0.50    2.50
   6 -18  -5    1.30    2.10
  18 -12   5    5.00    3.10
  13   5  -5    3.70    2.50
   5 -18  -5    2.40    2.10
   4 -18  -5    3.10    2.20
  14   4  -5    2.80    2.60
   4 -18  -5    6.20    3.10
 -18  14  -5    7.60    2.50
   3 -18  -5    6.50    3.40
 -18  15  -5    5.90    2.60
   3 -18  -5    4.50    2.30
  15   3  -5    4.70    2.70
  -3  18   5    4.30    2.90
 -18  16  -5   18.00    3.20
   2 -18  -5   17.60    4.10
  16   2  -5   14.80    3.20
   2 -18  -5   11.70    2.70
  -2  18   5   18.30    3.60
   1 -18  -5    7.90    2.90
  17   1  -5    7.10    3.00
   1 -18  -5    4.40    4.20
 -18  17  -5   10.00    2.90
  -1  18   5   13.10    3.60
 -18  18  -5   13.20    3.20
   0 -18  -5    5.40    4.90
  18   0  -5    5.20    3.20
   0 -18  -5    3.80    2.90
   0  18   5    9.00    3.60
 -18  19  -5    5.60    3.20
  19  -1  -5    5.10    3.30
  -1 -18  -5    2.70    2.80
   1  18   5    0.50    3.60
 -18  20  -5   -3.10    3.00
  20  -2  -5    3.70    3.50
   2  18   5    1.50    4.00
 -18  21  -5    9.60    3.30
  21  -3  -5    0.80    3.60
   3  18   5    4.90    4.20
 -18  22  -5    4.30    3.20
  22  -4  -5    5.30    4.10
   4  18   5   10.50    4.40
  21 -19  -5   -2.80    2.80
  -2  21  -5    6.70    3.00
  19   2   5   11.30    3.90
  20 -19  -5    6.40    3.00
  -1  20  -5    0.00    2.80
  19   1   5   13.10    3.70
  19 -19  -5   -0.70    2.70
   0  19  -5    2.70    2.80
  19   0   5    2.60    3.50
  18 -19  -5    2.50    2.50
   1  18  -5    8.40    3.00
  19  -1   5   11.50    3.50
   2  17  -5    3.40    2.60
  17 -19  -5   -0.70    2.30
  19  -2   5    5.20    3.30
  16 -19  -5   -1.10    2.20
   3  16  -5   -2.70    2.40
  19  -3   5    3.10    3.20
  15 -19  -5    3.70    2.50
   4  15  -5    7.80    2.70
  19  -4   5    9.50    3.20
   5  14  -5   13.40    2.80
  14 -19  -5    7.30    2.30
  19  -5   5   12.00    3.30
  13 -19  -5    6.70    2.10
   6  13  -5   10.80    2.90
  19  -6   5   10.90    2.90
   7  12  -5   10.10    2.90
  12 -19  -5   12.40    2.30
  19  -7   5   15.60    3.20
  11 -19  -5    4.50    2.10
   8  11  -5    2.30    2.30
  19  -8   5   12.70    3.10
  10 -19  -5   -3.90    2.00
   9  10  -5   -1.00    2.40
  19  -9   5    1.80    3.10
   9 -19  -5    4.00    2.20
  10   9  -5    4.10    2.50
  19 -10   5    2.20    3.10
  11   8  -5   -0.70    2.70
   8 -19  -5    0.50    1.90
  19 -11   5    1.90    2.90
  12   7  -5    2.40    2.50
   7 -19  -5    1.40    2.00
  19 -12   5    3.40    3.00
  13   6  -5   -1.50    2.60
   6 -19  -5   -1.00    2.00
  19 -13   5   -0.20    3.20
 -19  14  -5    7.10    2.90
   5 -19  -5    4.20    2.30
  14   5  -5    5.50    2.80
 -19  15  -5   -2.70    2.50
  15   4  -5   -2.00    2.70
   4 -19  -5    0.90    2.20
   3 -19  -5   -1.80    2.30
 -19  16  -5    2.30    2.90
  16   3  -5   -0.50    2.60
  -3  19   5    0.80    3.20
   2 -19  -5    0.40    2.80
 -19  17  -5   -0.40    2.90
  17   2  -5   -2.60    2.80
  -2  19   5    5.80    3.40
  18   1  -5   -1.90    3.00
   1 -19  -5   -1.30    3.00
 -19  18  -5    2.70    3.00
  -1  19   5    1.40    3.60
  19   0  -5    3.10    3.20
   0 -19  -5   -1.00    2.90
 -19  19  -5   -1.50    3.10
   0  19   5    2.60    3.70
  20  -1  -5   25.40    4.90
 -19  20  -5   39.80    5.00
   1  19   5   33.80    5.90
 -19  21  -5    1.60    3.40
  21  -2  -5    1.80    3.90
   2  19   5    6.60    4.60
   0  20  -5    7.50    3.10
  20 -20  -5    2.20    2.90
  20   0   5   11.70    3.90
   1  19  -5   35.70    4.60
  19 -20  -5   38.80    4.50
  20  -1   5   44.90    5.60
   2  18  -5    2.30    2.60
  18 -20  -5   -3.60    2.50
  20  -2   5    7.00    3.60
  17 -20  -5   -2.20    2.50
   3  17  -5    1.20    2.80
  20  -3   5   -0.40    3.30
  16 -20  -5   -3.00    2.30
   4  16  -5    0.70    2.60
  20  -4   5   -1.90    3.00
   5  15  -5   -3.10    2.70
  15 -20  -5   -0.40    2.10
  20  -5   5    1.40    3.30
  14 -20  -5   -1.80    2.10
   6  14  -5   -4.70    2.50
  20  -6   5   -0.80    2.80
  13 -20  -5   -1.00    2.00
   7  13  -5   -2.20    2.50
  20  -7   5    5.40    3.20
  12 -20  -5    0.70    2.00
   8  12  -5    4.50    2.70
  20  -8   5   11.20    3.10
  11 -20  -5    1.80    2.20
   9  11  -5    5.20    2.60
  20  -9   5    9.90    3.20
  10  10  -5    2.40    2.60
  10 -20  -5    3.20    2.10
  20 -10   5    0.40    3.60
   9 -20  -5   13.50    2.60
  11   9  -5   19.50    3.30
   8 -20  -5    3.80    2.10
  12   8  -5    6.00    2.70
  20 -12   5    7.20    3.30
   7 -20  -5    4.30    2.30
  13   7  -5    9.40    2.70
  20 -13   5   16.10    3.90
  14   6  -5   -2.90    2.70
   6 -20  -5   -1.00    2.20
  20 -14   5    0.70    3.50
 -20  15  -5    3.40    2.70
   5 -20  -5    3.90    2.30
  15   5  -5    3.70    2.80
  16   4  -5    3.80    3.00
   4 -20  -5    1.80    2.40
 -20  16  -5    7.10    3.10
  17   3  -5   -1.80    3.10
   3 -20  -5   -0.20    2.80
 -20  17  -5    0.80    3.00
  -3  20   5    3.10    3.60
   2 -20  -5   -0.70    3.00
  18   2  -5   -0.10    3.10
 -20  18  -5    7.00    3.30
  -2  20   5   11.70    3.90
 -20  19  -5    2.50    3.40
  19   1  -5    1.30    3.50
   1 -20  -5   -3.60    3.00
  -1  20   5    0.00    3.80
 -20  20  -5    9.50    3.70
  20   0  -5    4.50    3.60
   0  20   5    5.90    4.10
  19 -21  -5   -0.60    2.80
   2  19  -5    4.80    3.10
  21  -2   5    9.30    3.90
  18 -21  -5    1.70    2.50
   3  18  -5    3.40    2.90
  21  -3   5    0.40    3.40
   4  17  -5   -5.10    2.80
  17 -21  -5   -0.20    2.50
  21  -4   5    4.80    3.50
   5  16  -5    1.40    2.80
  16 -21  -5    7.10    2.50
  21  -5   5   11.10    3.70
   6  15  -5    5.20    2.80
  15 -21  -5    9.40    2.40
  21  -6   5    2.70    3.40
  14 -21  -5    8.10    2.30
   7  14  -5    8.80    2.90
  21  -7   5   13.50    3.30
  13 -21  -5    1.90    2.30
   8  13  -5    7.00    2.90
  21  -8   5   11.20    3.30
   9  12  -5   11.80    2.90
  12 -21  -5    6.90    2.40
  21  -9   5   13.70    3.60
  11 -21  -5   -2.20    2.00
  10  11  -5   -1.00    2.60
  21 -10   5    3.10    3.50
  11  10  -5    2.40    2.60
  10 -21  -5    1.00    2.20
  21 -11   5    4.90    3.60
   9 -21  -5   -1.80    2.00
  12   9  -5   -1.10    2.70
  21 -12   5    0.30    3.30
   8 -21  -5   -1.50    2.20
  13   8  -5   -1.00    2.70
  21 -13   5    2.90    3.50
   7 -21  -5    3.80    2.40
  14   7  -5    0.30    2.80
  21 -14   5   12.30    4.00
   6 -21  -5    1.60    2.30
  15   6  -5    2.50    2.90
 -21  16  -5    2.80    3.00
   5 -21  -5    1.80    2.50
  16   5  -5    8.40    3.20
  17   4  -5    2.30    3.30
   4 -21  -5    1.30    2.90
 -21  17  -5    3.70    3.30
  18   3  -5    4.10    3.40
 -21  18  -5    5.80    3.50
   3 -21  -5    2.10    3.20
   2 -21  -5   -3.40    3.00
  19   2  -5   -2.40    3.40
 -21  19  -5    0.70    3.50
  -2  21   5    3.30    6.10
  18 -22  -5   -3.50    2.40
   4  18  -5   -2.60    2.90
  22  -4   5    1.70    3.60
  17 -22  -5    0.70    2.30
   5  17  -5    4.50    2.90
  22  -5   5   11.00    3.70
   6  16  -5   -3.80    2.90
  16 -22  -5   -1.40    2.50
  22  -6   5   -1.00    3.50
   7  15  -5    3.40    2.90
  15 -22  -5   -1.40    2.30
  22  -7   5    2.10    3.40
   8  14  -5    2.40    2.90
  14 -22  -5   -4.30    2.30
  22  -8   5   -0.60    3.40
  13 -22  -5    0.90    2.30
   9  13  -5   -1.10    2.80
  22  -9   5    8.60    3.50
  12 -22  -5    0.90    2.30
  10  12  -5    4.90    3.10
  22 -10   5   15.20    3.90
  11  11  -5   -0.80    2.80
  11 -22  -5   -0.10    2.00
  22 -11   5    0.70    3.90
  10 -22  -5   -1.80    2.10
  12  10  -5    3.80    3.00
  22 -12   5   12.70    3.90
  13   9  -5    5.10    3.00
   9 -22  -5    7.20    2.40
  22 -13   5   17.20    4.10
  14   8  -5    2.80    3.00
   8 -22  -5    0.60    2.30
  22 -14   5    6.50    4.10
  15   7  -5    1.70    3.10
   7 -22  -5    0.80    2.40
  22 -15   5   -0.90    4.10
  16   6  -5    3.70    3.20
   6 -22  -5    1.90    2.50
 -22  16  -5    3.70    3.30
  17   5  -5    2.70    3.50
   5 -22  -5   -0.80    2.70
 -22  17  -5    4.20    3.60
  18   4  -5    7.50    3.60
 -22  18  -5    7.50    3.60
   4 -22  -5    7.30    3.20
  16 -23  -5    3.20    2.80
   7  16  -5    6.90    3.50
  23  -7   5    8.50    3.80
   8  15  -5    0.30    2.90
  15 -23  -5    2.70    2.60
  23  -8   5    3.00    3.50
   9  14  -5   11.80    3.30
  14 -23  -5    5.10    2.50
  23  -9   5   19.60    3.90
  10  13  -5   -3.60    2.70
  13 -23  -5   -3.60    2.20
  23 -10   5   11.40    4.00
  11  12  -5    0.90    3.10
  12 -23  -5    2.40    2.30
  23 -11   5    1.40    4.20
  11 -23  -5   10.60    2.70
  12  11  -5   11.20    3.20
  13  10  -5    7.00    3.40
  10 -23  -5    3.30    2.30
  23 -13   5   12.20    4.40
   9 -23  -5    1.30    2.30
  14   9  -5   -0.60    3.10
  23 -14   5    2.60    4.10
  15   8  -5   10.50    3.60
   8 -23  -5    6.40    2.60
  23 -15   5   12.50    5.00
  16   7  -5   -0.90    3.10
   7 -23  -5    3.20    2.60
   0   0  -6  909.61   50.49
   0   0  -6  863.81   50.59
   0   0  -6  909.41   50.59
   0   1  -6   58.39    4.60
   1  -1  -6   52.19    5.20
   1  -1  -6   62.39    4.50
  -1   0  -6   54.69    4.60
  -1   0  -6   51.59    4.60
  -1   0  -6   45.00    5.10
   0   1  -6   46.10    5.20
   1  -1  -6   56.39    4.70
  -1   1  -6   49.99    4.60
   0  -1  -6   44.20    4.60
   0  -1  -6   51.39    5.10
   1   0  -6   50.39    4.60
   0  -1  -6   58.59    4.70
   1   0  -6   49.70    5.30
   1   0  -6   58.09    4.50
  -1   1  -6   53.09    5.00
  -1   1  -6   58.39    4.70
   2  -1  -6   13.10    2.40
  -1  -1  -6    8.60    2.20
  -1  -1  -6   13.30    2.90
   2  -1  -6    6.50    2.30
  -1   2  -6    5.20    2.30
  -1   2  -6   13.60    2.60
  -1  -1  -6   16.20    3.10
  -1   2  -6    9.70    2.80
   2  -1  -6   12.10    2.80
   3  -2  -6    4.70    2.60
  -2  -1  -6    6.50    2.50
  -2  -1  -6    6.40    2.10
  -2  -1  -6    6.60    2.40
   3  -2  -6    6.90    2.10
  -1   3  -6    6.50    2.50
   3  -2  -6    6.80    2.10
  -1   3  -6    7.20    2.20
   2  -2  -6   16.40    3.40
   0   2  -6   22.50    3.30
  -2   0  -6   25.70    3.50
  -2   0  -6   20.20    3.20
   0   2  -6   24.70    4.10
   2  -2  -6   22.50    4.00
   2  -2  -6   28.00    3.20
  -2   0  -6   23.10    3.40
   1   1  -6    8.20    2.50
   1  -2  -6   19.40    3.10
  -2   1  -6   10.20    2.20
   1  -2  -6   10.70    2.80
  -2   1  -6   12.20    2.50
   1   1  -6   10.20    2.40
   1   1  -6    9.60    2.80
   1  -2  -6    9.20    2.20
  -2   1  -6    9.50    2.70
  -2   2  -6   20.50    4.00
  -2   2  -6   25.40    3.50
   0  -2  -6   18.60    2.80
   2   0  -6   23.30    4.10
   2   0  -6   19.90    3.30
   0  -2  -6   28.30    4.00
   0  -2  -6   25.70    3.30
  -2   2  -6   21.50    3.30
   2   0  -6   19.10    2.90
  -2   3  -6   10.80    2.80
   3  -1  -6   11.60    2.80
   3  -1  -6   11.80    2.30
  -2   3  -6   11.20    2.40
  -1  -2  -6   12.90    2.50
  -1  -2  -6    8.00    2.10
  -1  -2  -6   12.50    2.80
   3  -1  -6    7.20    2.20
   4  -2  -6    3.70    2.50
  -2  -2  -6    0.80    1.80
   4  -2  -6   -0.40    1.80
   4  -2  -6   -0.90    1.90
  -2  -2  -6    0.70    2.50
  -2   4  -6    0.90    1.90
  -2  -2  -6    1.90    2.10
  -2   4  -6    4.90    2.30
  -2   5  -6   11.10    2.40
  -3  -2  -6    7.90    2.40
   5  -3  -6    7.10    2.10
  -3  -2  -6    6.40    2.00
   5  -3  -6    7.20    2.10
  -2   5  -6    5.30    2.10
  -3  -2  -6   11.70    2.90
   5  -3  -6    8.10    2.60
   4  -3  -6    3.50    2.50
   4  -3  -6    1.00    1.90
   4  -3  -6    0.10    1.80
  -1   4  -6    1.80    2.00
  -3  -1  -6    1.50    2.50
  -1   4  -6    2.70    2.50
  -3  -1  -6    4.50    2.10
  -3  -1  -6    0.60    1.80
   0   3  -6   16.80    2.70
  -3   0  -6   14.40    2.40
  -3   0  -6   16.40    2.90
   0   3  -6   11.20    2.80
  -3   0  -6   16.60    2.70
   3  -3  -6   15.50    2.80
   3  -3  -6   15.80    2.60
   3  -3  -6   11.90    2.40
  -3   1  -6   14.60    2.70
   1   2  -6   11.60    2.80
  -3   1  -6   10.40    2.20
   2  -3  -6   10.30    2.70
   2  -3  -6   13.20    2.40
   2  -3  -6    9.40    2.30
   1   2  -6   13.70    2.50
  -3   1  -6    9.70    2.80
   1  -3  -6    4.10    2.10
   1  -3  -6    5.30    2.50
   2   1  -6    4.10    2.40
  -3   2  -6    6.70    2.60
  -3   2  -6    7.10    2.20
   2   1  -6    3.70    2.20
   1  -3  -6    2.10    2.10
  -3   2  -6    5.20    2.00
   3   0  -6   14.10    2.60
   0  -3  -6   18.80    3.20
  -3   3  -6   11.70    2.80
   0  -3  -6   16.90    2.90
  -3   3  -6   16.20    2.80
   0  -3  -6   10.00    2.30
  -3   3  -6   12.10    2.40
   3   0  -6   13.70    2.50
   3   0  -6   11.00    2.90
  -3   4  -6   21.50    3.70
   4  -1  -6   18.40    3.00
  -1  -3  -6   17.60    3.00
  -1  -3  -6   17.70    3.20
   4  -1  -6   17.50    3.40
  -1  -3  -6   18.30    3.30
   4  -1  -6   19.00    3.00
  -3   4  -6   20.70    3.30
   5  -2  -6    2.20    2.10
   5  -2  -6    3.70    2.60
   5  -2  -6    2.40    1.90
  -3   5  -6    7.20    2.10
  -2  -3  -6    6.00    1.90
  -3   5  -6   10.10    2.40
  -2  -3  -6    6.60    2.40
  -2  -3  -6    4.50    2.30
   6  -3  -6    4.20    1.80
   6  -3  -6    4.30    2.20
  -3  -3  -6    5.70    1.90
  -3  -3  -6    7.90    2.80
  -3   6  -6    7.70    2.20
   6  -3  -6    3.90    2.60
   7  -4  -6    2.60    1.90
  -3   7  -6    8.20    2.70
   7  -4  -6    5.10    2.70
   7  -4  -6   -0.10    2.30
  -4  -3  -6    5.00    1.90
  -4  -3  -6    3.50    2.60
   4   3   6    5.20    2.60
  -4  -2  -6    5.70    1.80
   6  -4  -6    0.40    1.80
   6  -4  -6    4.50    2.20
  -2   6  -6    3.40    2.20
  -4  -2  -6    2.90    2.60
   6  -4  -6    5.00    2.50
   4   2   6    1.90    2.60
   5  -4  -6   -0.20    2.40
   5  -4  -6   -1.20    1.80
  -1   5  -6    2.00    2.00
  -1   5  -6    0.50    2.00
  -4  -1  -6    0.30    1.70
   5  -4  -6    0.10    2.00
  -4  -1  -6   -3.70    2.30
  -4  -1  -6    1.80    2.80
  -4   0  -6    6.50    2.20
  -4   0  -6    3.70    1.80
   4  -4  -6    2.70    1.80
   4  -4  -6    4.40    2.60
   0   4  -6    3.10    2.40
   4  -4  -6    0.30    2.00
   0   4  -6    2.20    2.10
  -4   0  -6    4.20    2.70
   1   3  -6   19.00    3.10
   3  -4  -6   22.80    3.10
  -4   1  -6   19.90    3.90
  -4   1  -6   16.40    2.50
   1   3  -6   21.00    3.20
   3  -4  -6   19.90    3.90
   3  -4  -6   21.00    3.30
  -4   1  -6   20.60    3.40
   2  -4  -6    1.70    2.10
  -4   2  -6   -0.70    1.80
   2   2  -6   -1.00    2.00
  -4   2  -6   -1.40    2.40
   2  -4  -6    1.10    2.40
   2  -4  -6   -0.10    1.80
   2   2  -6   -0.80    2.50
  -4   2  -6    1.00    2.10
   3   1  -6   -0.50    1.90
  -4   3  -6    4.10    2.20
   3   1  -6    0.40    2.70
  -4   3  -6    3.90    2.30
   1  -4  -6    3.70    2.50
   1  -4  -6    2.60    1.90
  -4   3  -6    1.30    1.90
   1  -4  -6    4.30    2.10
  -4   4  -6    1.70    1.90
   4   0  -6    1.50    1.90
   0  -4  -6    3.80    2.50
  -4   4  -6    1.90    2.20
  -4   4  -6    4.10    2.10
   0  -4  -6    2.00    1.90
   4   0  -6    5.60    2.70
   0  -4  -6    6.50    2.20
   5  -1  -6   49.60    4.30
  -1  -4  -6   59.79    5.00
  -1  -4  -6   62.09    4.80
   5  -1  -6   48.70    5.30
  -4   5  -6   63.79    4.90
  -1  -4  -6   59.19    4.60
   5  -1  -6   58.59    5.00
  -4   5  -6   56.49    5.80
   6  -2  -6    2.70    2.40
   6  -2  -6    3.20    2.70
  -2  -4  -6    5.20    2.50
  -4   6  -6    3.80    2.40
   6  -2  -6    3.70    1.90
  -2  -4  -6    5.30    2.00
   7  -3  -6   32.90    3.30
  -3  -4  -6   31.70    4.10
  -3  -4  -6   34.20    3.60
   7  -3  -6   32.90    4.50
  -4   7  -6   36.90    3.90
   7  -3  -6   24.70    4.10
   3   4   6   33.90    4.30
   8  -4  -6    8.90    2.70
   8  -4  -6   10.70    2.10
  -4   8  -6    8.20    2.30
  -4  -4  -6   11.40    2.20
  -4  -4  -6    4.00    2.60
   8  -4  -6    7.40    2.90
   4   4   6    9.80    2.80
  -5  -4  -6   16.10    3.10
   9  -5  -6   17.70    2.70
   9  -5  -6   13.30    2.80
  -5  -4  -6   19.50    3.30
  -4   9  -6   20.90    3.20
   9  -5  -6   15.60    3.20
   5   4   6   18.70    3.40
   8  -5  -6    5.20    2.60
   8  -5  -6    1.10    1.80
   8  -5  -6    1.80    2.20
  -5  -3  -6    1.70    2.70
  -3   8  -6    1.50    1.90
  -5  -3  -6    2.00    1.80
   5   3   6    1.90    2.50
  -5  -2  -6    6.90    1.90
   7  -5  -6    4.20    2.00
  -5  -2  -6    8.70    2.70
   7  -5  -6    3.80    2.70
   7  -5  -6   -1.70    2.20
  -2   7  -6    6.10    2.90
   5   2   6    5.00    2.70
  -5  -1  -6    2.70    2.60
  -5  -1  -6    0.60    1.70
   6  -5  -6    2.60    2.50
   6  -5  -6    0.20    2.20
  -1   6  -6    1.70    2.00
   6  -5  -6   -1.20    1.70
   5   1   6    1.20    2.60
  -5   0  -6    1.10    1.80
   5  -5  -6    0.80    1.90
   0   5  -6    5.10    2.20
   5  -5  -6   -1.90    2.30
  -5   0  -6    0.20    2.80
   5  -5  -6   -1.50    1.90
   0   5  -6    5.20    2.40
   1   4  -6   59.59    4.70
  -5   1  -6   58.39    4.50
   4  -5  -6   58.09    4.80
  -5   1  -6   51.89    5.20
   4  -5  -6   57.69    5.10
   4  -5  -6   58.59    4.60
   1   4  -6   57.59    5.40
  -5   1  -6   52.89    4.80
   3  -5  -6    4.80    2.10
   3  -5  -6    7.10    2.30
  -5   2  -6    7.60    2.30
   2   3  -6    5.30    2.10
  -5   2  -6    9.80    2.60
   3  -5  -6    4.10    1.90
   2   3  -6    4.00    2.80
  -5   2  -6    5.50    1.90
   2  -5  -6    7.10    2.10
  -5   3  -6    7.80    2.40
   3   2  -6    8.20    2.10
   2  -5  -6    6.80    2.30
   3   2  -6    6.40    2.90
  -5   3  -6    7.50    2.00
  -5   3  -6    6.10    2.30
   2  -5  -6    6.50    2.50
   1  -5  -6    3.10    2.20
  -5   4  -6    0.30    2.20
   4   1  -6    0.10    1.80
   1  -5  -6    4.10    2.60
  -5   4  -6   -2.00    1.90
   1  -5  -6    1.10    1.80
  -5   4  -6    1.80    1.90
   4   1  -6   -2.50    2.60
   5   0  -6   -1.20    2.70
   0  -5  -6    3.10    2.20
  -5   5  -6    3.30    2.10
   0  -5  -6    2.30    1.90
   5   0  -6    0.70    1.70
   0  -5  -6    2.70    2.50
  -1  -5  -6   18.90    2.90
   6  -1  -6   11.60    3.20
   6  -1  -6   14.90    2.70
  -1  -5  -6   16.40    2.70
  -1  -5  -6   16.10    2.40
  -2  -5  -6    4.40    1.90
  -2  -5  -6    4.50    2.60
   7  -2  -6    3.90    2.90
   7  -2  -6    0.10    2.20
  -5   7  -6    7.70    2.00
   7  -2  -6    6.60    2.00
   2   5   6    6.50    2.90
  -3  -5  -6   12.80    2.90
   8  -3  -6   14.20    2.60
   8  -3  -6   11.70    2.70
   8  -3  -6   10.00    3.00
  -3  -5  -6   14.70    2.40
  -5   8  -6   13.30    2.50
   3   5   6   15.20    2.90
   9  -4  -6   -2.80    2.20
   9  -4  -6    3.60    3.00
  -5   9  -6    3.90    2.00
  -4  -5  -6    6.80    2.10
  -4  -5  -6    3.40    2.80
   9  -4  -6    4.70    2.00
   4   5   6   14.00    3.00
  -5  10  -6    7.10    2.30
  -5  -5  -6    6.30    2.00
  -5  -5  -6    4.50    3.00
  10  -5  -6    6.80    2.10
  10  -5  -6    4.30    2.40
  10  -5  -6    7.90    3.00
   5   5   6    6.60    2.90
  -6  -5  -6    3.60    2.10
  -5  11  -6    7.20    2.40
  11  -6  -6    3.50    2.40
  11  -6  -6    6.20    3.10
  11  -6  -6    3.30    2.10
   6   5   6    8.60    3.00
  10  -6  -6   13.80    2.70
  10  -6  -6   13.50    3.00
  -4  10  -6   13.60    2.70
  10  -6  -6   13.30    2.60
  -6  -4  -6   13.70    3.30
  -6  -4  -6   16.20    3.10
   6   4   6   23.50    3.50
   9  -6  -6   11.50    2.10
  -3   9  -6   14.20    2.50
  -6  -3  -6   11.50    2.10
   9  -6  -6   13.40    2.80
  -6  -3  -6   10.90    3.00
   9  -6  -6    6.80    2.60
   6   3   6   12.30    3.10
  -6  -2  -6   18.60    2.90
  -6  -2  -6   15.60    3.20
   8  -6  -6   14.60    2.60
  -2   8  -6   16.00    3.00
   8  -6  -6   14.20    2.70
   8  -6  -6   14.10    3.00
   6   2   6   18.50    3.10
   7  -6  -6   -1.00    2.00
   7  -6  -6   -1.40    1.70
  -6  -1  -6    3.00    2.60
   7  -6  -6   -2.00    2.30
  -1   7  -6   -1.90    2.50
  -6  -1  -6    0.80    1.70
   6   1   6    0.40    2.50
   0   6  -6    4.20    2.20
  -6   0  -6    3.80    1.80
   6  -6  -6    0.70    1.90
  -6   0  -6    7.40    2.70
   6  -6  -6    1.90    2.40
   6   0   6    1.80    2.70
  -6   1  -6   22.80    3.90
   5  -6  -6   17.50    2.60
   1   5  -6   18.90    3.00
   1   5  -6   19.10    2.80
   5  -6  -6   17.00    2.60
   5  -6  -6   14.80    2.80
  -6   1  -6   17.50    2.90
  -6   2  -6    7.50    2.20
   4  -6  -6    5.30    2.00
  -6   2  -6    5.30    2.40
   4  -6  -6    5.50    2.00
   2   4  -6    2.40    2.60
   2   4  -6    3.20    1.90
  -6   2  -6    4.80    1.80
   4  -6  -6    4.40    2.40
  -6   3  -6    5.80    1.90
   3   3  -6    3.10    2.60
  -6   3  -6    2.30    2.80
   3  -6  -6    6.20    2.30
  -6   3  -6    6.00    2.20
   3  -6  -6    4.60    2.40
   3   3  -6    3.60    1.90
   3  -6  -6    7.40    2.10
   4   2  -6    5.30    2.00
  -6   4  -6    5.40    2.30
  -6   4  -6    5.80    1.90
   2  -6  -6    7.30    2.20
   4   2  -6    1.70    2.90
   2  -6  -6    5.50    2.40
   2  -6  -6    6.00    2.10
   1  -6  -6    0.40    2.20
   5   1  -6    0.60    1.90
   5   1  -6    3.40    2.70
   1  -6  -6    1.00    2.40
  -6   5  -6    0.00    1.80
   1  -6  -6    2.40    1.80
   0  -6  -6    4.20    2.30
   0  -6  -6    1.50    2.30
   0  -6  -6    5.70    2.00
   6   0  -6    3.50    1.90
  -6   6  -6    6.00    2.30
   6   0  -6    4.90    2.80
   7  -1  -6   31.20    4.80
  -6   7  -6   39.50    4.00
  -1  -6  -6   33.50    4.10
   7  -1  -6   36.20    3.50
  -1  -6  -6   38.20    3.80
   8  -2  -6    3.60    2.80
  -2  -6  -6    4.10    2.70
  -6   8  -6    4.40    2.20
  -2  -6  -6    4.60    2.10
   8  -2  -6    5.90    1.90
   2   6   6    4.80    2.70
   9  -3  -6   60.49    4.40
  -3  -6  -6   52.59    5.10
  -3  -6  -6   57.89    4.70
   9  -3  -6   53.29    5.10
  -6   9  -6   60.09    4.80
   9  -3  -6   50.79    5.50
   3   6   6   59.89    5.20
  -4  -6  -6    7.10    2.20
  10  -4  -6    6.40    2.10
  -6  10  -6    6.50    2.10
  10  -4  -6    3.10    3.00
  -4  -6  -6   12.00    3.30
  10  -4  -6    3.00    2.40
   4   6   6    6.30    3.00
  11  -5  -6   26.30    3.10
  -6  11  -6   25.20    3.40
  -5  -6  -6   26.80    3.60
  -5  -6  -6   25.30    4.50
  11  -5  -6   18.70    3.50
  11  -5  -6   19.40    3.10
   5   6   6   33.10    4.30
  12  -6  -6    5.40    2.70
  12  -6  -6   12.70    2.40
  -6  12  -6   10.80    2.50
  12  -6  -6   10.90    3.20
  -6  -6  -6    9.90    2.30
   6   6   6   14.90    3.20
  13  -7  -6    0.90    3.00
  13  -7  -6    4.70    2.20
  13  -7  -6   -1.20    2.30
  -7  -6  -6    1.50    2.00
  -6  13  -6    3.50    2.30
   7   6   6    1.70    2.90
  12  -7  -6   25.00    4.60
  12  -7  -6   22.20    2.90
  -7  -5  -6   24.70    3.30
  -5  12  -6   28.50    3.50
   7   5   6   24.50    4.50
  -7  -4  -6    2.10    2.00
  11  -7  -6    0.90    2.80
  11  -7  -6   -3.30    2.20
  11  -7  -6    5.00    2.00
  -4  11  -6    2.30    2.10
  10  -7  -6    4.30    2.70
  10  -7  -6    0.90    1.90
  10  -7  -6    2.50    1.90
  -7  -3  -6    1.60    1.80
  -3  10  -6    0.90    2.10
   7   3   6    4.90    3.50
   9  -7  -6    1.70    1.70
  -2   9  -6    0.00    2.00
   9  -7  -6   -1.70    2.10
  -7  -2  -6    1.30    1.70
   9  -7  -6    3.90    2.60
   7   2   6    2.60    3.00
   8  -7  -6   18.30    2.80
  -1   8  -6   18.90    3.10
   8  -7  -6   18.30    3.30
   8  -7  -6   18.50    3.00
  -7  -1  -6   19.60    3.00
   7   1   6   19.40    3.30
   7  -7  -6    1.30    2.50
   7  -7  -6    2.90    2.00
   7  -7  -6    3.80    2.10
  -7   0  -6    4.40    1.80
   0   7  -6    5.00    2.10
   7   0   6    4.40    2.80
   1   6  -6   32.30    4.20
   6  -7  -6   36.20    3.60
   6  -7  -6   37.20    4.30
  -7   1  -6   42.00    3.60
   6  -7  -6   40.10    4.10
   7  -1   6   41.90    4.50
  -7   2  -6    7.80    1.80
   5  -7  -6    4.00    2.50
   5  -7  -6    2.20    2.00
   5  -7  -6    2.00    2.40
   2   5  -6    5.20    3.00
   2   5  -6    2.70    1.90
   3   4  -6   30.90    4.70
  -7   3  -6   33.00    5.50
  -7   3  -6   37.10    3.50
   4  -7  -6   36.40    3.70
   3   4  -6   35.10    3.60
   4  -7  -6   39.10    3.80
   4  -7  -6   38.20    4.10
   4   3  -6    1.60    2.70
   4   3  -6    4.00    2.00
   3  -7  -6    2.60    2.50
  -7   4  -6    6.80    1.80
   3  -7  -6    3.40    2.20
   3  -7  -6    2.40    1.90
   2  -7  -6    8.50    2.30
   5   2  -6    4.70    2.10
  -7   5  -6    8.90    2.00
  -7   5  -6    6.50    2.50
   2  -7  -6    5.10    2.10
   5   2  -6    3.70    2.90
   2  -7  -6    9.80    2.40
   1  -7  -6    1.10    2.20
  -7   6  -6   -0.10    2.00
   1  -7  -6    1.70    2.00
  -7   6  -6    0.60    1.90
   6   1  -6    0.20    1.90
   6   1  -6    1.10    2.90
   1  -7  -6    0.40    2.40
   0  -7  -6    5.90    2.40
  -7   7  -6    4.40    2.20
   0  -7  -6    5.90    2.00
   7   0  -6    4.90    1.90
   7   0  -6    3.50    3.00
   8  -1  -6    2.20    3.00
  -1  -7  -6    1.20    2.50
   8  -1  -6    4.00    2.00
  -1  -7  -6    1.10    1.90
  -7   8  -6    1.30    2.00
   1   7   6    1.10    2.40
  -2  -7  -6   17.00    3.10
  -7   9  -6   18.00    3.30
   9  -2  -6   14.40    2.80
   9  -2  -6   14.70    3.40
  -2  -7  -6   14.60    2.50
   2   7   6   15.60    3.10
  10  -3  -6    8.90    3.30
  -3  -7  -6   10.60    3.00
  -7  10  -6   11.60    2.30
  10  -3  -6   11.70    2.30
  -3  -7  -6   11.20    2.40
  10  -3  -6   14.10    2.70
   3   7   6    9.80    3.10
  11  -4  -6   18.80    3.70
  -4  -7  -6   16.80    2.60
  -7  11  -6   17.80    3.20
  11  -4  -6   13.60    2.90
  -4  -7  -6   16.00    3.50
  11  -4  -6   17.50    3.00
   4   7   6   26.60    4.20
  -5  -7  -6   30.60    4.80
  12  -5  -6   22.70    3.10
  -7  12  -6   21.90    3.40
  12  -5  -6   19.80    3.80
  12  -5  -6   13.50    3.20
  -5  -7  -6   25.40    3.40
   5   7   6   32.00    4.20
  13  -6  -6   13.50    3.00
  -6  -7  -6   14.00    2.40
  -7  13  -6   16.20    2.70
  13  -6  -6   13.10    2.50
  13  -6  -6   11.30    3.50
   6   7   6   20.00    5.20
  14  -7  -6    3.30    2.20
  -7  -7  -6    2.80    2.00
  14  -7  -6    2.80    3.30
  14  -7  -6    1.80    2.50
  -7  14  -6    4.90    2.20
   7   7   6    0.90    3.20
  -7  15  -6    3.10    2.30
  15  -8  -6   -5.80    2.50
  15  -8  -6    1.80    2.10
  15  -8  -6    0.60    3.30
  -8  -7  -6    2.90    2.10
   8   7   6    2.20    3.60
  -8  -6  -6    8.60    2.00
  14  -8  -6    1.10    2.60
  14  -8  -6    8.50    3.40
  -6  14  -6    9.70    2.60
  14  -8  -6    6.60    2.10
   8   6   6    4.80    3.40
  13  -8  -6   57.39    5.10
  -8  -5  -6   50.29    4.20
  13  -8  -6   53.99    5.40
  -5  13  -6   56.39    4.70
  13  -8  -6   51.69    4.20
   8   5   6   55.99    5.50
  -8  -4  -6   17.50    2.80
  -4  12  -6   16.90    2.70
  12  -8  -6   16.30    3.10
  12  -8  -6   14.40    2.60
   8   4   6   20.10    3.40
  11  -8  -6  113.89    7.50
  -3  11  -6  109.89    7.30
  11  -8  -6  100.39    6.60
  11  -8  -6  101.99    7.40
  -8  -3  -6   98.99    6.80
   8   3   6  114.59    7.80
  -2  10  -6   47.20    4.10
  10  -8  -6   38.90    3.50
  10  -8  -6   44.30    4.30
  10  -8  -6   38.20    4.50
  -8  -2  -6   38.40    3.70
   8   2   6   43.00    4.80
  -1   9  -6   18.10    3.00
   9  -8  -6   16.20    2.60
   9  -8  -6   17.60    3.00
   9  -8  -6   16.10    2.70
  -8  -1  -6   20.20    2.80
   8   1   6   21.30    3.60
   8  -8  -6    5.50    2.40
   0   8  -6    5.30    2.00
   8  -8  -6    6.10    2.10
   8  -8  -6    6.20    1.90
  -8   0  -6    6.70    1.80
   8   0   6    7.70    3.00
   7  -8  -6    0.10    1.80
  -8   1  -6    0.70    1.70
   7  -8  -6   -2.90    1.80
   7  -8  -6    0.10    2.40
   1   7  -6    1.20    1.90
   8  -1   6    5.20    3.20
  -8   2  -6    4.80    1.70
   6  -8  -6    3.80    2.50
   6  -8  -6    2.70    2.00
   6  -8  -6    6.30    2.00
   8  -2   6    7.20    2.90
   5  -8  -6    9.40    2.90
   5  -8  -6   18.40    3.30
   5  -8  -6   15.60    2.50
   3   5  -6   12.60    2.50
  -8   3  -6   14.00    2.70
   4   4  -6    9.50    2.30
   4  -8  -6    8.80    2.40
  -8   4  -6   11.50    2.50
   4  -8  -6    8.10    2.60
   4   4  -6   10.90    3.00
   4  -8  -6   10.60    2.50
  -8   4  -6    9.20    1.90
   3  -8  -6    0.00    2.30
   3  -8  -6    1.30    2.10
  -8   5  -6    3.40    1.90
  -8   5  -6    3.30    1.80
   5   3  -6    1.80    2.00
   3  -8  -6    1.00    1.90
   2  -8  -6   19.90    3.30
  -8   6  -6   16.00    2.90
   2  -8  -6   16.70    2.80
   6   2  -6   18.20    3.00
   2  -8  -6   21.00    3.40
  -8   6  -6   19.60    3.10
  -8   7  -6   20.60    3.20
   1  -8  -6   18.40    3.50
  -8   7  -6   21.30    3.40
   7   1  -6   19.60    3.00
   1  -8  -6   20.50    3.30
   1  -8  -6   18.80    3.10
   0  -8  -6    8.60    2.90
   0  -8  -6    7.00    2.30
  -8   8  -6    7.30    2.40
   8   0  -6    9.20    2.20
   0   8   6    6.50    2.80
   9  -1  -6   13.50    2.50
  -8   9  -6   15.50    2.60
  -1  -8  -6   13.20    2.50
  -1  -8  -6   13.00    2.90
  -9   1   6   12.90    3.20
   1   8   6   12.00    3.00
  -8  10  -6   10.80    2.60
  10  -2  -6    9.70    2.20
  -2  -8  -6    7.00    2.40
  -2  -8  -6    7.70    3.00
   2   8   6   10.30    3.00
 -10   2   6    7.40    3.00
  -3  -8  -6    8.40    3.30
  -8  11  -6    9.80    2.40
  11  -3  -6   12.00    2.40
  -3  -8  -6   10.00    2.40
   3   8   6   11.50    3.00
  12  -4  -6   72.99    5.40
  -4  -8  -6   73.69    5.60
  12  -4  -6   74.79    6.30
  -4  -8  -6   66.89    6.40
  -8  12  -6   80.29    5.70
   4   8   6   77.39    6.20
  13  -5  -6    7.30    2.40
  13  -5  -6    2.60    2.60
  -5  -8  -6    3.50    4.70
  -8  13  -6    1.30    2.20
  -5  -8  -6    6.30    2.20
   5   8   6    6.30    3.10
  -6  -8  -6   44.70    4.30
  -8  14  -6   55.59    4.50
  14  -6  -6   50.29    5.10
  14  -6  -6   45.40    4.10
   6   8   6   41.70    6.40
  -8  15  -6    7.70    2.40
  15  -7  -6    4.40    2.60
  -7  -8  -6    7.20    2.30
  15  -7  -6    5.00    2.30
   7   8   6    6.60    3.60
  16  -8  -6    5.60    2.40
  -8  16  -6    1.50    2.30
  16  -8  -6   -2.70    2.70
  -8  -8  -6    4.90    2.40
   8   8   6    7.70    3.50
  17  -9  -6    5.30    2.40
  17  -9  -6    2.00    2.80
  -8  17  -6    3.70    2.60
   9   8   6    8.80    3.90
   9   8   6    5.20    3.50
  -9  -7  -6   19.70    3.60
  16  -9  -6   22.00    3.10
  16  -9  -6   22.00    3.50
  -7  16  -6   21.80    3.40
   9   7   6   27.30    4.40
  15  -9  -6    7.50    2.20
  15  -9  -6    3.00    2.50
  -6  15  -6    5.00    2.40
  -9  -6  -6    5.80    2.10
   9   6   6    5.60    3.60
  14  -9  -6    1.00    1.90
  -9  -5  -6    3.70    1.80
  -5  14  -6    2.80    2.10
   9   5   6   -3.40    2.90
  13  -9  -6    7.50    2.50
  -9  -4  -6    7.00    1.90
  -4  13  -6    9.00    2.20
  13  -9  -6   11.20    2.10
   9   4   6   11.10    3.10
  -9  -3  -6    8.70    1.90
  12  -9  -6    3.50    2.50
  12  -9  -6    9.40    2.00
  -3  12  -6    9.20    2.30
   9   3   6   16.10    3.20
  -2  11  -6   13.60    2.40
  -9  -2  -6   14.30    2.60
  11  -9  -6   11.90    2.60
  11  -9  -6   19.20    2.50
   9   2   6   20.40    3.40
  -1  10  -6    1.80    2.00
  10  -9  -6    2.10    2.00
  -9  -1  -6    3.20    1.70
  10  -9  -6    2.30    1.90
   9   1   6    6.60    3.00
   9  -9  -6   13.10    2.50
   0   9  -6   15.90    2.90
  -9   0  -6   15.80    2.70
   9  -9  -6   17.90    3.20
   9   0   6   17.90    3.30
   8  -9  -6    9.10    2.00
  -9   1  -6   10.70    1.90
   8  -9  -6   12.30    2.60
   1   8  -6   10.50    2.40
   8  -9  -6   11.90    2.40
   9  -1   6   10.90    2.90
   2   7  -6   12.60    2.50
  -9   2  -6   13.60    2.60
   7  -9  -6   10.20    2.20
   7  -9  -6   13.30    2.50
   7  -9  -6   18.80    3.10
   9  -2   6   16.10    3.10
   3   6  -6   57.69    5.30
   6  -9  -6   57.09    4.70
   6  -9  -6   58.59    4.80
   6  -9  -6   59.89    4.60
  -9   3  -6   62.69    4.40
   9  -3   6   55.19    5.40
   5  -9  -6    3.90    1.90
   4   5  -6    3.70    2.30
   5  -9  -6    5.60    2.20
   5  -9  -6    5.60    2.30
  -9   4  -6    5.20    1.70
  -9   5  -6   16.70    3.20
   4  -9  -6   14.70    3.00
   4  -9  -6   21.50    3.30
   5   4  -6   17.10    3.00
  -9   5  -6   19.10    2.80
   4  -9  -6   16.00    2.70
  -5  -4   6   23.70    4.40
   3  -9  -6   10.00    2.70
  -9   6  -6   12.40    2.00
   3  -9  -6   13.30    2.60
  -9   6  -6   12.80    2.50
   6   3  -6   10.40    2.30
  -6  -3   6   11.50    3.00
  -9   7  -6    4.20    1.80
  -9   7  -6    2.70    2.20
   2  -9  -6    5.00    2.30
   2  -9  -6    6.80    2.40
   7   2  -6    3.80    2.10
   2  -9  -6    3.00    2.60
  -7  -2   6    3.20    3.00
   8   1  -6   19.70    3.10
   1  -9  -6   18.70    3.70
   1  -9  -6   21.70    3.40
  -9   8  -6   21.30    3.40
  -9   8  -6   20.40    3.20
  -8  -1   6   21.10    3.50
   0  -9  -6   16.40    3.20
   0  -9  -6   17.40    3.50
   9   0  -6   16.20    3.00
  -9   9  -6   18.30    3.20
   0   9   6   20.60    3.70
  -9   0   6   13.30    3.40
  -9  10  -6    6.70    2.30
  -1  -9  -6    7.50    3.20
  10  -1  -6    9.80    2.50
  -1  -9  -6    7.50    2.40
 -10   1   6    4.90    3.10
   1   9   6   11.70    2.80
  -2  -9  -6   37.70    4.20
  -2  -9  -6   34.40    4.70
  11  -2  -6   34.50    3.80
  -9  11  -6   33.60    4.00
   2   9   6   37.30    4.70
 -11   2   6   32.50    4.90
  12  -3  -6    8.50    2.50
  -9  12  -6    6.50    2.20
  -3  -9  -6   10.70    3.60
  -3  -9  -6    8.30    2.60
   3   9   6    8.80    3.00
 -12   3   6    4.50    3.10
  -4  -9  -6   28.40    5.10
  13  -4  -6   28.10    3.50
  -4  -9  -6   29.30    3.80
  -9  13  -6   31.10    3.60
  13  -4  -6   29.50    4.40
 -13   4   6   25.70    3.90
   4   9   6   26.10    4.50
  14  -5  -6    5.60    2.40
  -9  14  -6    2.90    2.20
  -5  -9  -6    5.50    2.30
   5   9   6    5.30    3.40
 -14   5   6    1.20    3.20
  15  -6  -6   20.60    4.10
  15  -6  -6   18.10    3.20
  -6  -9  -6   21.60    3.70
  -9  15  -6   22.60    3.50
   6   9   6   14.50    3.70
   6   9   6   26.60    4.10
 -15   6   6   22.30    3.90
  16  -7  -6   -0.90    2.70
  16  -7  -6    4.20    2.50
  -9  16  -6    2.50    2.40
  -7  -9  -6    1.80    2.40
   7   9   6    2.00    3.20
   7   9   6    3.10    3.60
 -16   7   6    0.80    3.40
  -8  -9  -6   10.20    2.70
  -9  17  -6   12.20    2.90
  17  -8  -6   11.40    2.70
  17  -8  -6   12.90    3.10
   8   9   6   11.00    3.80
   8   9   6   14.40    4.10
  18  -9  -6   11.30    2.70
  18  -9  -6    6.50    3.30
  -9  18  -6   16.70    2.90
   9   9   6   23.80    4.50
   9   9   6    8.80    4.00
  -9  19  -6   -4.50    2.30
  19 -10  -6   -5.00    3.00
  10   9   6    0.90    4.40
  18 -10  -6    0.00    2.90
  -8  18  -6   -3.90    2.30
  10   8   6    4.60    3.90
  -7  17  -6   -2.10    2.20
  17 -10  -6    2.30    2.30
  17 -10  -6    2.50    2.90
  10   7   6    2.60    4.00
  -6  16  -6    6.90    2.30
  16 -10  -6    8.50    2.90
  10   6   6    7.20    3.60
  15 -10  -6   18.00    3.20
 -10  -5  -6   19.50    3.00
  -5  15  -6   20.70    3.30
  10   5   6   29.70    4.50
  14 -10  -6   12.80    3.00
 -10  -4  -6   17.60    2.80
  -4  14  -6   20.80    3.30
  10   4   6   15.40    3.80
 -10  -3  -6   58.19    4.70
  13 -10  -6   72.39    5.70
  -3  13  -6   79.79    5.40
  10   3   6   69.19    6.10
 -10  -2  -6   12.00    2.50
  -2  12  -6   17.10    3.00
  12 -10  -6   15.60    2.70
  12 -10  -6   13.00    2.30
  10   2   6   19.90    3.30
  -1  11  -6   64.29    4.70
  11 -10  -6   57.59    4.80
  11 -10  -6   50.09    4.00
 -10  -1  -6   49.40    4.00
  10   1   6   66.09    5.50
  10 -10  -6   -0.40    1.70
   0  10  -6   -0.30    2.00
  10 -10  -6    1.10    2.00
 -10   0  -6    0.50    1.50
  10   0   6    2.80    2.80
   1   9  -6    6.90    2.40
 -10   1  -6    4.30    1.60
   9 -10  -6    4.90    1.80
   9 -10  -6    7.90    2.10
  10  -1   6    4.20    2.80
   8 -10  -6    3.50    1.90
   2   8  -6    4.40    2.20
   8 -10  -6    8.40    2.10
 -10   2  -6    7.00    1.70
  10  -2   6   11.00    2.90
   7 -10  -6    5.40    2.10
   3   7  -6    9.00    2.40
   7 -10  -6    8.80    2.20
 -10   3  -6    8.30    1.70
  10  -3   6   11.30    2.90
 -10   4  -6    7.00    1.70
   6 -10  -6    4.30    2.30
   6 -10  -6    7.80    2.00
   4   6  -6    5.50    2.20
   6 -10  -6    4.20    2.20
  10  -4   6    5.20    2.80
   5   5  -6    7.00    3.60
   5 -10  -6    7.50    2.40
   5 -10  -6    3.00    2.20
   5 -10  -6    4.20    2.00
 -10   5  -6    6.00    1.70
   4 -10  -6   18.30    3.20
 -10   6  -6   18.00    2.80
   4 -10  -6   17.70    2.90
 -10   6  -6   15.60    2.80
   4 -10  -6   17.10    3.20
   6   4  -6   16.10    2.80
   3 -10  -6    3.30    2.10
 -10   7  -6    1.10    1.70
   3 -10  -6    3.50    2.60
   7   3  -6    3.00    2.10
 -10   7  -6    2.20    2.10
   3 -10  -6    3.00    2.40
  -7  -3   6    2.00    3.00
 -10   8  -6   47.40    3.90
   2 -10  -6   35.30    4.50
 -10   8  -6   45.80    4.20
   2 -10  -6   43.00    4.30
   2 -10  -6   35.30    4.50
   8   2  -6   43.90    4.10
  -8  -2   6   35.00    5.10
   9   1  -6    5.40    2.30
 -10   9  -6    2.20    2.20
   1 -10  -6    4.40    3.10
   1 -10  -6    4.20    2.90
  -9  -1   6    0.50    3.10
  -1  10   6    2.70    2.70
 -10  10  -6    1.30    2.10
   0 -10  -6    4.20    3.20
  10   0  -6    1.90    2.30
 -10   0   6   -0.60    3.10
   0  10   6    5.60    2.80
  -1 -10  -6    1.90    3.20
  11  -1  -6    5.00    2.40
 -10  11  -6    6.90    2.40
   1  10   6    2.00    3.00
 -11   1   6    3.00    3.20
  12  -2  -6   42.40    4.10
 -10  12  -6   45.40    4.30
  -2 -10  -6   45.30    5.90
  -2 -10  -6   38.90    5.10
 -12   2   6   36.30    5.30
   2  10   6   46.30    5.00
  -3 -10  -6   14.20    3.80
  13  -3  -6   12.60    2.70
  -3 -10  -6   10.90    3.30
 -10  13  -6    9.50    2.40
 -13   3   6    6.60    3.40
   3  10   6    8.20    3.30
  -4 -10  -6   55.19    5.90
  14  -4  -6   70.59    5.80
  -4 -10  -6   60.29    6.10
 -10  14  -6   68.09    5.10
  14  -4  -6   58.29    4.90
   4  10   6   54.39    5.80
 -14   4   6   56.29    6.00
  -5 -10  -6    5.90    3.10
  15  -5  -6    4.00    2.50
  15  -5  -6    2.90    2.60
 -10  15  -6    6.70    2.50
 -15   5   6    5.80    3.50
  16  -6  -6   28.00    4.50
 -10  16  -6   23.90    3.70
  16  -6  -6   20.60    3.50
  -6 -10  -6   24.00    4.20
   6  10   6   29.40    5.30
 -16   6   6   24.50    4.10
 -10  17  -6    3.70    2.40
  17  -7  -6    3.10    2.70
  -7 -10  -6    1.90    3.80
  17  -7  -6    4.50    3.00
   7  10   6   -0.60    3.60
 -10  18  -6   -4.70    2.60
  18  -8  -6    9.80    3.10
  18  -8  -6   -2.80    2.50
   8  10   6    4.10    4.10
  19  -9  -6   -6.30    3.20
 -10  19  -6    0.90    2.70
  19  -9  -6    0.20    4.00
   9  10   6    2.90    4.40
  20 -10  -6   -1.70    3.00
 -10  20  -6   -5.60    2.60
  10  10   6   -0.10    4.80
  -9  20  -6   12.50    2.80
  20 -11  -6   10.80    3.60
  11   9   6   22.60    5.10
  -8  19  -6    9.90    2.50
  19 -11  -6    1.80    3.30
  11   8   6   11.10    4.50
  18 -11  -6   16.60    3.50
  -7  18  -6   19.30    3.40
  11   7   6   20.80    4.60
  17 -11  -6   -2.20    2.80
  -6  17  -6    3.50    2.30
  11   6   6    3.60    4.00
  -5  16  -6    3.80    2.20
  16 -11  -6   -1.60    2.60
  11   5   6    8.60    3.60
  -4  15  -6    1.40    2.10
  15 -11  -6   -4.00    2.20
  11   4   6    5.50    3.60
  -3  14  -6    6.40    2.50
  14 -11  -6    3.80    2.20
 -11  -3  -6    5.50    1.70
  11   3   6    2.50    3.20
  13 -11  -6    1.10    2.10
 -11  -2  -6    2.10    1.50
  -2  13  -6    1.80    2.20
  11   2   6    9.00    3.20
  -1  12  -6   15.30    2.80
 -11  -1  -6   15.80    2.30
  12 -11  -6   14.30    2.80
  11   1   6   28.20    4.20
 -11   0  -6   10.30    1.70
   0  11  -6   13.60    2.60
  11 -11  -6   19.70    3.20
  11   0   6   24.60    4.20
   1  10  -6    6.60    2.20
  10 -11  -6    2.50    2.10
  11  -1   6    3.10    2.90
   2   9  -6   39.60    3.80
   9 -11  -6   29.00    3.00
   9 -11  -6   34.10    3.90
  11  -2   6   36.20    4.50
   3   8  -6   12.10    2.50
   8 -11  -6    6.80    1.90
   8 -11  -6    8.80    2.10
  11  -3   6   12.10    2.90
   4   7  -6   21.10    3.30
   7 -11  -6   20.00    3.20
   7 -11  -6   13.80    2.40
  11  -4   6   26.70    4.00
   5   6  -6   26.50    3.60
   6 -11  -6   28.10    3.60
   6 -11  -6   29.00    3.40
   6 -11  -6   30.10    3.50
  11  -5   6   28.10    4.40
   5 -11  -6    6.50    2.20
   6   5  -6    5.20    2.30
   5 -11  -6    6.00    2.30
   5 -11  -6    7.10    2.70
   4 -11  -6    2.90    2.70
   4 -11  -6    3.60    2.40
   7   4  -6    3.80    3.70
 -11   7  -6    1.10    2.10
   4 -11  -6    0.80    2.00
   3 -11  -6  121.09    7.30
   8   3  -6  101.49    7.60
   3 -11  -6  103.19    7.40
 -11   8  -6  110.79    7.40
   3 -11  -6  105.09    7.30
 -11   9  -6   11.90    2.20
   2 -11  -6   21.10    3.50
   2 -11  -6   16.70    3.30
 -11   9  -6   13.00    2.70
  -9  -2   6   11.00    3.50
 -11  10  -6   55.19    5.10
  10   1  -6   61.29    5.00
   1 -11  -6   64.09    5.10
   1 -11  -6   61.49    5.40
  -1  11   6   59.69    5.30
 -10  -1   6   51.49    5.80
  11   0  -6   18.60    3.30
   0 -11  -6   22.60    4.30
   0 -11  -6   12.60    2.80
 -11  11  -6   21.10    3.30
 -11   0   6   12.10    3.50
   0  11   6   16.20    3.40
  -1 -11  -6    9.70    3.40
  -1 -11  -6    7.40    2.70
 -11  12  -6    7.80    2.40
  12  -1  -6    5.00    2.60
 -12   1   6    5.10    3.40
   1  11   6    7.20    3.30
  13  -2  -6    3.10    2.60
  -2 -11  -6    2.10    3.70
 -11  13  -6    4.80    2.40
  -2 -11  -6    2.90    2.40
   2  11   6    9.40    3.10
 -13   2   6    2.80    3.30
  -3 -11  -6    8.20    5.30
  14  -3  -6    7.90    2.60
 -11  14  -6    7.80    2.40
  -3 -11  -6    0.90    2.50
 -14   3   6    3.20    3.60
   3  11   6    5.30    3.20
  15  -4  -6   11.70    2.90
  -4 -11  -6    4.10    2.50
 -11  15  -6    9.70    2.60
  15  -4  -6    6.60    2.60
   4  11   6    4.10    3.90
 -15   4   6    3.30    3.70
  -5 -11  -6    1.40    2.60
  16  -5  -6    2.40    2.60
  16  -5  -6    1.60    2.80
 -11  16  -6    2.90    2.50
   5  11   6    0.40    3.60
 -16   5   6   -0.10    3.70
  17  -6  -6   11.20    3.00
  17  -6  -6    9.80    3.10
 -11  17  -6   11.00    2.90
  -6 -11  -6    8.00    2.90
   6  11   6    6.20    4.20
 -11  18  -6    1.10    2.50
  18  -7  -6    0.00    2.80
  -7 -11  -6   -1.40    2.80
  18  -7  -6    1.30    3.00
   7  11   6    3.80    4.20
  19  -8  -6    4.40    3.30
 -11  19  -6    1.70    2.90
  19  -8  -6    0.20    3.10
   8  11   6   10.70    4.40
 -11  20  -6    4.00    2.80
  20  -9  -6    2.10    3.40
   9  11   6    7.80    4.70
  20 -12  -6    1.80    3.20
  -8  20  -6    1.60    2.80
  12   8   6    8.50    4.70
  -7  19  -6   -1.10    2.50
  12   7   6    4.90    4.40
  -6  18  -6    6.30    2.70
  18 -12  -6    2.60    2.90
  12   6   6    2.90    4.00
  -5  17  -6   -0.40    2.40
  17 -12  -6   -1.70    2.50
  12   5   6    0.60    3.80
  -4  16  -6    5.30    2.40
  16 -12  -6    2.70    2.60
  12   4   6    8.80    3.70
  -3  15  -6   15.00    2.70
  15 -12  -6    7.90    2.50
  12   3   6   10.30    3.90
  14 -12  -6    9.50    2.70
  -2  14  -6   10.70    2.60
  12   2   6    7.40    3.20
  13 -12  -6   20.40    3.60
  -1  13  -6   20.80    3.40
  12   1   6   23.60    4.00
  12 -12  -6    1.40    2.20
   0  12  -6    2.70    2.20
  12   0   6    6.40    3.00
   1  11  -6    4.20    2.20
  11 -12  -6    6.00    2.30
  12  -1   6    9.20    2.90
  10 -12  -6   41.00    4.00
   2  10  -6   42.90    4.20
  12  -2   6   37.10    4.90
   9 -12  -6    7.80    2.10
   3   9  -6   17.00    3.00
   9 -12  -6    4.90    1.70
  12  -3   6    8.50    2.90
   8 -12  -6   67.29    5.00
   8 -12  -6   79.59    5.80
   4   8  -6   79.09    5.80
  12  -4   6   83.29    6.30
   7 -12  -6   28.50    3.50
   5   7  -6   27.70    3.60
   7 -12  -6   22.70    3.10
  12  -5   6   31.60    4.20
   6   6  -6   13.80    2.70
   6 -12  -6   12.80    2.40
   6 -12  -6   16.50    3.20
   6 -12  -6   18.00    3.20
  12  -6   6   12.80    3.20
   5 -12  -6   25.10    3.70
   7   5  -6   27.20    3.60
   5 -12  -6   21.50    3.50
   4 -12  -6   22.80    3.60
   4 -12  -6   18.40    3.50
 -12   8  -6   14.50    2.80
   8   4  -6   23.00    3.40
   4 -12  -6   21.20    3.70
 -12   9  -6   11.50    2.50
   9   3  -6   11.20    3.10
   3 -12  -6    7.80    2.50
   3 -12  -6   15.10    3.20
   2 -12  -6   20.50    3.70
   2 -12  -6   21.50    4.10
 -12  10  -6   18.80    3.40
  10   2  -6   15.70    4.10
  -2  12   6   16.50    3.30
 -12  11  -6   19.40    3.50
   1 -12  -6   15.50    2.90
  11   1  -6   15.70    3.00
   1 -12  -6   21.50    3.70
 -11  -1   6   17.90    6.10
  -1  12   6   17.40    3.30
  12   0  -6    5.50    2.60
 -12  12  -6    2.50    2.30
   0 -12  -6    2.10    3.40
   0 -12  -6    6.60    2.70
 -12   0   6    0.40    3.40
   0  12   6    2.20    3.20
  -1 -12  -6   16.50    3.10
 -12  13  -6   23.40    3.50
  -1 -12  -6   17.00    3.90
  13  -1  -6   18.40    3.20
 -13   1   6   14.30    3.90
   1  12   6   26.50    4.40
 -12  14  -6   30.00    3.90
  -2 -12  -6   21.30    4.00
  -2 -12  -6   18.90    4.40
  14  -2  -6   27.70    3.70
   2  12   6   25.00    3.90
 -14   2   6   23.40    4.10
  15  -3  -6    9.20    2.80
  -3 -12  -6    4.30    4.30
 -12  15  -6   12.80    2.60
  -3 -12  -6    3.80    2.70
   3  12   6    6.70    3.90
 -15   3   6    7.20    3.80
 -12  16  -6   22.50    3.50
  16  -4  -6   17.50    3.10
  -4 -12  -6   14.30    3.10
   4  12   6   20.50    6.60
 -16   4   6   14.60    4.10
 -12  17  -6   -2.60    2.60
  -5 -12  -6    0.30    2.80
  17  -5  -6    2.70    2.80
  17  -5  -6    0.60    2.80
 -17   5   6    3.70    4.10
   5  12   6    3.40    4.00
 -12  18  -6    3.00    2.80
  18  -6  -6    2.30    3.00
  -6 -12  -6    0.90    2.90
  18  -6  -6    2.20    3.00
   6  12   6    3.40    4.10
 -12  19  -6    6.40    2.80
  19  -7  -6    6.10    3.40
  19  -7  -6    4.00    3.10
   7  12   6   13.30    4.50
 -12  20  -6    1.50    2.80
  20  -8  -6    6.80    3.50
   8  12   6   11.80    5.00
  20 -13  -6    5.80    3.10
  -7  20  -6   10.70    3.00
  13   7   6   16.60    4.90
  19 -13  -6   -5.70    2.80
  -6  19  -6    3.70    2.60
  13   6   6    2.50    4.10
  18 -13  -6    6.10    3.00
  -5  18  -6    7.30    2.60
  13   5   6    4.00    4.10
  -4  17  -6    1.00    2.30
  17 -13  -6   -4.60    2.60
  13   4   6    8.50    3.90
  -3  16  -6    2.00    2.30
  16 -13  -6    2.40    2.60
  13   3   6    3.20    3.80
  -2  15  -6   10.10    2.70
  15 -13  -6   11.00    2.40
  13   2   6    7.90    3.70
  14 -13  -6   11.20    2.70
  -1  14  -6   18.20    3.30
  13   1   6   12.10    3.30
  13 -13  -6    7.30    2.40
   0  13  -6    7.60    2.50
  13   0   6    7.50    3.10
  12 -13  -6   16.80    3.40
   1  12  -6   23.80    3.30
  13  -1   6   27.40    4.40
   2  11  -6    1.90    2.30
  11 -13  -6    0.60    2.00
  13  -2   6    5.70    2.90
  10 -13  -6   10.50    2.40
   3  10  -6   10.70    2.50
  13  -3   6   10.80    3.30
   4   9  -6   29.70    3.70
   9 -13  -6   27.60    3.60
  13  -4   6   29.80    4.40
   8 -13  -6    7.60    2.10
   5   8  -6    7.30    2.60
  13  -5   6    5.90    2.80
   6   7  -6   15.20    2.80
   7 -13  -6   11.80    2.50
   7 -13  -6   12.80    2.60
  13  -6   6   18.20    3.30
   6 -13  -6   -0.30    2.10
   7   6  -6    4.60    2.50
  13  -7   6    0.30    2.70
   8   5  -6   60.79    4.90
   5 -13  -6   61.69    5.10
   5 -13  -6   52.19    4.80
 -13   8  -6   51.19    5.00
   4 -13  -6    6.10    2.90
   4 -13  -6    9.30    2.40
   4 -13  -6   10.80    2.60
   9   4  -6   10.30    2.80
 -13   9  -6    8.20    2.40
 -13  10  -6   74.99    5.80
  10   3  -6   75.39    5.70
   3 -13  -6   79.69    5.90
   3 -13  -6   64.29    5.80
   2 -13  -6   -0.80    3.20
   2 -13  -6    1.10    2.50
  11   2  -6    3.70    2.80
 -13  11  -6    1.10    2.40
  -2  13   6    4.50    2.90
 -13  12  -6   24.40    3.60
  12   1  -6   16.80    3.50
   1 -13  -6   20.50    4.00
   1 -13  -6   19.40    3.90
  -1  13   6   19.30    3.60
   0 -13  -6    9.50    3.90
 -13  13  -6    5.50    2.50
   0 -13  -6    6.60    2.70
   0  13   6   10.30    3.40
  -1 -13  -6    2.00    2.40
  -1 -13  -6    5.10    4.40
  14  -1  -6    1.10    3.00
 -13  14  -6    6.10    2.60
   1  13   6   -1.20    3.30
  -2 -13  -6    2.90    2.70
  -2 -13  -6    3.90    4.50
  15  -2  -6    2.60    2.70
 -13  15  -6   -1.00    2.50
   2  13   6   -3.30    3.40
 -15   2   6    2.40    4.20
 -13  16  -6    6.50    2.60
  -3 -13  -6    6.90    2.80
  -3 -13  -6    5.00    6.60
  16  -3  -6    4.50    2.90
 -16   3   6    6.00    4.40
   3  13   6   11.90    4.20
  17  -4  -6    4.00    3.00
  -4 -13  -6    2.50    3.00
 -13  17  -6    5.70    2.60
 -17   4   6    4.40    4.50
   4  13   6    3.30    4.10
  18  -5  -6    2.80    3.00
 -13  18  -6    1.80    2.80
  18  -5  -6    5.70    3.20
  -5 -13  -6    4.20    3.20
   5  13   6    2.40    4.20
 -13  19  -6    0.50    2.80
  19  -6  -6    6.40    3.30
  19  -6  -6    2.30    3.10
   6  13   6   11.80    4.90
 -13  20  -6   -0.70    2.80
  20  -7  -6   -3.30    3.20
  20  -7  -6   -1.90    3.50
   7  13   6    4.90    5.10
  20 -14  -6   -1.80    3.10
  -6  20  -6   -1.40    2.80
  14   6   6    7.50    4.60
  -5  19  -6    4.80    2.70
  19 -14  -6    5.30    3.00
  14   5   6   -0.30    4.10
  18 -14  -6    3.70    2.70
  -4  18  -6    4.70    2.60
  14   4   6    9.40    4.30
  -3  17  -6    3.20    2.60
  17 -14  -6    4.20    2.90
  14   3   6    1.50    3.70
  16 -14  -6    2.10    2.50
  -2  16  -6   -1.00    2.40
  14   2   6    0.60    4.00
  15 -14  -6   -2.40    2.50
  -1  15  -6    2.50    2.20
  14   1   6    3.50    3.30
   0  14  -6    2.20    2.40
  14 -14  -6   -3.90    2.10
  14   0   6   -0.70    3.00
   1  13  -6   -2.30    2.20
  13 -14  -6    3.20    2.20
  14  -1   6    1.50    2.90
  12 -14  -6   30.50    4.00
   2  12  -6   33.90    3.90
  14  -2   6   30.10    4.60
  11 -14  -6    7.60    2.40
   3  11  -6    8.10    2.50
  14  -3   6    3.20    3.10
  10 -14  -6   61.69    5.00
   4  10  -6   62.19    5.20
  14  -4   6   53.19    5.90
   5   9  -6    5.50    2.50
   9 -14  -6    6.90    2.10
  14  -5   6    7.90    2.90
   6   8  -6   53.09    5.00
   8 -14  -6   52.09    4.80
  14  -6   6   62.69    5.60
   7 -14  -6    2.20    2.10
   7   7  -6    1.90    2.40
  14  -7   6    3.10    2.70
   6 -14  -6    4.10    2.40
   8   6  -6    9.90    2.90
  14  -8   6   10.20    3.00
 -14   9  -6    3.20    2.40
   5 -14  -6    2.50    2.80
   9   5  -6    1.30    2.70
   5 -14  -6    0.10    2.10
   4 -14  -6   18.80    3.40
  10   4  -6   24.70    3.90
 -14  10  -6   26.70    3.70
   4 -14  -6   20.70    3.90
   4 -14  -6   21.70    3.80
   3 -14  -6    7.60    3.30
 -14  11  -6    8.20    2.60
  11   3  -6    5.50    2.90
   3 -14  -6    1.30    2.40
  12   2  -6    4.50    2.90
   2 -14  -6    9.50    2.90
   2 -14  -6   10.10    3.70
 -14  12  -6   13.70    2.70
  -2  14   6   10.80    3.20
 -14  13  -6   18.50    3.50
  13   1  -6   14.70    3.30
   1 -14  -6    8.70    2.90
   1 -14  -6   15.00    4.00
  -1  14   6   12.70    3.50
   0 -14  -6    3.10    4.10
   0 -14  -6    1.30    2.60
 -14  14  -6    2.10    2.60
  14   0  -6    4.10    2.80
   0  14   6    4.50    3.40
  -1 -14  -6   13.70    4.30
  -1 -14  -6    8.80    2.80
  15  -1  -6    9.20    3.10
 -14  15  -6   18.90    3.60
   1  14   6    8.30    3.60
  -2 -14  -6    7.90    4.60
 -14  16  -6    2.70    2.60
  16  -2  -6    4.20    3.70
  -2 -14  -6    3.70    2.90
   2  14   6    3.80    4.30
  17  -3  -6    7.80    4.20
  -3 -14  -6    5.60    3.20
 -14  17  -6    2.30    2.60
   3  14   6    4.00    4.90
  18  -4  -6    3.90    3.70
  -4 -14  -6    2.40    3.30
 -14  18  -6    7.50    2.70
   4  14   6    0.20    4.30
  19  -5  -6   17.30    3.90
 -14  19  -6   15.70    3.30
  -5 -14  -6   15.80    3.70
   5  14   6   25.20    5.00
  20  -6  -6   -0.30    3.70
  20  -6  -6    4.30    3.40
 -14  20  -6    3.70    3.10
   6  14   6    6.60    5.20
  -4  19  -6    3.50    2.70
  19 -15  -6    3.10    2.80
  15   4   6    4.60    4.30
  18 -15  -6    1.30    2.90
  -3  18  -6    3.20    2.70
  15   3   6    3.40    4.10
  -2  17  -6   30.00    4.00
  17 -15  -6   28.20    4.20
  15   2   6   22.00    4.40
  16 -15  -6    7.20    2.60
  -1  16  -6    7.80    2.80
  15   1   6   10.30    4.00
  15 -15  -6   54.39    5.00
   0  15  -6   53.29    4.90
  15   0   6   49.10    5.70
   1  14  -6   11.70    2.80
  14 -15  -6   12.50    2.70
  15  -1   6   11.90    3.50
   2  13  -6    2.00    2.50
  13 -15  -6    1.60    2.30
  15  -2   6    5.60    2.90
  12 -15  -6    9.40    2.40
   3  12  -6   12.40    2.80
  15  -3   6   14.60    3.40
  11 -15  -6    6.40    2.30
   4  11  -6    6.40    2.60
  15  -4   6    4.70    3.30
  10 -15  -6    7.30    2.30
   5  10  -6    5.80    2.70
  15  -5   6    4.20    3.10
   6   9  -6   30.50    4.10
   9 -15  -6   23.90    3.60
  15  -6   6   26.50    4.30
   8 -15  -6    3.30    2.30
   7   8  -6    9.70    2.90
  15  -7   6   10.80    3.10
   8   7  -6    1.90    2.70
   7 -15  -6   -0.70    2.20
  15  -8   6    3.10    3.00
   6 -15  -6    6.00    2.50
   9   6  -6    7.30    2.80
  15  -9   6    6.50    3.20
   5 -15  -6   25.20    3.90
 -15  10  -6   23.90    3.80
   5 -15  -6   21.20    3.80
  10   5  -6   28.20    4.10
   4 -15  -6   -0.80    3.30
 -15  11  -6    7.50    2.60
  11   4  -6    4.80    2.70
  12   3  -6   11.70    3.20
   3 -15  -6    8.00    2.90
   3 -15  -6    5.70    3.60
 -15  12  -6   13.10    2.80
  -3  15   6   12.90    3.30
 -15  13  -6   10.80    2.80
   2 -15  -6    8.10    3.10
  13   2  -6   13.70    3.40
   2 -15  -6    4.70    3.90
  -2  15   6    8.70    3.50
   1 -15  -6    0.50    2.70
   1 -15  -6   -3.10    4.20
  14   1  -6    3.90    3.00
 -15  14  -6    5.90    2.60
  -1  15   6    8.40    3.50
   0 -15  -6   45.10    5.10
 -15  15  -6   47.30    4.80
   0 -15  -6   41.40    7.80
  15   0  -6   42.90    4.70
   0  15   6   46.50    5.70
  16  -1  -6    5.40    3.00
 -15  16  -6    3.00    2.80
  -1 -15  -6    5.80    2.90
   1  15   6    1.60    4.00
 -15  17  -6    9.40    3.00
  -2 -15  -6   11.90    3.40
  17  -2  -6   11.10    3.50
   2  15   6   14.60    4.50
  18  -3  -6   24.40    4.60
 -15  18  -6   30.50    4.20
  -3 -15  -6   20.80    3.90
   3  15   6   25.00    5.40
  19  -4  -6    2.60    3.90
 -15  19  -6    5.40    3.00
  -4 -15  -6    2.10    3.30
   4  15   6    5.80    4.60
  -3  19  -6   14.90    3.10
  19 -16  -6    6.00    2.90
  16   3   6    6.90    4.60
  18 -16  -6   11.60    3.20
  -2  18  -6   14.40    3.00
  16   2   6   11.00    4.10
  -1  17  -6   21.30    4.00
  17 -16  -6   15.70    3.10
  16   1   6   28.80    5.40
   0  16  -6   10.10    3.00
  16 -16  -6   10.00    2.80
  16   0   6    4.80    3.60
  15 -16  -6    6.20    2.50
   1  15  -6    6.20    2.70
  16  -1   6    6.20    3.20
   2  14  -6    6.50    2.70
  14 -16  -6    7.10    2.40
  16  -2   6    1.10    3.20
  13 -16  -6    8.90    2.50
   3  13  -6    7.00    2.70
  16  -3   6   14.10    3.40
   4  12  -6   19.00    3.30
  12 -16  -6   16.00    2.80
  16  -4   6   27.00    4.80
  11 -16  -6    1.30    2.30
   5  11  -6    6.60    2.60
  16  -5   6    5.20    3.30
  10 -16  -6   18.40    3.50
   6  10  -6   25.40    4.10
  16  -6   6   30.60    4.80
   7   9  -6    2.90    2.80
   9 -16  -6    2.10    2.30
  16  -7   6    7.30    3.20
   8   8  -6   -2.20    2.70
   8 -16  -6    2.20    2.10
  16  -8   6    6.10    3.00
   9   7  -6   23.50    4.20
   7 -16  -6   23.10    3.70
  16  -9   6   28.40    4.10
  10   6  -6   11.50    3.30
   6 -16  -6    6.10    2.40
 -16  11  -6    5.10    2.60
   5 -16  -6    1.70    2.70
  11   5  -6    3.40    3.00
 -16  12  -6   11.40    2.80
  12   4  -6    9.30    3.20
   4 -16  -6    8.10    2.90
   3 -16  -6   -0.80    2.60
  13   3  -6    2.00    3.10
 -16  13  -6    3.50    2.70
  -3  16   6    5.90    3.20
   2 -16  -6   -1.70    2.60
 -16  14  -6    2.30    2.70
  14   2  -6    4.80    3.10
  -2  16   6   -0.50    3.50
   1 -16  -6    6.80    3.00
 -16  15  -6   11.10    3.10
  15   1  -6    8.60    3.10
  -1  16   6   11.20    3.60
   0 -16  -6    8.30    3.10
 -16  16  -6    8.10    3.00
  16   0  -6    5.20    3.20
   0  16   6    2.20    3.70
  -1 -16  -6   14.00    3.40
  17  -1  -6   16.40    3.80
 -16  17  -6   17.20    3.30
   1  16   6   12.80    4.90
  18  -2  -6   21.80    4.20
  -2 -16  -6   18.40    3.90
 -16  18  -6   11.30    3.20
   2  16   6   23.00    6.20
  -3 -16  -6    5.30    3.50
  19  -3  -6    6.50    3.90
 -16  19  -6   12.70    3.30
   3  16   6   12.00    4.80
  -1  18  -6    9.00    3.10
  18 -17  -6   11.00    3.10
  17   1   6   11.50    4.10
   0  17  -6   67.29    5.90
  17 -17  -6   69.79    6.00
  17   0   6   67.09    7.00
   1  16  -6   22.20    4.00
  16 -17  -6   11.40    2.80
  17  -1   6    9.10    3.80
   2  15  -6   15.10    3.60
  15 -17  -6   11.00    2.80
  17  -2   6   16.80    3.60
  14 -17  -6    3.70    2.40
   3  14  -6    3.40    2.80
  17  -3   6    8.90    3.20
   4  13  -6    8.10    2.80
  17  -4   6    7.40    3.30
   5  12  -6    0.30    2.80
  12 -17  -6   -2.90    2.10
  17  -5   6    3.60    3.40
  11 -17  -6    5.00    2.50
   6  11  -6    9.80    3.10
  17  -6   6    7.90    3.60
  10 -17  -6   -5.40    2.20
   7  10  -6   -0.20    2.80
  17  -7   6    2.00    3.10
   8   9  -6   12.90    3.30
   9 -17  -6    7.10    2.50
  17  -8   6   15.50    3.50
   8 -17  -6    5.00    2.30
   9   8  -6    6.70    3.10
  17  -9   6    8.20    3.20
   7 -17  -6   -0.80    2.40
  10   7  -6    0.30    3.00
  17 -10   6   -3.10    3.10
 -17  11  -6    3.40    2.80
   6 -17  -6    3.20    2.70
  11   6  -6    4.40    3.20
   5 -17  -6   -0.60    2.60
 -17  12  -6   -0.10    2.60
  12   5  -6   -0.30    3.20
 -17  13  -6   -1.80    2.70
  13   4  -6    1.00    3.20
   4 -17  -6    0.40    2.80
   3 -17  -6    1.80    2.80
 -17  14  -6    1.90    2.90
  14   3  -6    1.30    3.20
  15   2  -6   23.40    3.80
   2 -17  -6   21.60    3.70
 -17  15  -6   27.90    4.30
  -2  17   6   35.70    5.20
   1 -17  -6   17.20    3.60
  16   1  -6   14.40    3.60
 -17  16  -6   26.90    4.30
  -1  17   6   16.50    4.30
  17   0  -6   58.89    5.90
 -17  17  -6   68.69    5.80
   0 -17  -6   55.59    6.20
   0  17   6   53.79    7.10
  -1 -17  -6   44.70    6.00
  18  -1  -6   41.50    5.50
 -17  18  -6   54.39    5.40
   1  17   6   45.10    7.10
  17 -18  -6   47.30    5.00
   1  17  -6   43.40    5.00
  18  -1   6   45.30    6.10
  16 -18  -6   17.40    3.30
   2  16  -6   28.40    4.20
  18  -2   6   15.10    3.90
   3  15  -6   34.90    4.50
  18  -3   6   25.60    5.10
  14 -18  -6    0.40    2.40
   4  14  -6    0.80    3.30
  18  -4   6    8.20    3.30
   5  13  -6    6.80    3.10
  18  -5   6    8.40    3.50
  12 -18  -6   -1.80    2.30
   6  12  -6    2.40    2.90
  18  -6   6    3.60    3.60
  11 -18  -6   -5.30    2.10
   7  11  -6    0.30    3.00
  18  -7   6    0.70    3.30
  10 -18  -6   -0.90    2.30
   8  10  -6   -0.70    3.40
  18  -8   6    5.70    3.30
   9 -18  -6   13.60    2.70
   9   9  -6   15.90    3.80
  18  -9   6   25.30    4.90
   8 -18  -6   -2.90    2.40
  10   8  -6   -2.80    3.10
  18 -10   6   -3.50    3.30
  11   7  -6   25.00    4.10
   7 -18  -6   24.80    4.10
  18 -11   6   19.80    4.30
   6 -18  -6    2.40    2.60
  12   6  -6    2.90    3.40
 -18  12  -6    0.10    2.70
 -18  13  -6   13.10    3.20
  13   5  -6   12.60    3.50
   5 -18  -6    5.30    2.80
   4 -18  -6    2.60    3.00
  14   4  -6    1.90    3.30
 -18  14  -6   11.30    3.10
 -18  15  -6    7.00    3.10
   3 -18  -6   -2.60    3.00
  15   3  -6   -2.00    3.20
   2 -18  -6   11.70    3.40
 -18  16  -6    8.90    3.20
  16   2  -6    9.00    3.50
  -2  18   6   15.00    4.80
  17   1  -6   10.60    3.70
 -18  17  -6   10.90    3.30
   1 -18  -6    2.80    3.30
  -1  18   6    6.20    4.30
   3  16  -6   13.80    3.50
  16 -19  -6    7.10    2.80
  19  -3   6   13.00    3.90
  15 -19  -6   -1.90    2.50
   4  15  -6    5.70    3.20
  19  -4   6    4.70    3.40
   5  14  -6   18.30    3.50
  14 -19  -6   12.80    3.00
  13 -19  -6    1.80    2.30
   6  13  -6    8.30    3.20
  19  -6   6   11.50    3.80
   7  12  -6    4.30    3.40
  12 -19  -6    2.00    2.60
  19  -7   6    7.20    3.80
   8  11  -6    4.90    3.40
  11 -19  -6    5.90    2.40
  19  -8   6   11.20    3.60
   9  10  -6   -0.10    3.10
  10 -19  -6   -2.50    2.30
  19  -9   6    7.70    3.50
  10   9  -6   -1.80    3.20
   9 -19  -6   -4.20    2.50
  19 -10   6    5.20    3.40
   8 -19  -6    6.60    2.80
  11   8  -6   10.20    3.60
  19 -11   6    5.60    3.60
  12   7  -6    0.20    3.40
   6 -19  -6   -3.90    2.60
  13   6  -6    2.20    3.50
 -19  13  -6   -0.70    3.00
   5 -19  -6   -4.50    3.00
 -19  14  -6   10.80    3.10
  14   5  -6    3.20    3.40
  15   4  -6    3.50    3.50
   4 -19  -6    3.10    3.10
 -19  15  -6   11.90    3.30
 -19  16  -6    6.10    3.20
  16   3  -6    6.50    3.50
   3 -19  -6    3.40    3.40
  14 -20  -6    0.30    2.50
   6  14  -6    1.30    3.50
  20  -6   6   11.80    3.90
   7  13  -6    1.10    3.40
  13 -20  -6    3.60    2.40
  20  -7   6    5.70    3.90
  12 -20  -6    0.00    2.40
   8  12  -6    3.20    3.50
  20  -8   6    2.50    3.80
   9  11  -6   -6.20    3.30
  20  -9   6    2.20    3.50
  10  10  -6   -1.00    3.40
  10 -20  -6    2.00    2.70
  20 -10   6    1.10    3.60
   9 -20  -6   13.90    3.00
  11   9  -6   12.20    4.20
  20 -11   6   30.30    5.60
   8 -20  -6    1.70    2.80
  12   8  -6    7.30    3.70
  20 -12   6    4.10    3.70
  13   7  -6   10.90    3.70
 -20  13  -6   15.80    3.60
   7 -20  -6   12.60    3.00
 -20  14  -6    4.40    3.20
   6 -20  -6   -5.20    2.90
  14   6  -6   -2.80    3.10
   0   0  -7  366.56   22.00
   0   0  -7  362.46   21.50
  -1   0  -7   35.90    4.30
   1  -1  -7   40.40    4.40
   0   1  -7   36.20    4.70
   0   1  -7   32.20    5.00
   1  -1  -7   31.80    5.10
   1  -1  -7   30.80    5.60
  -1   1  -7   35.70    4.20
  -1   1  -7   34.70    4.50
   0  -1  -7   36.00    4.50
   1   0  -7   38.60    5.10
   0  -1  -7   30.80    4.30
   1   0  -7   32.90    4.30
  -1   2  -7   13.10    3.00
   2  -1  -7   13.30    3.90
  -1  -1  -7   14.50    3.40
  -1   2  -7   17.80    3.10
  -1  -1  -7   13.20    2.80
   2  -1  -7   16.50    3.10
   2  -1  -7    9.60    2.80
  -1   3  -7   23.80    3.90
  -2  -1  -7   16.70    2.80
   3  -2  -7   19.80    3.60
  -1   3  -7   16.80    3.20
   3  -2  -7   25.20    4.10
   3  -2  -7   15.50    3.90
   2  -2  -7   79.49    5.90
  -2   0  -7   73.69    5.90
   0   2  -7   52.39    7.90
   0   2  -7   76.29    6.00
  -2   0  -7   84.09    6.20
   2  -2  -7   77.79    6.10
   2  -2  -7   69.39    6.80
  -2   1  -7   14.90    2.70
   1  -2  -7   15.80    3.80
   1   1  -7    9.70    2.90
  -2   1  -7   14.40    3.10
   1  -2  -7    9.00    2.80
   1  -2  -7   15.40    2.90
   0  -2  -7   81.89    6.30
   0  -2  -7   77.29    6.60
  -2   2  -7   80.79    6.20
   2   0  -7   73.29    6.00
  -2   2  -7   72.59    6.10
   0  -2  -7   84.69    7.00
   2   0  -7   72.09    6.30
   3  -1  -7    4.00    2.60
  -1  -2  -7    4.90    2.30
   3  -1  -7    4.10    3.70
  -2   3  -7    6.70    2.60
  -1  -2  -7    9.20    3.00
  -2   3  -7    6.30    2.50
   3  -1  -7    7.00    2.70
  -2  -2  -7    2.30    4.20
   4  -2  -7    3.60    3.50
  -2   4  -7   -1.70    2.30
  -2   4  -7    3.90    2.60
  -2  -2  -7    2.30    2.10
   4  -2  -7   -0.60    2.40
   4  -2  -7   -2.10    2.40
  -3  -2  -7   17.00    2.90
  -2   5  -7   20.30    3.90
   5  -3  -7   16.00    4.00
  -3  -2  -7   24.10    4.30
   5  -3  -7   18.20    2.90
   5  -3  -7   19.30    3.40
  -1   4  -7    3.50    2.60
   4  -3  -7   -1.70    2.40
   4  -3  -7   -0.50    2.30
   4  -3  -7   -1.00    3.60
  -3  -1  -7    1.60    2.80
  -3  -1  -7    1.50    2.30
   3  -3  -7    1.50    3.60
   3  -3  -7    3.30    2.60
  -3   0  -7    3.00    2.30
  -3   0  -7    6.20    2.70
   0   3  -7    4.40    2.80
   3  -3  -7    4.00    2.50
   1   2  -7    1.30    2.50
  -3   1  -7    6.60    2.80
   1   2  -7    6.60    2.60
   2  -3  -7    5.20    2.60
   2  -3  -7    4.50    3.50
   2  -3  -7    3.70    2.60
  -3   1  -7    3.60    2.30
  -3   2  -7   19.30    3.70
  -3   2  -7   23.00    4.10
   1  -3  -7   17.50    3.10
   1  -3  -7   16.10    3.00
   1  -3  -7   22.30    4.00
   2   1  -7   14.30    3.20
  -3   3  -7    7.20    2.50
   3   0  -7   -0.80    2.50
   3   0  -7    0.60    2.40
   0  -3  -7    5.30    2.80
  -3   3  -7    0.50    2.50
   0  -3  -7    4.80    3.50
  -3   4  -7   14.90    2.90
  -1  -3  -7   16.40    3.10
  -1  -3  -7   14.30    2.70
  -1  -3  -7   14.40    4.40
   4  -1  -7   12.90    3.10
   4  -1  -7   14.50    2.70
  -3   4  -7   19.10    3.70
   4  -1  -7   12.70    3.90
  -2  -3  -7    5.70    2.90
   5  -2  -7    4.00    2.70
  -3   5  -7    9.80    2.80
  -3   5  -7    4.20    2.40
  -2  -3  -7    2.00    2.30
   5  -2  -7    0.50    2.30
   5  -2  -7    3.00    4.00
   6  -3  -7    4.70    3.80
  -3  -3  -7    3.10    3.60
   6  -3  -7    0.30    2.30
  -3  -3  -7    2.40    2.30
   6  -3  -7    5.40    2.70
  -3   6  -7    3.20    2.70
   7  -4  -7   -0.20    2.30
   7  -4  -7    2.80    3.60
   7  -4  -7   -5.70    2.50
  -3   7  -7    7.30    2.80
  -4  -3  -7    1.70    2.90
  -4  -3  -7    3.00    2.20
   6  -4  -7   14.10    3.80
  -4  -2  -7   15.20    2.70
   6  -4  -7   10.80    2.80
  -4  -2  -7   15.70    3.10
   6  -4  -7   10.90    2.60
  -2   6  -7   16.80    3.10
   5  -4  -7    3.70    3.40
   5  -4  -7    3.60    2.60
  -4  -1  -7    3.80    2.90
   5  -4  -7    1.90    2.50
  -1   5  -7    4.90    2.60
  -4  -1  -7    3.90    2.50
   4  -4  -7   -0.50    3.50
  -4   0  -7    0.20    2.80
  -4   0  -7    2.20    2.30
   4  -4  -7    0.20    2.50
   0   4  -7    0.80    2.50
   4  -4  -7   -2.20    2.30
   1   3  -7   12.70    2.90
   3  -4  -7   15.60    3.00
  -4   1  -7   14.10    2.70
   3  -4  -7   11.40    2.80
   3  -4  -7   12.20    3.80
  -4   1  -7   19.70    3.40
   2  -4  -7   -0.70    3.50
  -4   2  -7    1.00    2.20
   2   2  -7    1.80    2.50
   2   2  -7   -0.90    2.40
   2  -4  -7   -0.20    2.50
   2  -4  -7   -3.80    2.20
  -4   2  -7    2.00    2.60
   1  -4  -7   -0.30    2.70
   1  -4  -7    0.00    3.40
  -4   3  -7    2.20    2.80
  -4   3  -7   -0.20    2.40
   3   1  -7   -0.10    2.40
   1  -4  -7    0.80    2.40
   0  -4  -7    2.40    3.50
  -4   4  -7    3.80    2.60
   0  -4  -7   -2.70    3.90
   4   0  -7   -3.30    2.60
   0  -4  -7   -1.40    2.40
   4   0  -7   -1.10    2.30
  -4   4  -7    2.30    2.20
   5  -1  -7   35.70    5.60
  -1  -4  -7   37.00    5.40
  -1  -4  -7   36.10    4.80
  -4   5  -7   35.50    4.30
  -1  -4  -7   40.40    4.60
   5  -1  -7   27.60    4.50
   5  -1  -7   33.80    3.80
  -4   5  -7   35.70    4.50
  -2  -4  -7    6.80    3.10
   6  -2  -7    6.00    2.50
  -2  -4  -7    7.90    2.50
  -4   6  -7    6.00    2.60
   6  -2  -7   11.90    3.60
   6  -2  -7    7.40    2.90
  -3  -4  -7   32.30    5.80
   7  -3  -7   31.00    3.80
  -4   7  -7   27.20    4.20
   7  -3  -7   32.30    4.60
  -3  -4  -7   33.80    4.10
   7  -3  -7   35.10    5.70
  -4  -4  -7   13.90    2.70
   8  -4  -7   12.50    3.90
  -4  -4  -7   12.70    3.40
  -4   8  -7   14.70    3.00
   8  -4  -7    9.50    2.60
   8  -4  -7   14.00    3.00
  -4   9  -7   13.40    3.10
  -5  -4  -7   10.40    2.80
   9  -5  -7    6.50    3.10
   9  -5  -7    9.50    4.00
   9  -5  -7   13.00    2.70
   5   4   7    6.10    3.80
   8  -5  -7    0.90    2.50
  -3   8  -7    1.80    2.50
  -5  -3  -7    0.00    2.30
   8  -5  -7   -1.70    2.30
   8  -5  -7    0.40    3.70
  -2   7  -7   13.50    2.90
   7  -5  -7    9.90    2.60
   7  -5  -7    8.00    3.80
  -5  -2  -7   13.90    3.20
  -5  -2  -7   10.40    2.40
   7  -5  -7    8.10    2.80
  -1   6  -7   10.90    2.90
   6  -5  -7    7.20    3.70
  -5  -1  -7   13.40    2.60
  -5  -1  -7   15.90    3.10
   6  -5  -7   10.90    2.80
   6  -5  -7    9.70    2.60
   0   5  -7    2.50    2.50
  -5   0  -7    0.90    2.30
  -5   0  -7    1.10    2.80
   5  -5  -7   -2.20    2.40
   5  -5  -7    2.90    3.50
   5  -5  -7   -0.10    2.60
  -5   1  -7   47.30    4.80
  -5   1  -7   35.40    4.20
   4  -5  -7   37.60    5.40
   4  -5  -7   37.50    4.40
   1   4  -7   37.60    4.40
   4  -5  -7   34.10    4.30
   2   3  -7    4.70    2.60
  -5   2  -7    6.50    2.80
   3  -5  -7    1.10    3.50
   3  -5  -7    3.80    2.70
  -5   2  -7    4.80    2.20
   3  -5  -7    0.00    2.30
   3   2  -7   17.40    3.50
   2  -5  -7   20.10    3.80
   2  -5  -7   24.00    4.30
  -5   3  -7   22.70    3.50
   2  -5  -7   25.00    3.90
  -5   3  -7   24.70    3.70
   1  -5  -7    5.70    2.90
   4   1  -7    7.50    4.60
   1  -5  -7    5.20    3.40
   1  -5  -7    0.80    2.30
   4   1  -7    5.10    2.70
  -5   4  -7    1.50    2.30
  -5   4  -7    2.70    2.70
   0  -5  -7    2.90    2.60
   5   0  -7   -1.20    2.30
   0  -5  -7    3.20    2.40
  -5   5  -7    2.50    2.70
  -5   5  -7    1.80    2.50
   5   0  -7   -0.90    2.60
   0  -5  -7    3.00    3.40
  -5   6  -7    8.50    2.60
  -1  -5  -7    8.20    3.00
   6  -1  -7    6.30    2.40
  -1  -5  -7    6.30    3.40
   6  -1  -7    5.50    2.90
  -5   6  -7    9.90    2.80
   6  -1  -7    6.60    3.60
   7  -2  -7    3.90    2.40
  -2  -5  -7    7.30    2.80
  -2  -5  -7   10.00    3.10
   7  -2  -7   -0.60    2.60
   7  -2  -7    4.90    3.70
  -5   7  -7    7.10    2.80
  -5   8  -7    6.20    2.70
  -3  -5  -7    4.70    2.50
   8  -3  -7    2.90    2.90
   8  -3  -7    2.50    3.80
   8  -3  -7    5.60    2.50
   9  -4  -7    2.00    2.90
  -5   9  -7    4.90    2.70
   9  -4  -7    4.20    4.10
   9  -4  -7    1.10    2.50
  -4  -5  -7    6.00    2.70
  -5  10  -7    4.50    2.60
  10  -5  -7   -0.90    2.60
  -5  -5  -7    7.10    2.60
  10  -5  -7    5.00    2.60
  10  -5  -7    4.10    3.80
   5   5   7    4.30    3.60
  11  -6  -7    6.40    2.80
  11  -6  -7    3.40    3.00
  -5  11  -7    6.50    2.90
  11  -6  -7   12.00    4.00
  -6  -5  -7    4.10    2.80
   6   5   7   13.90    3.90
  -6  -4  -7    4.70    2.60
  10  -6  -7   -0.60    2.50
  -4  10  -7    3.70    2.60
  10  -6  -7    5.00    2.60
  10  -6  -7    3.30    3.90
   6   4   7    7.90    3.40
   9  -6  -7    2.90    3.70
  -6  -3  -7    2.20    2.40
  -3   9  -7    2.80    2.70
   9  -6  -7   -2.10    2.60
   9  -6  -7    1.10    2.50
   6   3   7    1.10    3.60
  -6  -2  -7   19.40    3.70
  -2   8  -7   21.70    3.90
   8  -6  -7   17.20    3.40
   8  -6  -7   17.80    4.00
   8  -6  -7   21.40    3.30
   7  -6  -7   -3.10    2.30
  -6  -1  -7    1.50    2.10
  -1   7  -7    1.40    2.50
   7  -6  -7   -1.90    2.70
   7  -6  -7   -4.10    3.60
  -6  -1  -7   -3.80    2.90
   6  -6  -7   10.70    2.80
  -6   0  -7   10.40    2.50
   6  -6  -7   10.20    3.60
   6  -6  -7    7.60    2.60
   0   6  -7   13.00    3.00
  -6   0  -7   14.70    3.20
  -6   1  -7    7.50    2.40
   5  -6  -7    6.20    2.50
   5  -6  -7    4.80    3.50
   1   5  -7    5.10    2.60
  -6   1  -7   12.30    3.30
   5  -6  -7    4.80    2.50
   4  -6  -7    6.60    2.60
  -6   2  -7    9.00    2.40
   4  -6  -7    6.10    2.80
  -6   2  -7    8.70    3.20
   4  -6  -7    3.10    3.50
   2   4  -7    4.80    2.50
  -6   3  -7    3.60    2.20
   3  -6  -7    1.40    2.40
   3  -6  -7    5.30    3.40
   3  -6  -7    2.00    2.60
   3   3  -7    2.50    2.30
  -6   3  -7    8.70    3.00
  -6   4  -7   15.70    2.70
   2  -6  -7   14.30    3.10
   2  -6  -7   11.00    2.80
   2  -6  -7   17.50    3.90
  -6   4  -7   16.00    3.10
   4   2  -7   17.50    2.80
   1  -6  -7   11.30    2.60
  -6   5  -7   10.00    2.60
   1  -6  -7   12.00    3.20
   5   1  -7   14.20    3.50
  -6   5  -7    8.80    3.00
   1  -6  -7   14.00    3.50
   0  -6  -7    9.50    3.60
  -6   6  -7   13.60    3.20
   0  -6  -7   14.40    3.30
   6   0  -7   11.30    3.00
  -6   6  -7   11.20    2.70
   0  -6  -7   13.30    2.80
   6   0  -7   12.90    2.80
   7  -1  -7   39.80    5.00
  -1  -6  -7   43.50    5.00
  -6   7  -7   40.20    4.60
   7  -1  -7   37.60    4.10
  -6   7  -7   37.80    4.40
  -1  -6  -7   41.30    4.40
  -1  -6  -7   32.00    5.30
   7  -1  -7   29.80    5.00
   8  -2  -7   13.60    2.70
   8  -2  -7    6.30    2.90
  -2  -6  -7   15.40    3.20
  -2  -6  -7    7.80    3.60
  -6   8  -7   15.20    2.90
   8  -2  -7   10.90    4.90
   9  -3  -7   43.70    4.40
   9  -3  -7   48.10    5.30
   9  -3  -7   33.40    6.50
  -6   9  -7   53.39    4.70
  -6  10  -7    7.30    2.70
  -4  -6  -7    8.80    3.00
  10  -4  -7    5.50    2.70
  10  -4  -7    7.40    2.90
  10  -4  -7    1.30    4.10
   4   6   7    2.20    4.00
  11  -5  -7    6.00    2.80
  -6  11  -7    3.60    2.70
  11  -5  -7    2.50    2.90
  -5  -6  -7    4.90    2.80
  11  -5  -7    0.40    4.20
   5   6   7    9.10    3.90
  12  -6  -7   12.00    3.40
  12  -6  -7   18.10    3.30
  -6  -6  -7   15.60    3.10
  -6  12  -7   26.40    3.90
   6   6   7   20.10    4.40
  -7  -6  -7    4.70    2.60
  -6  13  -7   -0.70    2.60
  13  -7  -7   -1.80    2.80
  13  -7  -7    0.40    2.80
   7   6   7   -1.40    4.10
  -5  12  -7   26.60    4.00
  12  -7  -7   22.70    4.30
  -7  -5  -7   20.90    4.00
  12  -7  -7   26.20    3.80
   7   5   7   31.60    4.70
  -4  11  -7    5.90    2.70
  11  -7  -7   -1.40    2.60
  -7  -4  -7    4.20    2.80
  11  -7  -7    9.30    2.80
   7   4   7    9.80    3.60
  10  -7  -7   -1.20    2.50
  10  -7  -7    1.90    2.50
  -3  10  -7   -1.70    2.50
  10  -7  -7    0.90    3.70
  -7  -3  -7    0.90    2.40
   7   3   7    0.80    3.60
   9  -7  -7   -1.70    2.70
  -2   9  -7    4.50    2.50
  -7  -2  -7    0.80    2.30
   9  -7  -7    3.30    2.40
   9  -7  -7   -1.80    3.50
   7   2   7    0.10    3.60
   8  -7  -7   15.60    3.00
   8  -7  -7   19.70    4.00
  -1   8  -7   18.70    3.30
   8  -7  -7   17.00    2.80
  -7  -1  -7   15.40    2.70
   7  -7  -7    3.80    2.50
   0   7  -7    0.40    2.60
   7  -7  -7    4.40    3.40
   7  -7  -7   -0.50    2.30
  -7   0  -7    2.60    3.10
  -7   0  -7    4.30    2.30
   1   6  -7   34.50    4.20
   6  -7  -7   35.40    4.10
   6  -7  -7   31.90    5.40
  -7   1  -7   45.40    4.90
   6  -7  -7   35.90    4.50
  -7   1  -7   39.30    4.10
   5  -7  -7    3.50    3.60
   5  -7  -7    1.20    2.60
   2   5  -7    5.20    2.60
  -7   2  -7    9.20    3.10
   5  -7  -7    6.20    2.50
  -7   2  -7    6.90    2.50
   4  -7  -7   33.70    4.20
   3   4  -7   30.70    4.10
   4  -7  -7   28.00    4.20
  -7   3  -7   32.50    4.60
   4  -7  -7   31.60    5.10
  -7   3  -7   35.10    4.00
   3  -7  -7    1.40    2.50
   3  -7  -7    4.20    3.40
   3  -7  -7    0.70    2.40
  -7   4  -7    1.70    2.80
   4   3  -7    2.00    2.40
  -7   4  -7    2.30    2.30
   5   2  -7    9.90    2.70
   2  -7  -7   10.80    2.70
  -7   5  -7   13.90    3.10
  -7   5  -7   10.10    2.60
   2  -7  -7   11.10    3.10
   2  -7  -7   11.60    3.50
  -7   6  -7    0.60    2.30
   1  -7  -7   -2.40    3.60
  -7   6  -7   -1.00    2.70
   6   1  -7    0.20    2.50
   1  -7  -7   -0.50    2.60
   1  -7  -7    3.20    2.50
  -7   7  -7    0.00    2.30
  -7   7  -7    7.70    3.00
   7   0  -7    6.20    3.80
   0  -7  -7    3.70    3.50
   0  -7  -7    5.50    2.50
   0  -7  -7    1.90    3.00
   8  -1  -7    1.00    2.50
  -1  -7  -7    4.90    3.00
   8  -1  -7   -3.60    2.60
  -1  -7  -7   -0.70    3.70
  -7   8  -7    1.50    2.50
  -1  -7  -7    2.80    2.60
  -7   8  -7   -0.50    2.50
  -7   9  -7   19.10    3.50
   9  -2  -7   15.00    4.60
  -2  -7  -7    8.50    3.50
   9  -2  -7    9.20    3.10
  -2  -7  -7   11.40    3.00
   9  -2  -7   15.20    3.00
  10  -3  -7    5.00    2.70
  -7  10  -7    2.30    2.40
  -3  -7  -7    3.60    2.90
  10  -3  -7    2.70    4.40
  10  -3  -7    1.40    2.70
   3   7   7    2.50    4.50
  11  -4  -7    3.70    2.90
  11  -4  -7    8.90    4.60
  -7  11  -7    8.10    2.60
  11  -4  -7    5.50    3.20
  -4  -7  -7    6.60    3.70
   4   7   7   12.00    3.90
  -5  -7  -7   14.40    5.00
  12  -5  -7    8.50    4.80
  12  -5  -7   12.90    3.20
  12  -5  -7    6.90    3.10
  -7  12  -7   12.70    3.10
   5   7   7   16.10    4.10
  -7  13  -7    1.20    2.60
  13  -6  -7    2.60    2.90
  13  -6  -7    1.10    2.90
   6   7   7    1.60    4.00
  -7  14  -7    2.20    2.70
  -7  -7  -7    1.30    3.00
  14  -7  -7   -4.20    3.00
  14  -7  -7    2.40    3.00
   7   7   7   -0.50    4.30
  -8  -7  -7    2.40    2.80
  15  -8  -7    0.70    2.70
  -7  15  -7   -2.30    2.80
   8   7   7    0.90    4.20
  14  -8  -7    0.60    2.80
  -6  14  -7    6.30    2.90
  -8  -6  -7   -0.70    2.50
   8   6   7    1.50    4.30
  -8  -5  -7   32.90    4.30
  13  -8  -7   27.20    3.90
  13  -8  -7   30.80    4.80
  -5  13  -7   31.50    4.30
   8   5   7   40.30    6.00
  12  -8  -7    2.10    2.70
  12  -8  -7    0.10    2.70
  -8  -4  -7    2.80    2.50
  -4  12  -7    8.40    2.70
   8   4   7    7.30    3.90
  -3  11  -7   49.00    4.70
  -8  -3  -7   44.30    4.80
  11  -8  -7   49.80    5.40
  11  -8  -7   48.10    4.30
   8   3   7   53.59    6.20
  10  -8  -7   11.80    2.60
  10  -8  -7    5.40    2.80
  -8  -2  -7   11.00    2.50
  -2  10  -7   11.50    2.90
   8   2   7   14.70    4.00
   9  -8  -7    8.80    3.70
   9  -8  -7    8.20    2.60
  -8  -1  -7   11.00    2.50
   9  -8  -7    9.20    2.80
  -1   9  -7    8.80    2.70
   8   1   7   11.10    4.10
  -8   0  -7    4.80    2.30
   8  -8  -7    2.50    3.40
   8  -8  -7    4.70    2.50
   0   8  -7    7.80    2.90
   8  -8  -7    4.50    2.40
   8   0   7    7.60    3.90
   7  -8  -7   -1.30    2.40
  -8   1  -7    3.70    2.20
   7  -8  -7    2.20    2.60
   7  -8  -7    1.90    3.50
   1   7  -7    1.60    2.30
  -8   1  -7   -1.40    3.10
   6  -8  -7   14.60    2.70
   2   6  -7   12.60    2.90
  -8   2  -7   12.90    2.50
   6  -8  -7   11.10    3.60
   6  -8  -7    9.60    2.80
  -8   2  -7   13.50    3.40
   3   5  -7    3.00    2.60
   5  -8  -7    1.80    2.70
  -8   3  -7    3.80    2.30
   5  -8  -7    3.40    2.40
  -8   3  -7    2.40    2.90
   5  -8  -7    4.40    3.30
   4  -8  -7   10.80    3.40
   4  -8  -7   15.00    3.00
   4   4  -7   13.10    2.90
  -8   4  -7   14.40    3.40
   4  -8  -7   12.10    2.80
  -8   4  -7   14.50    2.70
   3  -8  -7    0.70    2.80
  -8   5  -7    0.90    2.30
   5   3  -7    2.20    2.50
  -8   5  -7    1.10    2.80
   3  -8  -7    4.90    2.50
   3  -8  -7    0.70    3.30
   6   2  -7   17.90    3.10
   2  -8  -7   18.60    3.90
   2  -8  -7   23.50    4.00
  -8   6  -7   22.30    4.00
   2  -8  -7   18.80    3.40
  -8   6  -7   19.20    3.70
  -8   7  -7   17.90    2.90
   7   1  -7   18.00    3.50
   1  -8  -7   11.90    3.80
   1  -8  -7   14.50    3.40
   1  -8  -7   16.10    3.00
  -8   7  -7   13.10    3.10
   8   0  -7    8.50    3.50
  -8   8  -7   10.10    2.90
  -8   8  -7    6.60    2.60
   0  -8  -7    6.70    3.90
   0  -8  -7    7.30    2.80
   0  -8  -7    9.00    3.30
  -1  -8  -7    6.00    3.10
  -1  -8  -7    8.50    3.90
   9  -1  -7    9.20    3.00
   9  -1  -7    9.10    3.10
  -1  -8  -7    7.70    3.00
  -8   9  -7    8.90    2.60
  10  -2  -7    1.50    4.80
  10  -2  -7    3.70    3.00
  -8  10  -7    2.20    2.40
  -2  -8  -7    3.00    2.90
  10  -2  -7    4.50    2.90
  -8  11  -7    4.40    2.60
  11  -3  -7    4.20    4.50
  11  -3  -7    5.10    3.00
  11  -3  -7    4.10    3.10
  -3  -8  -7    3.60    2.90
   3   8   7    5.70    4.00
  12  -4  -7   26.90    5.10
  -4  -8  -7   33.70    4.90
  12  -4  -7   34.40    4.40
  12  -4  -7   27.80    4.90
  -8  12  -7   31.60    4.30
   4   8   7   37.90    5.70
  13  -5  -7    2.90    3.00
  13  -5  -7    0.70    2.90
  -5  -8  -7    4.90    3.00
  -8  13  -7    7.00    2.80
   5   8   7    7.00    4.20
  -8  14  -7   34.30    4.30
  -6  -8  -7   22.10    4.60
  14  -6  -7   27.40    4.30
  14  -6  -7   30.40    5.00
   6   8   7   30.20    5.20
  15  -7  -7    2.50    3.00
  -7  -8  -7    3.20    2.90
  -8  15  -7    0.40    2.70
  15  -7  -7   -1.60    3.10
   7   8   7    8.00    4.70
  -8  -8  -7    3.40    3.10
  -8  16  -7   -0.30    2.80
  16  -8  -7    3.60    3.20
   8   8   7    6.30    4.40
  -7  16  -7    7.70    2.80
  -9  -7  -7    9.00    3.00
  16  -9  -7    6.10    3.30
   9   7   7   18.20    4.70
  -6  15  -7    3.40    2.80
  15  -9  -7    5.10    3.00
  -9  -6  -7    5.50    2.60
   9   6   7    5.40    4.40
  -5  14  -7    3.50    2.70
  -9  -5  -7    4.20    2.50
   9   5   7    6.60    4.20
  -4  13  -7    8.50    2.60
  -9  -4  -7    6.50    2.40
  13  -9  -7    3.30    3.10
  13  -9  -7   11.20    2.80
   9   4   7    4.50    4.20
  -3  12  -7    8.10    2.60
  12  -9  -7   11.30    2.80
  12  -9  -7    1.60    2.80
  -9  -3  -7    9.70    2.40
   9   3   7   13.40    4.20
  11  -9  -7   22.90    4.10
  -9  -2  -7   14.10    2.60
  -2  11  -7   19.30    3.60
  11  -9  -7   17.50    3.30
   9   2   7   18.80    4.30
  -1  10  -7    3.20    2.40
  10  -9  -7    1.30    2.50
  -9  -1  -7   -1.20    2.20
  10  -9  -7    0.60    2.40
   9   1   7    4.20    3.80
  -9   0  -7   16.70    3.30
   9  -9  -7   11.40    2.70
   0   9  -7   12.80    2.90
   9  -9  -7   11.80    3.10
   9   0   7   15.00    4.30
  -9   1  -7    7.90    2.40
   8  -9  -7   10.70    3.70
   1   8  -7    8.50    2.80
   8  -9  -7    6.90    2.70
   8  -9  -7    8.60    2.60
   9  -1   7   10.20    3.80
   7  -9  -7    6.60    2.70
   2   7  -7   15.60    3.20
  -9   2  -7   12.30    2.40
   7  -9  -7   12.10    2.80
   7  -9  -7   13.50    3.50
  -9   2  -7   13.50    3.50
   6  -9  -7   42.30    4.80
   6  -9  -7   39.60    4.50
   6  -9  -7   42.50    5.00
  -9   3  -7   47.70    5.20
   3   6  -7   48.50    4.60
  -9   3  -7   47.60    4.30
  -9   4  -7    1.00    2.80
   5  -9  -7    5.70    2.80
   5  -9  -7    4.40    3.30
   4   5  -7    1.10    2.60
  -9   4  -7    2.60    2.10
   5  -9  -7    6.10    2.60
   4  -9  -7   10.10    3.50
   5   4  -7   12.90    2.90
   4  -9  -7   10.30    2.80
   4  -9  -7   16.00    3.10
  -9   5  -7   12.90    2.50
  -9   5  -7   14.00    3.10
   3  -9  -7    6.00    2.50
   3  -9  -7    0.00    3.10
  -9   6  -7    2.70    2.90
   6   3  -7   -0.70    2.50
  -9   6  -7    1.30    2.20
   3  -9  -7    0.30    3.50
   7   2  -7    2.30    2.60
  -9   7  -7    0.20    2.30
   2  -9  -7    0.50    3.60
  -9   7  -7   -1.20    2.70
   2  -9  -7    1.00    2.90
   2  -9  -7    1.40    2.60
   1  -9  -7   10.20    3.80
   1  -9  -7   10.40    3.50
  -9   8  -7   12.20    2.70
   1  -9  -7    8.20    2.90
   8   1  -7   12.40    3.10
  -9   8  -7   11.60    3.00
   0  -9  -7   14.00    4.20
   0  -9  -7   18.10    3.50
  -9   9  -7   17.80    3.20
   0  -9  -7    8.70    3.00
  -9   9  -7   15.60    2.90
   9   0  -7   16.90    3.30
  -9  10  -7    6.90    2.60
  -1  -9  -7    1.90    4.30
  -1  -9  -7   11.40    3.10
  11  -2  -7   10.50    3.60
  11  -2  -7   15.10    3.50
  -2  -9  -7   13.20    3.30
  -9  11  -7   15.00    2.90
   2   9   7   14.70    4.40
  -3  -9  -7    5.60    3.30
  12  -3  -7    4.20    4.80
  -9  12  -7    9.60    2.80
  12  -3  -7    6.70    3.20
  12  -3  -7    4.00    3.10
   3   9   7    3.30    3.80
  13  -4  -7    3.70    3.20
  -4  -9  -7    2.00    3.00
  -9  13  -7    4.70    2.80
  13  -4  -7    5.80    3.00
   4   9   7    4.90    4.20
  -9  14  -7    3.10    2.70
  14  -5  -7   10.10    3.40
  14  -5  -7    3.90    3.40
  -5  -9  -7    6.40    3.10
   5   9   7    2.20    4.30
  15  -6  -7    6.60    3.20
  -6  -9  -7    4.30    3.10
  15  -6  -7   10.00    3.40
  -9  15  -7   -0.20    2.80
   6   9   7   13.20    4.70
  -9  16  -7    0.30    2.90
  -7  -9  -7    0.60    3.20
  16  -7  -7    0.60    3.10
   7   9   7   10.50    4.50
 -10  -6  -7    2.20    2.70
  -6  16  -7    4.00    2.70
  16 -10  -7   -0.40    3.20
  10   6   7    8.20    4.40
  15 -10  -7   11.10    3.30
  -5  15  -7    9.90    2.80
 -10  -5  -7   10.20    2.70
  10   5   7   19.00    4.80
  -4  14  -7    3.00    2.60
 -10  -4  -7    5.00    2.30
  14 -10  -7   -4.30    2.90
  10   4   7   14.00    4.70
  13 -10  -7   34.10    4.60
 -10  -3  -7   29.40    3.80
  -3  13  -7   29.70    4.00
  10   3   7   34.00    6.20
 -10  -2  -7    0.80    2.20
  12 -10  -7   -0.90    3.00
  12 -10  -7   -1.00    2.60
  -2  12  -7   -3.20    2.40
  10   2   7    8.10    3.80
  11 -10  -7   31.40    3.80
  11 -10  -7   42.10    4.90
  -1  11  -7   38.60    4.40
 -10  -1  -7   33.30    3.70
  10   1   7   43.90    5.80
  10 -10  -7   -2.40    2.40
   0  10  -7    0.50    2.60
 -10   0  -7    2.30    2.20
  10 -10  -7   -1.00    2.40
  10   0   7    0.70    3.80
   9 -10  -7    9.70    2.80
   9 -10  -7    4.60    2.50
   1   9  -7    7.70    3.00
 -10   1  -7    6.20    2.20
  10  -1   7   11.90    4.00
   8 -10  -7   -0.90    2.40
 -10   2  -7    0.20    2.10
   2   8  -7    1.30    2.50
   8 -10  -7    2.70    2.50
  10  -2   7    1.20    3.50
   7 -10  -7   -2.70    2.50
   3   7  -7    1.40    2.70
 -10   3  -7    2.20    3.10
 -10   3  -7    3.10    2.00
   7 -10  -7    3.90    2.40
 -10   4  -7    5.00    2.90
   6 -10  -7    9.40    3.80
 -10   4  -7    6.60    2.10
   4   6  -7    5.60    2.80
   6 -10  -7    4.20    2.70
   6 -10  -7    4.50    2.60
   5 -10  -7    4.30    3.00
 -10   5  -7    6.60    2.70
   5 -10  -7   -1.70    3.40
   5 -10  -7    6.70    2.70
   5   5  -7    3.20    2.70
 -10   5  -7    2.50    2.10
   4 -10  -7    2.40    2.60
   4 -10  -7    7.10    3.60
   4 -10  -7    3.00    2.80
 -10   6  -7    7.20    3.00
 -10   6  -7    4.50    2.20
   6   4  -7    2.60    2.70
 -10   7  -7    1.10    2.60
 -10   7  -7    0.80    2.20
   3 -10  -7    2.40    3.60
   3 -10  -7    1.40    2.60
   3 -10  -7    1.00    3.00
   7   3  -7    1.90    2.70
 -10   8  -7   22.10    4.00
   2 -10  -7    7.00    2.90
   2 -10  -7   13.10    3.40
   8   2  -7   10.80    3.00
   2 -10  -7   11.70    4.00
 -10   8  -7   13.50    2.50
   1 -10  -7    3.00    3.30
 -10   9  -7    3.80    2.40
   1 -10  -7    4.40    3.00
   9   1  -7    5.90    3.00
 -10   9  -7   -0.80    2.60
   1 -10  -7   -0.90    4.20
   0 -10  -7    3.40    3.40
   0 -10  -7    3.40    4.30
 -10  10  -7    0.50    2.60
 -10  10  -7    2.00    2.80
  10   0  -7    2.60    3.10
   0 -10  -7    6.80    3.00
  -1 -10  -7    1.40    4.80
  11  -1  -7    3.10    3.00
 -10  11  -7    7.00    2.80
  -1 -10  -7    3.70    3.10
  -2 -10  -7   19.10    3.80
  12  -2  -7   26.20    4.70
 -10  12  -7   27.30    4.00
   2  10   7   20.50    5.50
  13  -3  -7    8.00    3.20
  13  -3  -7    6.20    3.70
  -3 -10  -7    6.30    3.10
 -10  13  -7   12.60    2.80
   3  10   7    9.20    4.30
  14  -4  -7   37.10    5.40
 -10  14  -7   38.70    4.40
  -4 -10  -7   37.20    5.10
  14  -4  -7   35.60    5.00
   4  10   7   34.30    6.40
  15  -5  -7    1.80    3.20
 -10  15  -7    2.20    2.70
  -5 -10  -7    3.70    3.10
  15  -5  -7    4.80    3.30
   5  10   7    5.70    4.70
  16  -6  -7   13.00    3.60
  16  -6  -7   17.30    3.60
 -10  16  -7   17.60    3.20
  -6 -10  -7   12.80    3.60
   6  10   7   21.70    5.30
  16 -11  -7   -0.40    2.90
  -5  16  -7   -1.40    2.80
  11   5   7   12.40    4.60
  15 -11  -7   -2.40    2.70
 -11  -4  -7    1.90    3.10
  -4  15  -7   -0.30    2.70
  11   4   7    2.20    4.40
 -11  -3  -7    5.30    2.40
  14 -11  -7   -0.50    2.90
  -3  14  -7    5.80    2.90
  11   3   7   11.50    4.60
 -11  -2  -7    0.10    2.00
  -2  13  -7   -3.40    2.80
  13 -11  -7    2.20    2.90
  11   2   7   -3.30    4.10
  -1  12  -7   14.60    3.30
  12 -11  -7    7.50    2.80
 -11  -1  -7   10.00    2.20
  11   1   7   17.90    4.30
   0  11  -7   10.10    3.00
 -11   0  -7    8.10    2.00
  11 -11  -7   10.40    2.90
  11   0   7   14.00    4.00
 -11   1  -7    2.50    1.90
   1  10  -7    7.90    2.80
  10 -11  -7    1.00    2.40
  10 -11  -7    1.50    2.50
  11  -1   7    9.90    4.00
   9 -11  -7   11.60    2.80
 -11   2  -7    7.60    2.20
   2   9  -7   10.40    3.10
   9 -11  -7   10.20    2.50
  11  -2   7   17.60    4.30
   8 -11  -7    0.30    2.50
   3   8  -7    3.40    2.70
   8 -11  -7    0.30    2.40
  11  -3   7    5.60    3.70
   7 -11  -7    3.40    2.70
   7 -11  -7    3.30    2.70
   4   7  -7    7.40    2.90
 -11   4  -7    7.70    3.10
   5   6  -7    6.10    2.90
 -11   5  -7    9.40    3.20
   6 -11  -7    5.00    2.90
   6 -11  -7    7.10    2.90
   5 -11  -7    7.40    2.70
   5 -11  -7    9.80    2.90
 -11   6  -7    6.30    3.00
   6   5  -7    7.60    3.10
 -11   7  -7    2.20    2.90
   7   4  -7    6.80    3.00
   4 -11  -7    7.00    3.20
 -11   7  -7    7.90    2.30
   4 -11  -7    6.40    2.90
   3 -11  -7   53.89    5.30
 -11   8  -7   50.09    5.10
 -11   8  -7   49.70    4.50
   8   3  -7   46.00    5.00
   3 -11  -7   45.60    5.20
   2 -11  -7   15.20    3.60
   2 -11  -7   16.20    6.10
 -11   9  -7   22.70    3.70
 -11   9  -7   23.40    4.10
   9   2  -7   27.30    4.10
   2 -11  -7   14.50    3.30
   1 -11  -7   45.00    5.20
 -11  10  -7   47.90    4.70
 -11  10  -7   38.10    4.90
   1 -11  -7   48.00    5.30
   1 -11  -7   43.20    7.50
  10   1  -7   40.20    5.00
   0 -11  -7   11.40    5.40
  11   0  -7   14.90    3.50
   0 -11  -7   12.50    3.30
 -11  11  -7   10.70    2.90
 -11  11  -7   14.60    3.20
  -1 -11  -7    2.40    3.30
  -1 -11  -7   10.60    6.10
 -11  12  -7    6.40    2.80
  12  -1  -7    5.10    3.50
   1  11   7    3.90    4.20
  13  -2  -7   -2.80    3.30
  13  -2  -7    6.10    3.10
 -11  13  -7    3.10    2.50
  -2 -11  -7    1.80    3.00
  14  -3  -7    8.10    4.70
  14  -3  -7    4.50    3.30
  -3 -11  -7    8.30    3.30
 -11  14  -7    5.30    2.80
   3  11   7    7.30    4.50
  15  -4  -7    1.40    4.20
  15  -4  -7    5.60    3.30
  -4 -11  -7    0.50    3.20
 -11  15  -7   -5.20    2.80
   4  11   7   -1.70    4.70
  16  -5  -7    1.30    3.00
  -5 -11  -7    6.10    3.50
  16  -5  -7    3.00    3.50
 -11  16  -7   -0.30    3.00
   5  11   7    5.20    4.70
  -3  15  -7    3.70    2.90
  15 -12  -7    7.00    3.10
  12   3   7    8.50    4.50
  -2  14  -7    3.90    2.80
  14 -12  -7    2.30    2.80
  12   2   7    2.90    4.30
  -1  13  -7    7.20    2.90
  13 -12  -7    5.80    2.90
  12   1   7    6.70    4.30
  12 -12  -7   -0.90    2.60
   0  12  -7   -0.20    2.80
  12   0   7    5.00    3.80
  11 -12  -7    2.00    2.70
   1  11  -7    5.10    2.90
  12  -1   7    7.70    4.00
  10 -12  -7   22.10    3.90
   2  10  -7   21.40    4.20
  12  -2   7   25.90    4.60
   3   9  -7    6.60    2.90
   9 -12  -7    2.30    2.60
  12  -3   7    7.60    4.10
   8 -12  -7   31.90    3.90
   8 -12  -7   31.30    4.50
   4   8  -7   32.80    4.60
  12  -4   7   34.30    5.00
   5   7  -7   13.30    3.20
   7 -12  -7   13.10    2.90
 -12   5  -7    9.00    3.20
   7 -12  -7   11.80    2.90
   6 -12  -7   16.00    3.20
   6   6  -7   16.30    3.50
 -12   6  -7   22.80    3.60
   6 -12  -7   16.50    3.30
 -12   7  -7   28.60    4.30
   7   5  -7   23.00    4.40
   5 -12  -7   25.90    4.40
   5 -12  -7   33.00    4.30
   4 -12  -7    0.40    2.90
 -12   8  -7    3.20    3.00
   8   4  -7    6.50    3.20
   4 -12  -7    1.40    3.20
   9   3  -7   14.40    3.50
 -12   9  -7   12.90    3.30
   3 -12  -7    9.90    3.10
   3 -12  -7    7.70    3.40
  10   2  -7    3.30    3.40
   2 -12  -7    3.90    3.00
   2 -12  -7    5.60    3.60
 -12  10  -7   10.20    3.00
 -12  11  -7   12.90    3.20
   1 -12  -7   10.00    3.40
   1 -12  -7   12.40    3.70
  11   1  -7   13.40    3.60
   0 -12  -7    1.90    3.30
 -12  12  -7    5.90    2.80
  12   0  -7   -1.40    3.50
 -12  12  -7    2.60    3.00
  -1 -12  -7    7.70    3.20
 -12  13  -7    6.70    2.60
  13  -1  -7    8.20    3.70
   1  12   7    9.50    4.30
  14  -2  -7   12.00    3.90
 -12  14  -7   15.70    3.10
  -2 -12  -7   16.20    3.50
   2  12   7   11.20    5.00
  15  -3  -7   -1.80    3.40
 -12  15  -7    9.40    2.80
  -3 -12  -7    0.70    3.30
  15  -3  -7    8.50    3.50
   3  12   7    2.50    4.80
  -2  15  -7    5.60    3.10
  15 -13  -7    2.40    3.00
  13   2   7   17.30    4.90
  14 -13  -7    5.00    3.10
  -1  14  -7   10.00    3.20
  13   1   7   15.50    4.80
   0  13  -7    3.60    2.90
  13 -13  -7    0.40    2.60
  13   0   7    3.80    4.40
  12 -13  -7    7.60    2.80
   1  12  -7    9.20    3.10
  13  -1   7   13.40    4.20
  11 -13  -7   -1.40    2.70
   2  11  -7   -1.70    2.80
  13  -2   7    2.80    3.90
  10 -13  -7    8.30    3.00
   3  10  -7   12.50    3.20
  13  -3   7   12.50    3.90
   9 -13  -7    4.00    2.80
   4   9  -7    4.70    3.10
  13  -4   7   -0.50    3.80
   8 -13  -7    4.30    2.70
   5   8  -7   10.30    3.30
  13  -5   7    5.40    3.50
   6   7  -7    4.80    3.00
   7 -13  -7    2.70    2.80
 -13   6  -7    1.40    3.00
   7   6  -7    3.50    3.20
   6 -13  -7    0.90    2.70
 -13   7  -7    4.00    3.00
   6 -13  -7    2.40    3.10
   5 -13  -7   31.80    5.00
   5 -13  -7   40.70    4.70
 -13   8  -7   39.80    4.90
   8   5  -7   43.30    4.90
   4 -13  -7    7.90    3.10
   4 -13  -7    9.00    3.30
   9   4  -7   11.20    3.70
 -13   9  -7    6.40    3.10
  10   3  -7   34.00    4.90
   3 -13  -7   31.10    5.20
   3 -13  -7   37.60    5.10
 -13  10  -7   41.30    4.80
   2 -13  -7    6.00    3.70
 -13  11  -7    9.50    2.90
  11   2  -7    5.00    3.40
   2 -13  -7   -0.60    3.10
 -13  12  -7    4.70    2.90
  12   1  -7    3.30    3.60
   1 -13  -7   10.00    3.60
   0 -13  -7    2.80    3.20
 -13  13  -7   11.30    3.40
  13   0  -7    5.00    3.80
   0  13   7    4.10    4.50
  14  -1  -7    3.60    3.80
  -1 -13  -7    3.30    3.40
 -13  14  -7    3.90    2.90
   1  13   7    5.70    4.50
 -13  15  -7    4.90    2.90
  -2 -13  -7   -2.80    3.30
  15  -2  -7    3.10    3.50
   2  13   7    3.40    4.80
  14 -14  -7    3.70    2.90
   0  14  -7    6.80    3.20
  14   0   7    0.30    4.50
   1  13  -7    1.80    3.00
  13 -14  -7    1.30    2.80
  14  -1   7    4.90    4.40
   2  12  -7   13.80    3.40
  12 -14  -7   11.90    3.20
  14  -2   7   14.10    4.10
  11 -14  -7    4.30    2.90
   3  11  -7    5.40    3.20
  14  -3   7   13.10    4.00
   4  10  -7   34.20    5.10
  10 -14  -7   35.60    4.50
  14  -4   7   38.90    5.80
   9 -14  -7    5.20    2.90
   5   9  -7    7.60    3.30
  14  -5   7    7.20    3.90
   8 -14  -7   22.80    3.60
   6   8  -7   26.80    4.70
   7   7  -7    7.40    3.30
 -14   7  -7    5.40    3.10
   7 -14  -7    0.50    2.70
   6 -14  -7   -1.70    3.00
 -14   8  -7    3.50    3.10
   8   6  -7    3.90    3.40
   9   5  -7    4.30    3.60
 -14   9  -7    8.30    3.20
   5 -14  -7    2.40    2.90
  10   4  -7    4.80    3.50
 -14  10  -7    3.60    3.10
   4 -14  -7    5.80    3.20
   3 -14  -7   10.20    4.10
 -14  11  -7    9.40    3.40
   3 -14  -7    1.30    3.30
  11   3  -7    7.70    3.80
  12   2  -7   -2.90    3.60
 -14  12  -7    9.50    3.00
   2 -14  -7    3.00    3.70
   2 -14  -7    1.80    3.60
  13   1  -7   10.70    4.00
 -14  13  -7    6.30    3.20
   1 -14  -7    9.90    3.40
 -14  14  -7    3.80    3.10
   0 -14  -7    4.90    3.50
  14   0  -7    5.90    4.00
   0  14   7    7.50    4.60
  13 -15  -7   -0.80    3.00
   2  13  -7    2.80    3.20
  15  -2   7    2.30    4.30
   3  12  -7    6.80    3.40
  15  -3   7    4.70    4.00
  11 -15  -7    0.80    2.90
   4  11  -7    2.50    3.40
  15  -4   7    1.20    3.90
   5  10  -7    1.80    3.40
  10 -15  -7    1.70    2.70
  15  -5   7    1.10    3.70
   9 -15  -7    3.40    2.90
   6   9  -7    6.00    3.80
  15  -6   7    3.20    3.80
   8 -15  -7   -0.60    3.00
   7   8  -7    7.70    3.70
 -15   8  -7   -2.30    3.20
   8   7  -7    2.00    3.90
   7 -15  -7   -2.00    2.90
   9   6  -7    7.30    3.60
 -15   9  -7   13.40    3.20
   6 -15  -7    2.60    3.20
   5 -15  -7   12.80    3.50
 -15  10  -7   20.90    3.60
  10   5  -7   16.10    4.20
 -15  11  -7   -0.90    3.20
  11   4  -7   -0.20    3.90
   4 -15  -7   -6.10    3.00
  12   3  -7    1.00    3.80
 -15  12  -7   10.10    3.40
   3 -15  -7    4.50    3.60
  13   2  -7    9.90    4.10
 -15  13  -7   13.40    3.20
   2 -15  -7    5.90    3.30
   5  11  -7    5.30    3.70
  11 -16  -7   -2.10    2.90
  16  -5   7    4.80    4.00
   6  10  -7   21.20    4.00
  10 -16  -7   10.20    3.10
  16  -6   7   14.80    4.40
   7   9  -7   -7.50    3.60
   9 -16  -7   -2.10    2.90
  16  -7   7   -0.30    3.80
   8 -16  -7    0.50    2.90
   8   8  -7    2.80    3.70
 -16   8  -7   -2.00    3.50
   7 -16  -7    5.70    3.30
   9   7  -7    7.10    3.70
 -16   9  -7   13.40    3.30
 -16  10  -7    4.70    3.40
   6 -16  -7   -1.30    3.20
  10   6  -7    6.10    4.00
 -16  11  -7    3.10    3.30
   5 -16  -7   -2.40    3.50
  11   5  -7    5.80    4.10
   0   0  -8  299.87   18.20
   0   0  -8  302.57   18.20
  -1   0  -8   27.60    5.00
   0   1  -8   26.30    4.80
  -1   0  -8   29.10    5.00
   1  -1  -8   26.70    4.90
   0   1  -8   20.10    4.00
   1  -1  -8   19.40    3.80
  -1   1  -8   23.20    4.00
  -1   1  -8   31.70    5.00
   1   0  -8   17.80    3.50
   0  -1  -8   25.00    4.70
   0  -1  -8   24.70    4.30
   1   0  -8   27.80    4.70
   2  -1  -8    2.50    3.30
  -1  -1  -8    7.00    3.40
  -1   2  -8   10.90    3.80
  -1   2  -8    2.70    3.20
  -1  -1  -8    0.50    2.90
   2  -1  -8    2.50    3.30
  -1   3  -8    0.20    3.30
  -2  -1  -8    2.30    3.40
   3  -2  -8    3.30    3.30
  -2  -1  -8    4.40    3.00
   3  -2  -8    3.50    3.10
  -1   3  -8    5.80    3.30
   0   2  -8   14.00    3.40
   2  -2  -8   10.80    3.80
  -2   0  -8   13.50    3.50
   0   2  -8   12.70    3.40
  -2   0  -8   11.90    3.30
   2  -2  -8   14.40    3.50
  -2   1  -8    8.50    3.50
  -2   1  -8    3.60    3.20
   1   1  -8    1.60    3.20
   1   1  -8    1.30    3.30
   1  -2  -8    3.20    3.40
   1  -2  -8    7.70    3.30
   2   0  -8   10.50    3.60
   0  -2  -8   13.10    3.20
   0  -2  -8   13.00    3.60
  -2   2  -8   11.10    3.30
   2   0  -8   12.90    3.80
  -2   2  -8   16.70    3.80
  -1  -2  -8    3.30    2.90
   3  -1  -8    3.70    3.20
  -1  -2  -8    1.70    3.40
  -2   3  -8    2.70    3.30
  -2   3  -8    3.90    3.20
   3  -1  -8    3.80    3.30
  -2   4  -8    0.90    3.50
  -2   4  -8    4.30    3.10
  -2  -2  -8    2.00    3.60
  -2  -2  -8   -0.80    3.00
   4  -2  -8    1.70    3.00
   4  -2  -8   -1.20    3.00
   5  -3  -8    3.50    3.10
  -2   5  -8   -0.60    3.10
   5  -3  -8    4.70    3.40
  -2   5  -8    3.60    3.30
  -3  -2  -8    1.50    3.60
  -3  -2  -8    1.80    3.00
  -1   4  -8    1.40    3.30
  -1   4  -8    1.50    3.10
   4  -3  -8   -1.80    3.20
  -3  -1  -8    0.90    3.00
   4  -3  -8   -5.50    3.00
  -3  -1  -8    6.30    3.70
   0   3  -8    6.00    3.40
   3  -3  -8    3.00    3.10
   3  -3  -8    4.70    3.40
  -3   0  -8    8.00    3.10
   0   3  -8    6.10    3.50
  -3   0  -8   12.70    3.90
  -3   1  -8    3.00    3.50
   2  -3  -8    0.30    3.00
   1   2  -8    6.90    3.20
  -3   1  -8    5.60    3.00
   2  -3  -8    8.90    3.60
   1   2  -8    2.30    3.20
   2   1  -8   -0.40    3.10
  -3   2  -8    3.70    3.40
   1  -3  -8    4.10    3.50
   1  -3  -8    2.20    3.20
   2   1  -8    4.30    3.50
  -3   2  -8   -1.30    3.00
  -3   3  -8    6.90    3.00
   3   0  -8    1.90    3.20
   0  -3  -8    8.30    3.00
   0  -3  -8    7.20    3.50
   3   0  -8    4.60    3.30
  -3   3  -8    5.80    3.30
  -3   4  -8    8.00    3.20
  -1  -3  -8    5.20    3.30
   4  -1  -8    4.10    3.00
  -1  -3  -8    3.00    3.60
   4  -1  -8   -4.30    3.20
  -3   4  -8    5.60    3.50
  -2  -3  -8   -0.60    2.80
  -3   5  -8   -0.80    3.30
   5  -2  -8   -0.80    2.90
   5  -2  -8    3.90    3.30
  -2  -3  -8   -1.70    3.60
  -3   5  -8    1.80    3.30
  -3   6  -8   -0.90    3.20
  -3  -3  -8    6.40    3.60
   6  -3  -8   -0.90    3.00
  -3   6  -8   -0.30    3.60
  -3  -3  -8    2.80    3.10
   6  -3  -8   -3.20    3.10
  -3   7  -8    4.70    3.50
   7  -4  -8   -2.90    3.50
  -4  -3  -8   -1.00    3.10
   7  -4  -8    1.30    3.40
  -4  -3  -8    3.80    4.00
  -3   7  -8    2.00    3.40
   6  -4  -8   -2.20    3.40
  -2   6  -8    2.00    3.30
  -2   6  -8    1.10    3.40
  -4  -2  -8    1.10    3.10
  -4  -2  -8    5.70    3.90
   6  -4  -8   -1.30    3.20
  -1   5  -8   -1.50    3.00
  -4  -1  -8   -2.50    3.00
   5  -4  -8   -2.20    3.30
   5  -4  -8   -2.80    3.00
  -4  -1  -8    2.10    3.60
  -1   5  -8    0.50    3.30
  -4   0  -8   -1.10    3.00
  -4   0  -8    2.80    3.70
   0   4  -8   -3.00    3.40
   0   4  -8    1.90    3.20
   4  -4  -8   -3.30    3.30
   4  -4  -8    1.20    3.00
   1   3  -8    7.50    3.40
  -4   1  -8    6.30    3.30
   3  -4  -8    1.40    3.00
  -4   1  -8    8.20    3.90
   3  -4  -8    6.50    3.50
   1   3  -8    5.20    3.40
   2  -4  -8   -1.40    3.50
  -4   2  -8    1.70    2.90
   2   2  -8    0.70    3.30
   2  -4  -8    2.30    3.20
   2   2  -8   -0.10    2.90
  -4   2  -8   -1.90    3.30
  -4   3  -8   -0.80    3.20
   3   1  -8    0.90    3.00
   1  -4  -8    3.40    3.20
   3   1  -8    3.70    3.40
  -4   3  -8   -0.40    3.10
   1  -4  -8   -3.90    2.90
   0  -4  -8    0.90    3.60
  -4   4  -8   -0.40    2.90
   4   0  -8    4.30    3.40
   0  -4  -8   -1.10    3.00
  -4   4  -8   -1.00    3.20
   4   0  -8   -4.90    2.90
  -4   5  -8   17.70    3.70
  -1  -4  -8   15.50    4.20
   5  -1  -8   15.50    3.70
   5  -1  -8    9.50    3.50
  -1  -4  -8   10.80    3.40
  -4   5  -8   16.60    3.50
  -2  -4  -8    6.20    3.80
   6  -2  -8   -2.50    3.30
  -4   6  -8    0.40    3.40
  -2  -4  -8    2.60    3.20
   6  -2  -8    3.50    3.00
  -4   6  -8    6.10    3.50
   7  -3  -8    5.10    3.30
  -4   7  -8    4.10    3.50
  -4   7  -8   10.10    3.80
  -3  -4  -8   10.70    3.40
   7  -3  -8    5.60    3.80
  -3  -4  -8   12.20    4.10
   8  -4  -8    3.80    3.30
  -4   8  -8    6.80    3.40
   8  -4  -8    7.60    3.70
  -4  -4  -8    4.70    3.20
  -4  -4  -8    4.40    4.20
  -4   9  -8   -2.00    3.30
  -5  -4  -8   -2.50    3.30
   9  -5  -8    5.10    3.60
  -5  -4  -8    2.60    4.20
   9  -5  -8   -0.60    3.70
   8  -5  -8    3.40    3.30
  -5  -3  -8   -2.60    3.00
  -5  -3  -8   -3.90    4.00
  -3   8  -8   -0.60    3.50
   8  -5  -8    0.80    3.40
   7  -5  -8   -1.60    3.20
  -2   7  -8   -0.40    3.20
  -5  -2  -8    1.90    3.60
   7  -5  -8   -2.60    3.60
  -5  -2  -8    1.60    3.10
  -5  -1  -8    0.40    3.80
  -5  -1  -8    1.10    3.10
   6  -5  -8   -6.00    3.50
  -1   6  -8   -0.90    3.30
   6  -5  -8   -3.50    3.20
   0   5  -8    1.20    3.30
  -5   0  -8    1.80    3.70
   5  -5  -8   -4.10    4.80
   0   5  -8    4.50    3.50
   5  -5  -8   -3.70    2.90
  -5   0  -8    2.70    3.70
   4  -5  -8    8.70    4.40
   1   4  -8   16.30    3.60
   4  -5  -8   14.60    3.60
   1   4  -8   16.20    3.90
  -5   1  -8   16.70    4.10
   2   3  -8   -0.60    2.90
  -5   2  -8   -0.10    4.90
   2   3  -8    1.70    3.40
   3  -5  -8    1.90    3.00
  -5   2  -8    0.60    3.60
   3  -5  -8    0.00    3.50
  -5   3  -8    6.40    3.60
   2  -5  -8    0.20    3.10
   2  -5  -8    3.40    3.70
   3   2  -8    4.80    3.40
   3   2  -8    2.80    3.00
  -5   4  -8   -0.20    3.50
   4   1  -8   -4.10    2.90
   4   1  -8    0.60    3.30
   1  -5  -8   -1.50    2.90
   1  -5  -8    4.70    3.40
  -5   4  -8   -0.10    3.70
   5   0  -8    0.40    3.50
  -5   5  -8    3.30    3.40
   0  -5  -8   -2.00    3.20
   5   0  -8   -0.50    3.10
  -5   5  -8   -0.60    3.00
   0  -5  -8   -2.50    3.60
  -5   6  -8    7.10    3.40
  -1  -5  -8    2.60    3.30
   6  -1  -8    3.30    3.60
  -5   6  -8    3.90    3.40
  -1  -5  -8    0.70    3.70
   6  -1  -8    4.60    3.20
  -2  -5  -8    5.20    3.90
   7  -2  -8    1.50    3.20
   7  -2  -8    4.30    3.70
  -5   7  -8    2.00    3.60
  -5   7  -8    1.40    3.30
  -2  -5  -8    1.60    3.30
  -3  -5  -8   -4.80    3.10
  -5   8  -8   -0.60    3.30
  -5   8  -8   -1.50    3.50
  -3  -5  -8    5.30    4.00
   8  -3  -8   -5.90    3.40
   8  -3  -8    2.70    3.30
  -4  -5  -8    2.70    4.20
  -5   9  -8    2.80    3.80
   9  -4  -8   -1.70    3.60
   9  -4  -8    2.10    3.50
  -4  -5  -8    1.80    3.50
  -6  -3  -8   -0.70    4.10
  -6  -3  -8    1.10    3.10
   9  -6  -8   -2.40    3.70
  -3   9  -8    1.80    3.60
   9  -6  -8    2.90    3.40
  -6  -2  -8    3.90    4.00
   8  -6  -8    1.20    3.30
  -2   8  -8    3.40    3.70
   8  -6  -8    3.90    3.30
  -6  -2  -8   12.90    4.30
  -1   7  -8   -1.20    2.90
   7  -6  -8    0.60    3.30
  -6  -1  -8   -1.80    4.00
   7  -6  -8   -1.40    3.10
  -6   0  -8    1.20    3.90
   6  -6  -8   -1.90    3.20
   6  -6  -8   -0.30    3.00
  -6   0  -8    3.50    3.40
   0   6  -8   -1.90    3.10
   1   5  -8    1.60    3.30
  -6   1  -8    7.40    3.80
   5  -6  -8    1.10    3.30
  -6   1  -8    3.10    3.00
   5  -6  -8    2.40    3.40
  -6   2  -8    1.60    3.00
   2   4  -8    1.40    3.00
   4  -6  -8    7.70    3.20
  -6   2  -8    3.90    3.80
   4  -6  -8    2.40    3.60
   2   4  -8    6.10    3.50
   3  -6  -8   -1.20    3.20
   3   3  -8    4.40    3.50
  -6   3  -8    2.40    3.60
   3   3  -8   -1.00    3.00
  -6   3  -8    1.10    3.10
   4   2  -8    1.10    3.20
  -6   4  -8    3.20    3.00
   2  -6  -8    3.50    3.50
   2  -6  -8    0.40    3.00
   4   2  -8    5.10    3.50
  -6   4  -8    6.20    3.90
  -6   5  -8   -5.20    3.30
  -6   5  -8   -0.50    3.10
   1  -6  -8   -1.50    3.40
   1  -6  -8    0.30    3.10
   5   1  -8   -1.70    3.50
   5   1  -8    0.30    3.10
   6   0  -8    0.70    3.20
  -6   6  -8    6.60    3.50
   0  -6  -8    4.70    3.40
   6   0  -8    0.20    3.30
   0  -6  -8    4.90    4.10
  -6   7  -8   15.30    4.30
  -1  -6  -8   14.10    4.20
   7  -1  -8   12.00    3.50
  -1  -6  -8   10.50    3.60
   7  -1  -8    6.20    4.10
  -6   7  -8   12.00    3.70
   8  -2  -8    4.80    3.70
   8  -2  -8   10.20    3.30
  -2  -6  -8    1.40    3.30
  -2  -6  -8    7.30    4.10
  -6   8  -8   -1.00    3.40
  -6   8  -8    0.10    3.30
  -6   9  -8    9.20    3.70
  -3  -6  -8    6.60    4.30
   9  -3  -8   15.40    3.90
   9  -3  -8    8.70    3.90
  -3  -6  -8    4.90    3.70
  -6   9  -8    8.00    3.60
  -7  -2  -8    2.70    3.40
   9  -7  -8    2.20    3.50
  -2   9  -8   -0.40    3.40
   9  -7  -8   -1.20    3.40
  -7  -2  -8    7.50    4.10
  -1   8  -8    5.60    3.30
   8  -7  -8    4.40    3.40
   8  -7  -8    3.40    3.30
  -7  -1  -8    9.40    4.20
  -7  -1  -8    1.70    3.20
  -7   0  -8    1.20    3.00
   0   7  -8   -1.50    3.20
   7  -7  -8   -4.50    3.20
   7  -7  -8    0.90    3.50
  -7   0  -8    2.00    4.20
   6  -7  -8    7.00    3.30
   6  -7  -8    5.40    3.30
   1   6  -8   10.30    3.20
  -7   1  -8   13.30    3.30
  -7   1  -8   11.80    4.00
   5  -7  -8   -2.00    3.10
   2   5  -8   -0.10    3.20
  -7   2  -8    2.10    3.00
   5  -7  -8   -3.80    3.30
  -7   2  -8    5.10    3.70
   4  -7  -8    9.90    3.50
   4  -7  -8    5.80    3.60
  -7   3  -8    7.30    3.10
  -7   3  -8   12.00    4.00
   3   4  -8    5.50    3.40
  -7   4  -8   -1.00    3.60
  -7   4  -8    3.70    3.10
   3  -7  -8   -2.40    3.10
   3  -7  -8   -1.60    3.60
   4   3  -8    3.20    3.10
   4   3  -8    2.90    3.40
  -7   5  -8    0.80    3.90
   2  -7  -8    4.40    4.50
  -7   5  -8   -0.40    2.90
   5   2  -8    4.80    3.40
   2  -7  -8    1.70    3.20
   5   2  -8    3.20    3.60
  -7   6  -8    1.60    3.00
  -7   6  -8   -4.10    3.40
   1  -7  -8   -4.50    2.90
   6   1  -8    0.50    3.30
   1  -7  -8   -5.60    3.50
   6   1  -8    1.20    3.40
  -7   7  -8    3.30    3.40
   0  -7  -8   -0.70    3.90
   7   0  -8   -0.10    3.70
   0  -7  -8    1.80    3.30
  -7   7  -8   -0.40    3.30
   7   0  -8   -0.80    3.30
  -7   8  -8    0.90    4.00
  -7   8  -8   -2.10    3.30
   8  -1  -8    1.90    3.40
  -1  -7  -8    4.00    3.90
  -1  -7  -8   -3.60    3.30
   8  -1  -8    0.50    3.50
  -2  -7  -8    5.40    4.20
   9  -2  -8    4.20    3.80
  -2  -7  -8    0.70    3.50
  -7   9  -8    2.90    3.60
   9  -2  -8    0.50    3.40
  -7   9  -8   -2.90    4.00
   0   8  -8   -0.50    3.10
  -8   0  -8    7.30    4.20
  -8   0  -8    2.40    3.20
   8  -8  -8    7.10    3.70
   7  -8  -8   -4.10    3.30
  -8   1  -8   -4.50    2.90
  -8   1  -8    0.30    3.90
   7  -8  -8   -1.50    3.30
   1   7  -8   -1.40    3.20
  -8   2  -8    8.40    4.00
  -8   2  -8    4.70    3.00
   6  -8  -8   -2.60    3.20
   6  -8  -8   -3.10    3.20
   2   6  -8    0.10    3.40
   3   5  -8   -0.60    3.20
   5  -8  -8   -0.80    3.40
  -8   3  -8   -0.10    3.00
   5  -8  -8   -0.70    3.10
  -8   3  -8    3.90    3.90
   4  -8  -8    6.20    3.70
   4  -8  -8    4.00    3.20
   4   4  -8    6.60    3.40
  -8   4  -8    7.50    3.80
  -8   4  -8    5.50    3.20
   5   3  -8    1.10    3.20
   3  -8  -8    0.80    3.30
  -8   5  -8    2.60    3.10
   3  -8  -8   -1.00    3.90
  -8   5  -8   -5.10    3.80
   2  -8  -8    4.10    3.20
  -8   6  -8    2.70    3.90
   6   2  -8    4.50    3.40
   6   2  -8    7.50    3.60
   2  -8  -8    4.40    5.80
  -8   6  -8    2.20    3.00
   1  -8  -8    2.70    4.00
   7   1  -8    7.90    3.80
   7   1  -8    8.40    3.60
  -8   7  -8    5.10    3.20
   1  -8  -8    5.60    3.40
  -8   7  -8    4.50    3.70
  -8   8  -8   -0.60    3.40
   8   0  -8    5.60    3.60
   0  -8  -8   -0.70    3.40
   8   0  -8    1.20    3.80
   0  -8  -8   -1.10    4.20
  -8   8  -8    3.70    3.50
   2   7  -8    3.70    3.40
  -9   2  -8    1.40    4.00
   7  -9  -8   -0.60    3.40
   3   6  -8   10.40    3.60
   6  -9  -8    8.70    3.50
   6  -9  -8   11.10    4.50
  -9   3  -8   11.10    4.20
   5  -9  -8    5.90    3.40
   4   5  -8   -0.90    3.40
   5  -9  -8   -2.40    3.60
  -9   4  -8    3.70    4.00
   4  -9  -8    4.00    3.40
   5   4  -8    1.00    3.30
  -9   5  -8    2.10    3.70
   4  -9  -8    0.80    3.80
  -9   6  -8   -4.00    3.80
   3  -9  -8    3.50    3.80
   6   3  -8   -2.80    3.50
   3  -9  -8    1.50    3.40
   7   2  -8    0.90    3.50
   2  -9  -8   -0.40    3.50
   2  -9  -8    0.30    3.90
  -9   7  -8    3.90    4.50
  -9   7  -8   -2.50    3.80
   0   0   0    0.00    0.00


_computing_structure_solution     'SHELXT 2014/4 (Sheldrick, 2014)'
_computing_structure_solution     'SHELXT 2014/5 (Sheldrick, 2014)'
_computing_structure_solution     'SHELXT 2014/5 (Sheldrick, 2014)'
;
_shelx_hkl_checksum              76375
_shelx_fab_checksum              59042
_shelx_fab_file
;
   -2    3    0    -17.61      0.00
   -1    3    0     67.64      0.00
    0    3    0     15.44      0.00
   -3    4    0      4.15      0.00
   -2    4    0     12.65      0.00
   -1    4    0    -17.05      0.00
    0    4    0     48.96      0.00
   -4    5    0     72.54      0.00
   -3    5    0    -41.69      0.00
   -2    5    0    -46.08      0.00
   -1    5    0     44.79      0.00
    0    5    0     16.82      0.00
   -5    6    0    -55.57      0.00
   -4    6    0    -34.37      0.00
   -3    6    0     20.79      0.00
   -2    6    0      5.69      0.00
   -1    6    0    -46.10      0.00
    0    6    0     -3.58      0.00
   -6    7    0    -10.18      0.00
   -5    7    0    -14.40      0.00
   -4    7    0     24.32      0.00
   -2    7    0     12.70      0.00
   -1    7    0    -28.95      0.00
    0    7    0    -13.59      0.00
   -7    8    0     28.99      0.00
   -6    8    0    -19.07      0.00
   -4    8    0     41.29      0.00
   -3    8    0     20.37      0.00
   -2    8    0     -6.95      0.00
   -1    8    0      1.90      0.00
    0    8    0     17.12      0.00
   -8    9    0     14.29      0.00
   -7    9    0     21.60      0.00
   -6    9    0    -13.33      0.00
   -5    9    0    -12.03      0.00
   -4    9    0     -3.78      0.00
   -3    9    0     10.25      0.00
   -2    9    0    -24.67      0.00
   -1    9    0     -3.13      0.00
    0    9    0     17.81      0.00
   -9   10    0     -5.21      0.00
   -8   10    0     -3.26      0.00
   -7   10    0    -15.91      0.00
   -6   10    0    -12.53      0.00
   -5   10    0     20.87      0.00
   -4   10    0    -13.58      0.00
   -3   10    0    -23.17      0.00
   -2   10    0      4.43      0.00
   -1   10    0     -4.09      0.00
    0   10    0    -19.64      0.00
  -10   11    0      2.58      0.00
   -9   11    0    -18.92      0.00
   -8   11    0    -13.81      0.00
   -7   11    0     14.31      0.00
   -6   11    0     -4.10      0.00
   -5   11    0    -19.46      0.00
   -4   11    0     13.51      0.00
   -3   11    0     18.77      0.00
   -2   11    0      6.10      0.00
   -1   11    0     -2.09      0.00
    0   11    0     -2.21      0.00
  -11   12    0      0.38      0.00
  -10   12    0      4.08      0.00
   -9   12    0      4.28      0.00
   -8   12    0      5.33      0.00
   -7   12    0     -2.97      0.00
   -6   12    0      5.56      0.00
   -5   12    0     11.41      0.00
   -4   12    0      0.11      0.00
   -3   12    0      7.03      0.00
   -2   12    0      1.44      0.00
   -1   12    0     -3.38      0.00
    0   12    0     13.64      0.00
  -12   13    0      2.92      0.00
  -11   13    0     11.57      0.00
  -10   13    0      0.11      0.00
   -9   13    0    -12.81      0.00
   -8   13    0      5.11      0.00
   -7   13    0     -4.01      0.00
   -6   13    0     -5.55      0.00
   -5   13    0      9.14      0.00
   -4   13    0     -4.65      0.00
   -3   13    0     -7.90      0.00
   -2   13    0     -0.75      0.00
   -1   13    0      4.52      0.00
    0   13    0     -2.28      0.00
  -13   14    0     -1.23      0.00
  -12   14    0     -0.45      0.00
  -11   14    0     -3.28      0.00
  -10   14    0     -3.97      0.00
   -9   14    0      0.26      0.00
   -8   14    0     -0.93      0.00
   -7   14    0    -12.51      0.00
   -5   14    0     -6.82      0.00
   -4   14    0      2.97      0.00
   -3   14    0     -0.95      0.00
   -2   14    0     -4.88      0.00
   -1   14    0      7.29      0.00
    0   14    0     -2.80      0.00
  -14   15    0      2.19      0.00
  -13   15    0     -5.71      0.00
  -12   15    0      3.12      0.00
  -11   15    0     -2.19      0.00
  -10   15    0     -5.85      0.00
   -9   15    0      9.46      0.00
   -8   15    0      3.91      0.00
   -7   15    0      1.32      0.00
   -6   15    0     12.79      0.00
   -5   15    0     -2.69      0.00
   -4   15    0     -3.72      0.00
   -3   15    0      4.49      0.00
   -2   15    0      3.70      0.00
   -1   15    0     -8.51      0.00
    0   15    0     -0.15      0.00
  -15   16    0     10.17      0.00
  -14   16    0      3.81      0.00
  -13   16    0     -0.47      0.00
  -12   16    0      5.28      0.00
  -11   16    0      4.27      0.00
  -10   16    0     -1.99      0.00
   -9   16    0     -2.14      0.00
   -8   16    0      1.70      0.00
   -7   16    0      6.63      0.00
   -6   16    0      0.87      0.00
   -5   16    0      7.07      0.00
   -4   16    0      4.32      0.00
   -3   16    0     -1.54      0.00
   -2   16    0      0.13      0.00
   -1   16    0     -5.94      0.00
    0   16    0     -6.44      0.00
  -16   17    0     -0.99      0.00
  -15   17    0      4.94      0.00
  -14   17    0     -7.30      0.00
  -13   17    0      7.60      0.00
  -12   17    0      0.09      0.00
  -11   17    0     -6.16      0.00
  -10   17    0      6.40      0.00
   -9   17    0     -3.09      0.00
   -8   17    0     -8.97      0.00
   -7   17    0     -1.00      0.00
   -6   17    0      3.52      0.00
   -5   17    0     -0.64      0.00
   -4   17    0     -6.97      0.00
   -3   17    0     -3.84      0.00
   -2   17    0      2.64      0.00
   -1   17    0      8.36      0.00
    0   17    0      5.18      0.00
  -17   18    0     -7.39      0.00
  -16   18    0      3.62      0.00
  -15   18    0      4.53      0.00
  -14   18    0     -7.43      0.00
  -13   18    0     -1.00      0.00
  -12   18    0     -0.91      0.00
  -11   18    0     -1.36      0.00
  -10   18    0     -1.61      0.00
   -9   18    0      5.98      0.00
   -8   18    0      0.11      0.00
   -7   18    0     -2.86      0.00
   -6   18    0      3.51      0.00
   -5   18    0     -0.94      0.00
   -4   18    0      1.47      0.00
   -3   18    0     -2.40      0.00
   -2   18    0     -0.06      0.00
   -1   18    0      8.05      0.00
    0   18    0     11.13      0.00
  -18   19    0     -0.37      0.00
  -17   19    0     -3.70      0.00
  -16   19    0      6.51      0.00
  -15   19    0     -2.87      0.00
  -14   19    0      6.39      0.00
  -13   19    0      2.26      0.00
  -12   19    0     -3.34      0.00
  -11   19    0      5.86      0.00
  -10   19    0     -1.33      0.00
   -9   19    0      5.09      0.00
   -8   19    0     -3.77      0.00
   -7   19    0     -0.85      0.00
   -6   19    0      1.69      0.00
   -5   19    0      6.72      0.00
   -4   19    0      5.22      0.00
   -3   19    0      2.77      0.00
   -2   19    0     -0.32      0.00
   -1   19    0     -4.60      0.00
    0   19    0     -3.53      0.00
  -19   20    0      4.92      0.00
  -18   20    0     -2.71      0.00
  -17   20    0     -4.57      0.00
  -16   20    0      3.25      0.00
  -15   20    0     -5.90      0.00
  -14   20    0      2.89      0.00
  -13   20    0      6.29      0.00
  -12   20    0      1.69      0.00
  -11   20    0     -6.22      0.00
  -10   20    0      2.31      0.00
   -9   20    0     -0.05      0.00
   -8   20    0     -3.80      0.00
   -7   20    0      4.53      0.00
   -6   20    0    -10.09      0.00
   -5   20    0     -1.07      0.00
   -4   20    0      1.67      0.00
   -3   20    0      2.92      0.00
   -2   20    0      3.01      0.00
   -1   20    0     -0.53      0.00
    0   20    0     -9.71      0.00
  -20   21    0     -2.32      0.00
  -19   21    0      2.72      0.00
  -18   21    0     -2.09      0.00
  -17   21    0     -4.50      0.00
  -16   21    0     -4.63      0.00
  -15   21    0      3.37      0.00
  -14   21    0     -0.46      0.00
  -13   21    0     -5.04      0.00
  -12   21    0      4.99      0.00
  -11   21    0     -8.23      0.00
  -10   21    0     -1.01      0.00
   -9   21    0     -4.45      0.00
   -8   21    0      2.40      0.00
   -7   21    0      1.35      0.00
   -6   21    0      0.95      0.00
   -5   21    0     -0.60      0.00
   -4   21    0     -4.08      0.00
   -3   21    0     -3.15      0.00
   -2   21    0      1.31      0.00
   -1   21    0      7.70      0.00
    0   21    0      0.30      0.00
  -21   22    0     -2.23      0.00
  -20   22    0     -1.51      0.00
  -19   22    0     -0.66      0.00
  -18   22    0     -4.00      0.00
  -17   22    0      5.09      0.00
  -16   22    0      0.14      0.00
  -15   22    0     -0.86      0.00
  -14   22    0     -1.86      0.00
  -13   22    0      0.01      0.00
  -12   22    0     -0.87      0.00
  -11   22    0      2.12      0.00
  -10   22    0      3.01      0.00
   -9   22    0     -4.75      0.00
   -8   22    0      6.43      0.00
   -7   22    0     -4.55      0.00
   -6   22    0      3.63      0.00
   -5   22    0      1.40      0.00
   -4   22    0     -2.63      0.00
   -3   22    0      0.48      0.00
   -2   22    0      0.77      0.00
   -1   22    0     -1.56      0.00
    0   22    0      2.45      0.00
  -22   23    0     -0.71      0.00
  -21   23    0     -4.44      0.00
  -20   23    0      0.95      0.00
  -19   23    0      1.96      0.00
  -18   23    0     -3.96      0.00
  -17   23    0     -0.37      0.00
  -16   23    0     -0.15      0.00
  -15   23    0     -3.36      0.00
  -14   23    0     -3.24      0.00
  -13   23    0     11.04      0.00
  -12   23    0     -4.77      0.00
  -11   23    0     -1.06      0.00
  -10   23    0      5.60      0.00
   -9   23    0      3.73      0.00
   -8   23    0      2.62      0.00
   -7   23    0     -3.98      0.00
   -6   23    0     -4.88      0.00
   -5   23    0     -1.14      0.00
   -4   23    0      0.09      0.00
   -3   23    0     -6.65      0.00
   -2   23    0      3.01      0.00
   -1   23    0     -2.27      0.00
    0   23    0     -2.07      0.00
  -23   24    0     -0.82      0.00
  -22   24    0      4.92      0.00
  -21   24    0     -3.21      0.00
  -20   24    0     -2.52      0.00
  -19   24    0     -2.21      0.00
  -18   24    0      1.32      0.00
  -17   24    0     -7.40      0.00
  -16   24    0     -2.98      0.00
  -15   24    0      3.07      0.00
  -14   24    0      0.92      0.00
  -13   24    0     -2.08      0.00
  -12   24    0     -0.55      0.00
  -11   24    0      2.31      0.00
  -10   24    0     -5.32      0.00
   -9   24    0      1.30      0.00
   -8   24    0     -2.09      0.00
   -7   24    0      0.22      0.00
   -6   24    0      0.17      0.00
   -5   24    0     -5.60      0.00
   -4   24    0     -3.83      0.00
   -3   24    0      0.03      0.00
   -2   24    0     -1.60      0.00
   -1   24    0     -3.18      0.00
    0   24    0     -1.96      0.00
  -24   25    0     -2.76      0.00
  -23   25    0     -2.46      0.00
  -22   25    0      0.69      0.00
  -21   25    0     -1.37      0.00
  -20   25    0      0.86      0.00
  -19   25    0      1.63      0.00
  -18   25    0      0.46      0.00
  -17   25    0     -6.27      0.00
  -16   25    0      2.15      0.00
  -15   25    0     -0.16      0.00
  -14   25    0      4.56      0.00
  -13   25    0     -4.81      0.00
  -12   25    0     -0.72      0.00
  -11   25    0      4.82      0.00
  -10   25    0     -4.16      0.00
   -9   25    0     -0.41      0.00
   -8   25    0     -2.19      0.00
   -7   25    0     -3.38      0.00
   -6   25    0     -3.26      0.00
   -5   25    0      3.04      0.00
   -4   25    0     -4.15      0.00
   -3   25    0     -0.26      0.00
   -2   25    0      0.42      0.00
   -1   25    0     -2.23      0.00
    0   25    0      0.04      0.00
  -24   26    0     -1.42      0.00
  -23   26    0      2.78      0.00
  -22   26    0     -4.23      0.00
  -21   26    0     -4.46      0.00
  -20   26    0     -1.43      0.00
  -19   26    0      7.17      0.00
  -18   26    0     -1.83      0.00
  -17   26    0     -0.09      0.00
  -16   26    0      3.06      0.00
  -15   26    0     -0.05      0.00
  -14   26    0      1.35      0.00
  -13   26    0     -2.05      0.00
  -12   26    0     -7.40      0.00
  -11   26    0      0.11      0.00
  -10   26    0      6.08      0.00
   -9   26    0      3.37      0.00
   -8   26    0     -2.91      0.00
   -7   26    0      0.67      0.00
   -6   26    0     -1.31      0.00
   -5   26    0     -4.98      0.00
   -4   26    0     -1.09      0.00
   -3   26    0      2.39      0.00
   -2   26    0      0.20      0.00
  -23   27    0      3.33      0.00
  -22   27    0     -1.40      0.00
  -21   27    0     -3.26      0.00
  -20   27    0     -2.97      0.00
  -19   27    0     -0.17      0.00
  -18   27    0     -2.08      0.00
  -17   27    0      7.27      0.00
  -16   27    0     -1.27      0.00
  -15   27    0      0.68      0.00
  -14   27    0     -1.02      0.00
  -13   27    0     -4.55      0.00
  -12   27    0     -5.11      0.00
  -11   27    0     -0.64      0.00
  -10   27    0      4.97      0.00
   -9   27    0     -0.62      0.00
   -8   27    0      0.52      0.00
   -7   27    0      1.18      0.00
   -6   27    0      3.88      0.00
   -5   27    0     -2.32      0.00
   -4   27    0     -2.43      0.00
  -21   28    0     -1.05      0.00
  -20   28    0      4.05      0.00
  -19   28    0     -2.91      0.00
  -18   28    0     -1.08      0.00
  -17   28    0      2.59      0.00
  -16   28    0      0.54      0.00
  -15   28    0      1.39      0.00
  -14   28    0      1.81      0.00
  -13   28    0     -5.01      0.00
  -12   28    0     -3.02      0.00
  -11   28    0      1.35      0.00
  -10   28    0      8.17      0.00
   -9   28    0     -0.34      0.00
   -8   28    0     -1.78      0.00
   -7   28    0      0.62      0.00
  -18   29    0      2.50      0.00
  -17   29    0      1.82      0.00
  -16   29    0      2.22      0.00
  -15   29    0      2.13      0.00
  -14   29    0     -0.16      0.00
  -13   29    0     -6.89      0.00
  -12   29    0      0.95      0.00
  -11   29    0      9.47      0.00
    0    0    1   -198.49      0.00
    0    1    1     67.27      0.00
   -1    2    1    -16.05      0.00
    0    2    1     49.47      0.00
   -2    3    1    -19.07      0.00
   -1    3    1   -111.62      0.00
    0    3    1     28.21      0.00
   -3    4    1     39.94      0.00
   -2    4    1    -17.23      0.00
   -1    4    1     28.60      0.00
    0    4    1     27.55      0.00
   -4    5    1    -21.18      0.00
   -3    5    1     32.73      0.00
   -2    5    1     25.28      0.00
   -1    5    1     -3.06      0.00
    0    5    1     -6.75      0.00
   -5    6    1      9.12      0.00
   -4    6    1     -0.36      0.00
   -3    6    1    -15.01      0.00
   -2    6    1     -3.93      0.00
   -1    6    1     19.66      0.00
    0    6    1    -22.78      0.00
   -6    7    1    -16.61      0.00
   -5    7    1    -16.77      0.00
   -4    7    1    -30.98      0.00
   -3    7    1     17.77      0.00
   -2    7    1      3.90      0.00
   -1    7    1     -7.34      0.00
    0    7    1      1.92      0.00
   -7    8    1     10.75      0.00
   -6    8    1      5.76      0.00
   -5    8    1    -14.32      0.00
   -4    8    1     -1.25      0.00
   -3    8    1      7.46      0.00
   -2    8    1    -14.76      0.00
   -1    8    1     -9.95      0.00
    0    8    1      6.78      0.00
   -8    9    1      8.85      0.00
   -7    9    1    -10.87      0.00
   -6    9    1      9.18      0.00
   -4    9    1      7.72      0.00
   -3    9    1     -8.86      0.00
   -2    9    1      1.48      0.00
   -1    9    1     -0.60      0.00
    0    9    1     -1.18      0.00
   -9   10    1     -5.56      0.00
   -8   10    1      0.00      0.00
   -7   10    1     -1.97      0.00
   -6   10    1     -2.42      0.00
   -5   10    1    -18.74      0.00
   -4   10    1      1.35      0.00
   -3   10    1      8.64      0.00
   -2   10    1      5.77      0.00
   -1   10    1      4.83      0.00
    0   10    1      1.58      0.00
  -10   11    1     -8.80      0.00
   -9   11    1      0.66      0.00
   -8   11    1     -4.40      0.00
   -7   11    1     -8.73      0.00
   -6   11    1      6.72      0.00
   -5   11    1     15.02      0.00
   -4   11    1     -5.51      0.00
   -3   11    1     -3.65      0.00
   -2   11    1      4.37      0.00
   -1   11    1     -1.25      0.00
    0   11    1     -9.19      0.00
  -11   12    1      5.13      0.00
  -10   12    1      0.78      0.00
   -9   12    1     -1.51      0.00
   -8   12    1     -9.02      0.00
   -7   12    1     10.58      0.00
   -6   12    1     11.29      0.00
   -5   12    1     -6.04      0.00
   -4   12    1      4.36      0.00
   -3   12    1      9.13      0.00
   -2   12    1     -2.88      0.00
   -1   12    1     -6.69      0.00
    0   12    1     -1.85      0.00
  -12   13    1      5.41      0.00
  -11   13    1      3.05      0.00
  -10   13    1      1.13      0.00
   -9   13    1      6.61      0.00
   -8   13    1     -3.67      0.00
   -7   13    1      1.03      0.00
   -6   13    1      0.27      0.00
   -5   13    1     -5.86      0.00
   -4   13    1      1.28      0.00
   -3   13    1     -3.35      0.00
   -2   13    1     -0.33      0.00
   -1   13    1      1.76      0.00
    0   13    1      6.46      0.00
  -13   14    1      1.83      0.00
  -12   14    1     -2.49      0.00
  -11   14    1     -0.66      0.00
  -10   14    1      2.83      0.00
   -9   14    1     -9.98      0.00
   -8   14    1    -11.76      0.00
   -7   14    1      6.61      0.00
   -6   14    1     -0.93      0.00
   -5   14    1     -0.96      0.00
   -4   14    1    -10.49      0.00
   -3   14    1     -6.32      0.00
   -2   14    1      7.66      0.00
   -1   14    1      3.42      0.00
    0   14    1     -3.83      0.00
  -14   15    1     -7.92      0.00
  -13   15    1      4.48      0.00
  -12   15    1     -0.25      0.00
  -11   15    1     -3.43      0.00
  -10   15    1      4.16      0.00
   -9   15    1     -3.45      0.00
   -8   15    1     -6.29      0.00
   -7   15    1     -3.53      0.00
   -6   15    1     -4.65      0.00
   -5   15    1      3.48      0.00
   -4   15    1     -0.10      0.00
   -3   15    1      1.42      0.00
   -2   15    1     -1.42      0.00
   -1   15    1      0.47      0.00
    0   15    1     -3.39      0.00
  -15   16    1     -8.32      0.00
  -14   16    1      6.42      0.00
  -13   16    1      4.72      0.00
  -12   16    1     -5.28      0.00
  -11   16    1      0.38      0.00
  -10   16    1      4.72      0.00
   -9   16    1      4.49      0.00
   -8   16    1      4.90      0.00
   -7   16    1     -5.46      0.00
   -6   16    1      2.06      0.00
   -5   16    1      3.47      0.00
   -4   16    1     -0.71      0.00
   -3   16    1     -2.89      0.00
   -2   16    1     -4.43      0.00
   -1   16    1     -0.35      0.00
    0   16    1      7.18      0.00
  -16   17    1      7.43      0.00
  -15   17    1     -2.59      0.00
  -14   17    1     10.18      0.00
  -13   17    1     -1.43      0.00
  -12   17    1     -4.51      0.00
  -11   17    1     -1.85      0.00
  -10   17    1     -2.85      0.00
   -9   17    1      2.51      0.00
   -8   17    1      2.02      0.00
   -7   17    1     -1.13      0.00
   -6   17    1     -2.10      0.00
   -5   17    1      4.53      0.00
   -4   17    1      8.36      0.00
   -3   17    1     -3.62      0.00
   -2   17    1     -7.44      0.00
   -1   17    1      1.51      0.00
    0   17    1      2.37      0.00
  -17   18    1      6.23      0.00
  -16   18    1     -5.32      0.00
  -15   18    1     -3.97      0.00
  -14   18    1      3.85      0.00
  -13   18    1     -0.76      0.00
  -12   18    1      0.84      0.00
  -11   18    1     -5.24      0.00
  -10   18    1     -1.67      0.00
   -9   18    1     -0.60      0.00
   -8   18    1     -5.03      0.00
   -7   18    1     -4.10      0.00
   -6   18    1     -0.47      0.00
   -5   18    1      2.10      0.00
   -4   18    1     -3.62      0.00
   -3   18    1      5.14      0.00
   -2   18    1      7.27      0.00
   -1   18    1      0.69      0.00
    0   18    1     -6.57      0.00
  -18   19    1     -4.46      0.00
  -17   19    1      5.45      0.00
  -16   19    1     -9.60      0.00
  -15   19    1     -1.71      0.00
  -14   19    1     -4.13      0.00
  -13   19    1      0.08      0.00
  -12   19    1      1.58      0.00
  -11   19    1     -2.81      0.00
  -10   19    1      3.64      0.00
   -9   19    1     -3.95      0.00
   -8   19    1      4.38      0.00
   -7   19    1     -2.63      0.00
   -6   19    1     -4.18      0.00
   -5   19    1     -4.05      0.00
   -4   19    1     -3.32      0.00
   -3   19    1     -0.88      0.00
   -2   19    1      6.59      0.00
   -1   19    1      6.25      0.00
    0   19    1     -0.81      0.00
  -19   20    1     -5.51      0.00
  -18   20    1     -1.81      0.00
  -17   20    1      4.09      0.00
  -16   20    1     -0.85      0.00
  -15   20    1      2.72      0.00
  -14   20    1     -3.02      0.00
  -13   20    1     -0.55      0.00
  -12   20    1     -3.35      0.00
  -11   20    1      2.19      0.00
  -10   20    1     -0.77      0.00
   -9   20    1     -1.32      0.00
   -8   20    1      2.32      0.00
   -7   20    1     -5.78      0.00
   -6   20    1      4.02      0.00
   -5   20    1      0.61      0.00
   -4   20    1      1.32      0.00
   -3   20    1     -5.87      0.00
   -2   20    1     -5.40      0.00
   -1   20    1      1.55      0.00
    0   20    1      8.57      0.00
  -20   21    1      1.93      0.00
  -19   21    1     -5.49      0.00
  -18   21    1      4.97      0.00
  -17   21    1      2.08      0.00
  -16   21    1      3.45      0.00
  -15   21    1     -0.72      0.00
  -14   21    1     -1.23      0.00
  -13   21    1      2.70      0.00
  -12   21    1     -4.49      0.00
  -11   21    1      1.62      0.00
  -10   21    1     -5.79      0.00
   -9   21    1      7.72      0.00
   -8   21    1     -0.11      0.00
   -7   21    1     -4.91      0.00
   -6   21    1      0.07      0.00
   -5   21    1      0.22      0.00
   -4   21    1      1.09      0.00
   -3   21    1      1.77      0.00
   -2   21    1     -2.35      0.00
   -1   21    1     -5.83      0.00
    0   21    1      4.11      0.00
  -21   22    1      0.26      0.00
  -20   22    1     -0.05      0.00
  -19   22    1     -3.00      0.00
  -18   22    1      2.96      0.00
  -17   22    1     -3.30      0.00
  -16   22    1     -0.56      0.00
  -15   22    1     -1.12      0.00
  -14   22    1      3.22      0.00
  -13   22    1     -0.51      0.00
  -12   22    1     -1.74      0.00
  -11   22    1     -2.38      0.00
  -10   22    1     -2.84      0.00
   -9   22    1      6.68      0.00
   -8   22    1     -1.38      0.00
   -7   22    1      4.35      0.00
   -6   22    1     -4.08      0.00
   -5   22    1     -0.56      0.00
   -4   22    1     -0.74      0.00
   -3   22    1     -2.42      0.00
   -2   22    1      3.67      0.00
   -1   22    1      2.86      0.00
    0   22    1     -4.20      0.00
  -22   23    1     -1.29      0.00
  -21   23    1     -1.23      0.00
  -20   23    1     -6.24      0.00
  -19   23    1     -1.93      0.00
  -18   23    1      0.88      0.00
  -17   23    1     -1.89      0.00
  -16   23    1      0.46      0.00
  -15   23    1      0.59      0.00
  -14   23    1      4.04      0.00
  -13   23    1     -6.13      0.00
  -12   23    1      4.32      0.00
  -11   23    1      1.12      0.00
  -10   23    1      0.14      0.00
   -9   23    1     -1.76      0.00
   -8   23    1     -5.22      0.00
   -7   23    1      3.98      0.00
   -6   23    1      1.75      0.00
   -5   23    1     -1.42      0.00
   -4   23    1      0.26      0.00
   -3   23    1      4.60      0.00
   -2   23    1     -3.78      0.00
   -1   23    1      0.42      0.00
    0   23    1     -3.42      0.00
  -23   24    1     -1.57      0.00
  -22   24    1     -3.07      0.00
  -21   24    1      0.28      0.00
  -20   24    1     -3.32      0.00
  -19   24    1      1.24      0.00
  -18   24    1      0.16      0.00
  -17   24    1      3.31      0.00
  -16   24    1     -0.38      0.00
  -15   24    1      1.77      0.00
  -14   24    1      1.28      0.00
  -13   24    1     -1.02      0.00
  -12   24    1      3.68      0.00
  -11   24    1      3.82      0.00
  -10   24    1      5.28      0.00
   -9   24    1     -2.78      0.00
   -8   24    1     -0.71      0.00
   -7   24    1     -2.93      0.00
   -6   24    1     -0.95      0.00
   -5   24    1      4.36      0.00
   -4   24    1      0.66      0.00
   -3   24    1     -0.62      0.00
   -2   24    1     -2.19      0.00
   -1   24    1     -2.99      0.00
    0   24    1     -4.07      0.00
  -24   25    1      0.15      0.00
  -23   25    1      5.48      0.00
  -22   25    1     -1.56      0.00
  -21   25    1     -3.40      0.00
  -20   25    1     -2.10      0.00
  -19   25    1      0.26      0.00
  -18   25    1     -1.79      0.00
  -17   25    1      4.23      0.00
  -16   25    1     -0.73      0.00
  -15   25    1      3.88      0.00
  -14   25    1     -3.31      0.00
  -13   25    1      0.60      0.00
  -12   25    1      1.48      0.00
  -11   25    1      0.33      0.00
  -10   25    1      3.49      0.00
   -9   25    1     -0.97      0.00
   -8   25    1      2.34      0.00
   -7   25    1      0.58      0.00
   -6   25    1      2.22      0.00
   -5   25    1     -1.36      0.00
   -4   25    1     -0.94      0.00
   -3   25    1     -3.66      0.00
   -2   25    1      1.36      0.00
   -1   25    1      0.87      0.00
    0   25    1     -5.22      0.00
  -24   26    1     -0.24      0.00
  -23   26    1     -0.79      0.00
  -22   26    1      1.95      0.00
  -21   26    1     -2.62      0.00
  -20   26    1     -2.18      0.00
  -19   26    1     -3.08      0.00
  -18   26    1      1.06      0.00
  -17   26    1     -2.35      0.00
  -16   26    1      0.70      0.00
  -15   26    1      1.00      0.00
  -14   26    1     -6.51      0.00
  -13   26    1     -1.24      0.00
  -12   26    1      4.24      0.00
  -11   26    1     -1.31      0.00
  -10   26    1     -1.61      0.00
   -9   26    1     -1.74      0.00
   -8   26    1     -0.40      0.00
   -7   26    1     -0.94      0.00
   -6   26    1      3.08      0.00
   -5   26    1      1.34      0.00
   -4   26    1     -2.14      0.00
   -3   26    1     -2.20      0.00
   -2   26    1      4.16      0.00
  -23   27    1     -3.31      0.00
  -22   27    1     -1.46      0.00
  -21   27    1     -1.39      0.00
  -20   27    1      3.73      0.00
  -19   27    1      2.25      0.00
  -18   27    1      2.05      0.00
  -17   27    1     -6.06      0.00
  -16   27    1      1.16      0.00
  -15   27    1     -0.07      0.00
  -14   27    1     -0.74      0.00
  -13   27    1     -2.49      0.00
  -12   27    1     -0.94      0.00
  -11   27    1      2.28      0.00
  -10   27    1      1.81      0.00
   -9   27    1      1.03      0.00
   -8   27    1     -2.72      0.00
   -7   27    1      0.51      0.00
   -6   27    1     -0.51      0.00
   -5   27    1     -0.24      0.00
   -4   27    1     -0.14      0.00
  -21   28    1      1.19      0.00
  -20   28    1      0.93      0.00
  -19   28    1      4.84      0.00
  -18   28    1      1.99      0.00
  -17   28    1      0.35      0.00
  -16   28    1      2.42      0.00
  -15   28    1      2.08      0.00
  -14   28    1      0.20      0.00
  -13   28    1     -1.60      0.00
  -12   28    1     -0.43      0.00
  -11   28    1      6.34      0.00
  -10   28    1     -2.59      0.00
   -9   28    1     -1.23      0.00
   -8   28    1      3.94      0.00
   -7   28    1      3.94      0.00
  -17   29    1      0.13      0.00
  -16   29    1      3.45      0.00
  -15   29    1      3.89      0.00
  -14   29    1     -2.48      0.00
  -13   29    1      1.70      0.00
  -12   29    1      2.44      0.00
    0    0    2    207.69      0.00
    0    1    2     -6.56      0.00
   -1    2    2     -6.17      0.00
    0    2    2    -42.83      0.00
   -2    3    2      9.98      0.00
   -1    3    2     76.54      0.00
    0    3    2    -33.66      0.00
   -3    4    2    -13.53      0.00
   -2    4    2      2.45      0.00
   -1    4    2    -20.07      0.00
    0    4    2      1.18      0.00
   -4    5    2     20.35      0.00
   -3    5    2    -17.29      0.00
   -2    5    2     -8.87      0.00
   -1    5    2      1.55      0.00
    0    5    2     11.49      0.00
   -5    6    2    -12.94      0.00
   -4    6    2     -7.24      0.00
   -3    6    2     13.31      0.00
   -2    6    2     19.83      0.00
   -1    6    2     -8.26      0.00
    0    6    2      2.81      0.00
   -6    7    2      9.50      0.00
   -5    7    2     -6.34      0.00
   -4    7    2     14.57      0.00
   -3    7    2      1.72      0.00
   -2    7    2      5.57      0.00
   -1    7    2      0.58      0.00
    0    7    2     -5.92      0.00
   -7    8    2     -2.25      0.00
   -6    8    2      3.97      0.00
   -5    8    2      2.79      0.00
   -4    8    2     -9.75      0.00
   -3    8    2      0.67      0.00
   -2    8    2     13.72      0.00
   -1    8    2     -6.41      0.00
    0    8    2     -6.98      0.00
   -8    9    2      0.31      0.00
   -7    9    2     20.39      0.00
   -6    9    2     -8.66      0.00
   -5    9    2     -4.12      0.00
   -4    9    2     -7.24      0.00
   -3    9    2      3.17      0.00
   -2    9    2     -7.07      0.00
   -1    9    2      2.56      0.00
    0    9    2      5.69      0.00
   -9   10    2      0.34      0.00
   -8   10    2     -0.98      0.00
   -7   10    2      0.56      0.00
   -6   10    2      0.63      0.00
   -5   10    2     14.77      0.00
   -4   10    2     -2.94      0.00
   -3   10    2     -5.20      0.00
   -2   10    2      1.07      0.00
   -1   10    2      4.56      0.00
    0   10    2     -2.73      0.00
  -10   11    2      1.44      0.00
   -9   11    2     -5.45      0.00
   -8   11    2     -4.17      0.00
   -7   11    2     -1.02      0.00
   -6   11    2      2.11      0.00
   -5   11    2     -4.45      0.00
   -4   11    2      2.88      0.00
   -3   11    2      3.89      0.00
   -2   11    2      5.37      0.00
   -1   11    2      0.84      0.00
    0   11    2     -3.62      0.00
  -11   12    2     -4.59      0.00
  -10   12    2      1.51      0.00
   -9   12    2      3.65      0.00
   -8   12    2      3.57      0.00
   -7   12    2     -9.82      0.00
   -6   12    2     -0.34      0.00
   -5   12    2      5.26      0.00
   -4   12    2     -3.71      0.00
   -3   12    2     -4.89      0.00
   -2   12    2      0.44      0.00
   -1   12    2      2.82      0.00
    0   12    2      1.28      0.00
  -12   13    2     -2.96      0.00
  -11   13    2      3.98      0.00
  -10   13    2      7.75      0.00
   -9   13    2     -4.59      0.00
   -8   13    2     -3.55      0.00
   -7   13    2     -3.18      0.00
   -6   13    2      4.88      0.00
   -5   13    2      4.25      0.00
   -4   13    2     -7.95      0.00
   -3   13    2      0.63      0.00
   -2   13    2      1.83      0.00
   -1   13    2      3.14      0.00
    0   13    2      2.02      0.00
  -13   14    2     -0.06      0.00
  -12   14    2      1.19      0.00
  -11   14    2     -1.85      0.00
  -10   14    2     -2.14      0.00
   -9   14    2      4.96      0.00
   -8   14    2      3.87      0.00
   -7   14    2     -8.25      0.00
   -6   14    2     -3.79      0.00
   -5   14    2     -0.19      0.00
   -4   14    2      6.58      0.00
   -3   14    2     -1.08      0.00
   -2   14    2     -1.09      0.00
   -1   14    2      4.68      0.00
    0   14    2      1.74      0.00
  -14   15    2      3.37      0.00
  -13   15    2     -5.00      0.00
  -12   15    2     -1.84      0.00
  -11   15    2     -0.53      0.00
  -10   15    2     -4.52      0.00
   -9   15    2      5.74      0.00
   -8   15    2      1.11      0.00
   -7   15    2     -4.16      0.00
   -6   15    2      4.27      0.00
   -5   15    2     -1.10      0.00
   -4   15    2     -1.93      0.00
   -3   15    2     -2.03      0.00
   -2   15    2     -0.15      0.00
   -1   15    2     -5.00      0.00
    0   15    2     -1.68      0.00
  -15   16    2      3.57      0.00
  -14   16    2     -2.16      0.00
  -13   16    2      3.97      0.00
  -12   16    2      3.89      0.00
  -11   16    2     -4.98      0.00
  -10   16    2     -1.16      0.00
   -9   16    2      5.17      0.00
   -8   16    2     -5.98      0.00
   -7   16    2     -1.93      0.00
   -6   16    2      0.27      0.00
   -5   16    2      2.67      0.00
   -4   16    2      1.45      0.00
   -3   16    2      0.32      0.00
   -2   16    2     -2.08      0.00
   -1   16    2     -4.73      0.00
    0   16    2     -3.98      0.00
  -16   17    2     -3.62      0.00
  -15   17    2      1.97      0.00
  -14   17    2     -5.03      0.00
  -13   17    2      6.22      0.00
  -12   17    2     -0.44      0.00
  -11   17    2     -4.05      0.00
  -10   17    2      3.32      0.00
   -9   17    2      2.48      0.00
   -8   17    2     -3.81      0.00
   -7   17    2     -4.01      0.00
   -6   17    2      2.87      0.00
   -5   17    2      2.62      0.00
   -4   17    2     -3.29      0.00
   -3   17    2     -2.11      0.00
   -2   17    2      5.61      0.00
   -1   17    2      7.57      0.00
    0   17    2      6.01      0.00
  -17   18    2     -4.09      0.00
  -16   18    2      0.88      0.00
  -15   18    2      1.39      0.00
  -14   18    2     -3.09      0.00
  -13   18    2     -0.13      0.00
  -12   18    2     -5.62      0.00
  -11   18    2     -1.26      0.00
  -10   18    2      3.15      0.00
   -9   18    2      1.47      0.00
   -8   18    2     -1.37      0.00
   -7   18    2     -1.46      0.00
   -6   18    2      2.03      0.00
   -5   18    2      1.21      0.00
   -4   18    2      3.72      0.00
   -3   18    2     -4.52      0.00
   -2   18    2     -4.32      0.00
   -1   18    2      7.93      0.00
    0   18    2     12.18      0.00
  -18   19    2     -0.28      0.00
  -17   19    2     -8.59      0.00
  -16   19    2      6.80      0.00
  -15   19    2     -5.79      0.00
  -14   19    2      3.16      0.00
  -13   19    2      0.52      0.00
  -12   19    2     -2.12      0.00
  -11   19    2      0.99      0.00
  -10   19    2     -4.55      0.00
   -9   19    2      2.66      0.00
   -8   19    2     -3.31      0.00
   -7   19    2     -1.30      0.00
   -6   19    2     -1.65      0.00
   -5   19    2      4.04      0.00
   -4   19    2      3.31      0.00
   -3   19    2      0.83      0.00
   -2   19    2     -3.29      0.00
   -1   19    2     -5.45      0.00
    0   19    2     -0.91      0.00
  -19   20    2      1.14      0.00
  -18   20    2      0.04      0.00
  -17   20    2     -1.10      0.00
  -16   20    2      2.22      0.00
  -15   20    2     -6.71      0.00
  -14   20    2      0.08      0.00
  -13   20    2      1.14      0.00
  -12   20    2      5.13      0.00
  -11   20    2     -5.66      0.00
  -10   20    2     -4.29      0.00
   -9   20    2      3.02      0.00
   -8   20    2      0.63      0.00
   -7   20    2      3.86      0.00
   -6   20    2     -5.74      0.00
   -5   20    2     -1.55      0.00
   -4   20    2      0.49      0.00
   -3   20    2      4.08      0.00
   -2   20    2      1.90      0.00
   -1   20    2      0.33      0.00
    0   20    2     -5.04      0.00
  -20   21    2     -1.49      0.00
  -19   21    2      2.75      0.00
  -18   21    2     -1.69      0.00
  -17   21    2      9.78      0.00
  -16   21    2     -2.55      0.00
  -15   21    2     -3.12      0.00
  -14   21    2      0.38      0.00
  -13   21    2     -0.81      0.00
  -12   21    2      4.27      0.00
  -11   21    2     -7.47      0.00
  -10   21    2      1.81      0.00
   -9   21    2     -2.52      0.00
   -8   21    2      3.17      0.00
   -7   21    2      4.28      0.00
   -6   21    2     -0.97      0.00
   -5   21    2      1.18      0.00
   -4   21    2     -0.91      0.00
   -3   21    2     -2.21      0.00
   -2   21    2      0.75      0.00
   -1   21    2      8.70      0.00
    0   21    2      3.08      0.00
  -21   22    2      1.33      0.00
  -20   22    2     -0.91      0.00
  -19   22    2      1.48      0.00
  -18   22    2     -1.46      0.00
  -17   22    2      6.96      0.00
  -16   22    2     -0.33      0.00
  -15   22    2      0.49      0.00
  -14   22    2     -1.91      0.00
  -13   22    2      3.65      0.00
  -12   22    2     -0.60      0.00
  -11   22    2     -3.72      0.00
  -10   22    2      2.99      0.00
   -9   22    2     -1.63      0.00
   -8   22    2      0.92      0.00
   -7   22    2     -5.74      0.00
   -6   22    2      2.42      0.00
   -5   22    2      2.44      0.00
   -4   22    2      1.29      0.00
   -3   22    2     -0.16      0.00
   -2   22    2     -3.97      0.00
   -1   22    2      0.75      0.00
    0   22    2      4.10      0.00
  -22   23    2      1.53      0.00
  -21   23    2     -2.31      0.00
  -20   23    2     -0.63      0.00
  -19   23    2     -0.85      0.00
  -18   23    2     -1.27      0.00
  -17   23    2     -2.13      0.00
  -16   23    2     -1.11      0.00
  -15   23    2      3.54      0.00
  -14   23    2     -3.09      0.00
  -13   23    2      2.99      0.00
  -12   23    2     -4.74      0.00
  -11   23    2      1.51      0.00
  -10   23    2      0.57      0.00
   -9   23    2     -2.90      0.00
   -8   23    2      3.03      0.00
   -7   23    2     -3.60      0.00
   -6   23    2     -2.28      0.00
   -5   23    2      0.35      0.00
   -4   23    2      0.17      0.00
   -3   23    2     -5.23      0.00
   -2   23    2      3.00      0.00
   -1   23    2     -0.64      0.00
    0   23    2     -2.50      0.00
  -23   24    2      1.07      0.00
  -22   24    2      0.12      0.00
  -21   24    2     -2.52      0.00
  -20   24    2      0.31      0.00
  -19   24    2     -3.11      0.00
  -18   24    2     -1.60      0.00
  -17   24    2     -4.29      0.00
  -16   24    2      0.52      0.00
  -15   24    2     -0.40      0.00
  -14   24    2      0.78      0.00
  -13   24    2      1.54      0.00
  -12   24    2     -0.83      0.00
  -11   24    2      0.58      0.00
  -10   24    2     -5.44      0.00
   -9   24    2     -0.30      0.00
   -8   24    2      1.69      0.00
   -7   24    2      1.48      0.00
   -6   24    2      0.75      0.00
   -5   24    2     -2.95      0.00
   -4   24    2     -0.20      0.00
   -3   24    2     -1.53      0.00
   -2   24    2      1.70      0.00
   -1   24    2     -1.41      0.00
    0   24    2     -0.25      0.00
  -24   25    2     -2.13      0.00
  -23   25    2      0.77      0.00
  -22   25    2      4.06      0.00
  -21   25    2      0.11      0.00
  -20   25    2      0.61      0.00
  -19   25    2     -0.40      0.00
  -18   25    2      3.79      0.00
  -17   25    2     -2.38      0.00
  -16   25    2      2.13      0.00
  -15   25    2     -1.58      0.00
  -14   25    2      0.07      0.00
  -13   25    2     -0.74      0.00
  -12   25    2      1.21      0.00
  -11   25    2      0.34      0.00
  -10   25    2     -2.66      0.00
   -9   25    2      2.59      0.00
   -8   25    2      0.70      0.00
   -7   25    2     -0.80      0.00
   -6   25    2     -1.88      0.00
   -5   25    2      2.93      0.00
   -4   25    2      1.11      0.00
   -3   25    2      1.82      0.00
   -2   25    2     -2.13      0.00
   -1   25    2     -4.27      0.00
  -23   26    2      0.66      0.00
  -22   26    2      0.99      0.00
  -21   26    2     -0.42      0.00
  -20   26    2      2.27      0.00
  -19   26    2      5.59      0.00
  -18   26    2      1.30      0.00
  -17   26    2      1.53      0.00
  -16   26    2      0.59      0.00
  -15   26    2     -0.53      0.00
  -14   26    2      0.42      0.00
  -13   26    2     -4.40      0.00
  -12   26    2     -5.00      0.00
  -11   26    2     -0.82      0.00
  -10   26    2      2.58      0.00
   -9   26    2      5.57      0.00
   -8   26    2     -0.28      0.00
   -7   26    2     -0.13      0.00
   -6   26    2     -0.95      0.00
   -5   26    2      1.95      0.00
   -4   26    2      0.62      0.00
   -3   26    2      2.50      0.00
  -21   27    2      1.69      0.00
  -20   27    2     -1.25      0.00
  -19   27    2      1.22      0.00
  -18   27    2     -0.57      0.00
  -17   27    2      4.23      0.00
  -16   27    2      1.47      0.00
  -15   27    2      0.58      0.00
  -14   27    2     -1.45      0.00
  -13   27    2     -2.66      0.00
  -12   27    2     -2.85      0.00
  -11   27    2      0.84      0.00
  -10   27    2      0.66      0.00
   -9   27    2      0.24      0.00
   -8   27    2      0.65      0.00
   -7   27    2      0.94      0.00
   -6   27    2      3.91      0.00
  -18   28    2     -1.66      0.00
  -17   28    2      1.21      0.00
  -16   28    2      2.87      0.00
  -15   28    2      3.83      0.00
  -14   28    2     -0.16      0.00
  -13   28    2     -1.68      0.00
  -12   28    2      0.00      0.00
  -11   28    2      0.31      0.00
  -10   28    2      4.97      0.00
    0    0    3    -93.31      0.00
    0    1    3     24.48      0.00
   -1    2    3      4.83      0.00
    0    2    3     24.20      0.00
   -2    3    3    -13.41      0.00
   -1    3    3    -66.36      0.00
    0    3    3     26.79      0.00
   -3    4    3     16.15      0.00
   -2    4    3     -5.58      0.00
   -1    4    3     14.88      0.00
    0    4    3      5.62      0.00
   -4    5    3    -13.37      0.00
   -3    5    3     15.75      0.00
   -2    5    3      5.86      0.00
   -1    5    3      5.91      0.00
    0    5    3     -7.08      0.00
   -5    6    3      4.88      0.00
   -4    6    3      5.47      0.00
   -3    6    3    -10.21      0.00
   -2    6    3     -8.90      0.00
   -1    6    3      9.76      0.00
    0    6    3     -4.48      0.00
   -6    7    3     -5.34      0.00
   -5    7    3      1.97      0.00
   -4    7    3     -8.86      0.00
   -3    7    3      4.07      0.00
   -2    7    3      0.95      0.00
   -1    7    3     -0.17      0.00
    0    7    3      1.37      0.00
   -7    8    3      1.69      0.00
   -6    8    3      1.69      0.00
   -5    8    3     -2.46      0.00
   -4    8    3      3.19      0.00
   -3    8    3      6.14      0.00
   -2    8    3     -7.10      0.00
   -1    8    3      0.30      0.00
    0    8    3      6.12      0.00
   -8    9    3      2.43      0.00
   -7    9    3     -9.34      0.00
   -6    9    3      6.36      0.00
   -5    9    3     -3.86      0.00
   -4    9    3      2.70      0.00
   -3    9    3     -2.22      0.00
   -2    9    3      8.37      0.00
   -1    9    3     -0.01      0.00
    0    9    3     -3.78      0.00
   -9   10    3      1.96      0.00
   -8   10    3     -2.03      0.00
   -7   10    3      2.28      0.00
   -6   10    3     -2.61      0.00
   -5   10    3    -18.00      0.00
   -4   10    3      7.37      0.00
   -3   10    3      4.00      0.00
   -2   10    3     -2.77      0.00
   -1   10    3      5.21      0.00
    0   10    3      5.03      0.00
  -10   11    3     -8.09      0.00
   -9   11    3      6.34      0.00
   -8   11    3      3.66      0.00
   -7   11    3     -4.93      0.00
   -6   11    3     -3.96      0.00
   -5   11    3     10.06      0.00
   -4   11    3     -2.76      0.00
   -3   11    3     -5.94      0.00
   -2   11    3     -0.65      0.00
   -1   11    3      2.28      0.00
    0   11    3      2.29      0.00
  -11   12    3     -2.64      0.00
  -10   12    3      2.02      0.00
   -9   12    3     -1.02      0.00
   -8   12    3     -6.87      0.00
   -7   12    3      3.03      0.00
   -6   12    3     -0.12      0.00
   -5   12    3      1.76      0.00
   -4   12    3     -2.50      0.00
   -3   12    3     -4.13      0.00
   -2   12    3      2.57      0.00
   -1   12    3     -1.11      0.00
    0   12    3     -3.06      0.00
  -12   13    3      4.10      0.00
  -11   13    3     -6.47      0.00
  -10   13    3     -2.13      0.00
   -9   13    3      3.00      0.00
   -8   13    3     -5.11      0.00
   -7   13    3     -0.95      0.00
   -6   13    3     -7.06      0.00
   -5   13    3    -10.03      0.00
   -4   13    3      5.16      0.00
   -3   13    3     -3.05      0.00
   -2   13    3     -8.12      0.00
   -1   13    3      3.87      0.00
    0   13    3      4.44      0.00
  -13   14    3     -1.99      0.00
  -12   14    3     -0.55      0.00
  -11   14    3      2.15      0.00
  -10   14    3     -2.00      0.00
   -9   14    3     -3.09      0.00
   -8   14    3     -4.77      0.00
   -7   14    3     -5.34      0.00
   -6   14    3     -2.92      0.00
   -5   14    3      1.51      0.00
   -4   14    3     -6.11      0.00
   -3   14    3     -0.94      0.00
   -2   14    3     -0.76      0.00
   -1   14    3     -3.03      0.00
    0   14    3     -0.39      0.00
  -14   15    3     -5.66      0.00
  -13   15    3      7.62      0.00
  -12   15    3      1.45      0.00
  -11   15    3     -3.92      0.00
  -10   15    3      0.25      0.00
   -9   15    3     -3.81      0.00
   -8   15    3      2.64      0.00
   -7   15    3     -0.29      0.00
   -6   15    3     -8.96      0.00
   -5   15    3      6.26      0.00
   -4   15    3      4.78      0.00
   -3   15    3     -4.66      0.00
   -2   15    3     -0.60      0.00
   -1   15    3      2.58      0.00
    0   15    3     -5.46      0.00
  -15   16    3     -4.59      0.00
  -14   16    3      2.48      0.00
  -13   16    3      2.33      0.00
  -12   16    3     -2.48      0.00
  -11   16    3     -5.07      0.00
  -10   16    3      0.28      0.00
   -9   16    3      0.03      0.00
   -8   16    3      1.39      0.00
   -7   16    3     -3.39      0.00
   -6   16    3      0.49      0.00
   -5   16    3      3.51      0.00
   -4   16    3      1.59      0.00
   -3   16    3     -5.01      0.00
   -2   16    3     -5.31      0.00
   -1   16    3      3.55      0.00
    0   16    3      5.74      0.00
  -16   17    3      3.58      0.00
  -15   17    3     -3.41      0.00
  -14   17    3      8.15      0.00
  -13   17    3     -2.19      0.00
  -12   17    3     -0.62      0.00
  -11   17    3     -1.94      0.00
  -10   17    3     -3.81      0.00
   -9   17    3      0.95      0.00
   -8   17    3     -1.02      0.00
   -7   17    3     -4.54      0.00
   -6   17    3     -1.08      0.00
   -5   17    3      2.00      0.00
   -4   17    3      2.30      0.00
   -3   17    3     -0.27      0.00
   -2   17    3     -5.77      0.00
   -1   17    3     -2.19      0.00
    0   17    3      3.10      0.00
  -17   18    3      5.62      0.00
  -16   18    3     -2.08      0.00
  -15   18    3     -4.21      0.00
  -14   18    3      4.11      0.00
  -13   18    3      2.91      0.00
  -12   18    3      2.72      0.00
  -11   18    3      0.70      0.00
  -10   18    3      0.34      0.00
   -9   18    3     -0.49      0.00
   -8   18    3      2.18      0.00
   -7   18    3     -1.70      0.00
   -6   18    3     -4.12      0.00
   -5   18    3      2.21      0.00
   -4   18    3      0.00      0.00
   -3   18    3      2.45      0.00
   -2   18    3      6.90      0.00
   -1   18    3      1.01      0.00
    0   18    3     -6.68      0.00
  -18   19    3     -2.10      0.00
  -17   19    3      6.14      0.00
  -16   19    3     -7.75      0.00
  -15   19    3      4.77      0.00
  -14   19    3     -5.90      0.00
  -13   19    3      1.87      0.00
  -12   19    3      4.70      0.00
  -11   19    3     -2.68      0.00
  -10   19    3      3.64      0.00
   -9   19    3     -0.58      0.00
   -8   19    3      2.13      0.00
   -7   19    3     -0.18      0.00
   -6   19    3      0.26      0.00
   -5   19    3     -2.70      0.00
   -4   19    3     -0.80      0.00
   -3   19    3     -1.07      0.00
   -2   19    3      1.31      0.00
   -1   19    3      7.78      0.00
    0   19    3      1.29      0.00
  -19   20    3     -5.76      0.00
  -18   20    3     -2.93      0.00
  -17   20    3      3.96      0.00
  -16   20    3     -2.32      0.00
  -15   20    3      1.64      0.00
  -14   20    3     -4.57      0.00
  -13   20    3      2.06      0.00
  -12   20    3     -3.34      0.00
  -11   20    3      0.95      0.00
  -10   20    3     -3.25      0.00
   -9   20    3     -2.00      0.00
   -8   20    3      3.40      0.00
   -7   20    3     -8.15      0.00
   -6   20    3     -2.19      0.00
   -5   20    3      2.66      0.00
   -4   20    3     -1.32      0.00
   -3   20    3     -7.45      0.00
   -2   20    3     -1.79      0.00
   -1   20    3     -0.65      0.00
    0   20    3      3.01      0.00
  -20   21    3      1.03      0.00
  -19   21    3     -5.60      0.00
  -18   21    3      4.96      0.00
  -17   21    3     -3.87      0.00
  -16   21    3      3.84      0.00
  -15   21    3     -0.66      0.00
  -14   21    3     -0.93      0.00
  -13   21    3      4.11      0.00
  -12   21    3     -4.75      0.00
  -11   21    3      0.11      0.00
  -10   21    3     -5.31      0.00
   -9   21    3      6.20      0.00
   -8   21    3      2.10      0.00
   -7   21    3     -6.79      0.00
   -6   21    3     -4.11      0.00
   -5   21    3     -1.11      0.00
   -4   21    3      1.53      0.00
   -3   21    3     -1.31      0.00
   -2   21    3     -0.42      0.00
   -1   21    3     -5.19      0.00
    0   21    3     -0.11      0.00
  -21   22    3      0.87      0.00
  -20   22    3     -1.93      0.00
  -19   22    3     -1.78      0.00
  -18   22    3      6.62      0.00
  -17   22    3     -2.60      0.00
  -16   22    3      2.33      0.00
  -15   22    3     -2.42      0.00
  -14   22    3      4.17      0.00
  -13   22    3     -0.47      0.00
  -12   22    3      1.27      0.00
  -11   22    3      1.20      0.00
  -10   22    3     -2.13      0.00
   -9   22    3      6.86      0.00
   -8   22    3      2.66      0.00
   -7   22    3      4.13      0.00
   -6   22    3     -1.37      0.00
   -5   22    3     -2.58      0.00
   -4   22    3     -0.36      0.00
   -3   22    3      1.87      0.00
   -2   22    3      2.61      0.00
   -1   22    3      0.56      0.00
    0   22    3      0.06      0.00
  -22   23    3     -1.32      0.00
  -21   23    3     -0.55      0.00
  -20   23    3     -3.07      0.00
  -19   23    3     -2.60      0.00
  -18   23    3     -0.68      0.00
  -17   23    3      1.93      0.00
  -16   23    3     -0.34      0.00
  -15   23    3     -6.73      0.00
  -14   23    3      2.29      0.00
  -13   23    3      0.22      0.00
  -12   23    3      5.33      0.00
  -11   23    3     -0.30      0.00
  -10   23    3      1.06      0.00
   -9   23    3      5.87      0.00
   -8   23    3      0.62      0.00
   -7   23    3      2.27      0.00
   -6   23    3      1.53      0.00
   -5   23    3      1.12      0.00
   -4   23    3     -1.15      0.00
   -3   23    3      4.59      0.00
   -2   23    3     -2.69      0.00
   -1   23    3     -1.28      0.00
    0   23    3      0.89      0.00
  -23   24    3     -1.37      0.00
  -22   24    3      0.18      0.00
  -21   24    3     -0.39      0.00
  -20   24    3     -3.74      0.00
  -19   24    3     -1.72      0.00
  -18   24    3     -1.56      0.00
  -17   24    3      2.54      0.00
  -16   24    3     -1.40      0.00
  -15   24    3      0.07      0.00
  -14   24    3     -2.66      0.00
  -13   24    3     -1.52      0.00
  -12   24    3      2.94      0.00
  -11   24    3      0.86      0.00
  -10   24    3      4.84      0.00
   -9   24    3      0.97      0.00
   -8   24    3     -0.07      0.00
   -7   24    3     -0.58      0.00
   -6   24    3     -3.05      0.00
   -5   24    3      1.05      0.00
   -4   24    3      0.89      0.00
   -3   24    3      2.66      0.00
   -2   24    3     -2.92      0.00
   -1   24    3     -3.79      0.00
  -22   25    3     -1.26      0.00
  -21   25    3      2.32      0.00
  -20   25    3      0.08      0.00
  -19   25    3      2.20      0.00
  -18   25    3     -1.12      0.00
  -17   25    3      2.80      0.00
  -16   25    3     -0.12      0.00
  -15   25    3      3.06      0.00
  -14   25    3      0.62      0.00
  -13   25    3     -0.95      0.00
  -12   25    3     -0.66      0.00
  -11   25    3     -1.64      0.00
  -10   25    3      0.78      0.00
   -9   25    3      0.74      0.00
   -8   25    3     -1.25      0.00
   -7   25    3     -2.04      0.00
   -6   25    3      0.74      0.00
   -5   25    3     -2.74      0.00
   -4   25    3      0.62      0.00
   -3   25    3      0.17      0.00
  -20   26    3     -0.45      0.00
  -19   26    3      1.83      0.00
  -18   26    3      2.11      0.00
  -17   26    3     -0.44      0.00
  -16   26    3      0.05      0.00
  -15   26    3     -0.12      0.00
  -14   26    3     -1.73      0.00
  -13   26    3     -0.04      0.00
  -12   26    3     -2.05      0.00
  -11   26    3     -1.75      0.00
  -10   26    3      1.07      0.00
   -9   26    3      0.23      0.00
   -8   26    3     -0.04      0.00
   -7   26    3     -2.67      0.00
   -6   26    3      0.98      0.00
  -17   27    3     -2.49      0.00
  -16   27    3     -1.94      0.00
  -15   27    3     -2.23      0.00
  -14   27    3     -1.67      0.00
  -13   27    3     -1.94      0.00
  -12   27    3     -3.26      0.00
  -11   27    3     -0.23      0.00
  -10   27    3      6.98      0.00
    0    0    4     84.21      0.00
    0    1    4     -6.30      0.00
   -1    2    4     -7.69      0.00
    0    2    4    -18.83      0.00
   -2    3    4      6.65      0.00
   -1    3    4     44.23      0.00
    0    3    4    -20.61      0.00
   -3    4    4     -6.61      0.00
   -2    4    4     -1.29      0.00
   -1    4    4     -9.62      0.00
    0    4    4      3.75      0.00
   -4    5    4     11.45      0.00
   -3    5    4    -10.52      0.00
   -2    5    4     -2.76      0.00
   -1    5    4     -5.55      0.00
    0    5    4      7.47      0.00
   -5    6    4     -3.36      0.00
   -4    6    4     -4.94      0.00
   -3    6    4      6.84      0.00
   -2    6    4     10.37      0.00
   -1    6    4     -4.49      0.00
    0    6    4      0.24      0.00
   -6    7    4      2.77      0.00
   -5    7    4     -2.83      0.00
   -4    7    4      5.33      0.00
   -3    7    4     -0.35      0.00
   -2    7    4      0.52      0.00
   -1    7    4      2.41      0.00
    0    7    4     -1.62      0.00
   -7    8    4     -5.65      0.00
   -6    8    4      1.65      0.00
   -5    8    4      2.03      0.00
   -4    8    4     -8.38      0.00
   -3    8    4     -5.26      0.00
   -2    8    4      9.83      0.00
   -1    8    4     -1.41      0.00
    0    8    4     -5.77      0.00
   -8    9    4     -3.05      0.00
   -7    9    4     10.50      0.00
   -6    9    4     -6.53      0.00
   -5    9    4     -5.76      0.00
   -4    9    4     -3.95      0.00
   -3    9    4      3.22      0.00
   -2    9    4     -4.78      0.00
   -1    9    4      4.28      0.00
    0    9    4      4.85      0.00
   -9   10    4     -0.33      0.00
   -8   10    4     -0.08      0.00
   -7   10    4     -1.91      0.00
   -6   10    4     -4.37      0.00
   -5   10    4      6.23      0.00
   -4   10    4     -3.05      0.00
   -3   10    4      0.36      0.00
   -2   10    4     -0.10      0.00
   -1   10    4      3.93      0.00
    0   10    4      1.60      0.00
  -10   11    4     -1.11      0.00
   -9   11    4     -3.90      0.00
   -8   11    4      1.31      0.00
   -7   11    4     -4.87      0.00
   -6   11    4      0.06      0.00
   -5   11    4     -1.45      0.00
   -4   11    4      1.30      0.00
   -3   11    4      0.55      0.00
   -2   11    4     -0.06      0.00
   -1   11    4     -0.48      0.00
    0   11    4     -2.44      0.00
  -11   12    4     -1.70      0.00
  -10   12    4     -2.28      0.00
   -9   12    4      0.45      0.00
   -8   12    4      2.44      0.00
   -7   12    4     -5.56      0.00
   -6   12    4      1.24      0.00
   -5   12    4      3.57      0.00
   -4   12    4     -0.01      0.00
   -3   12    4     -4.17      0.00
   -2   12    4     -1.21      0.00
   -1   12    4      3.42      0.00
    0   12    4      0.29      0.00
  -12   13    4     -4.24      0.00
  -11   13    4     -1.25      0.00
  -10   13    4      2.82      0.00
   -9   13    4     -1.94      0.00
   -8   13    4     -6.99      0.00
   -7   13    4     -0.76      0.00
   -6   13    4      7.36      0.00
   -5   13    4      1.18      0.00
   -4   13    4     -6.52      0.00
   -3   13    4      2.32      0.00
   -2   13    4      6.29      0.00
   -1   13    4      0.96      0.00
    0   13    4      0.07      0.00
  -13   14    4     -1.52      0.00
  -12   14    4      1.77      0.00
  -11   14    4     -2.16      0.00
  -10   14    4     -5.84      0.00
   -9   14    4     -4.09      0.00
   -8   14    4      3.65      0.00
   -7   14    4      0.47      0.00
   -6   14    4     -4.25      0.00
   -5   14    4     -4.44      0.00
   -4   14    4      3.50      0.00
   -3   14    4     -0.14      0.00
   -2   14    4     -0.75      0.00
   -1   14    4      3.20      0.00
    0   14    4      0.38      0.00
  -14   15    4      2.68      0.00
  -13   15    4     -1.64      0.00
  -12   15    4     -1.35      0.00
  -11   15    4     -1.95      0.00
  -10   15    4     -2.04      0.00
   -9   15    4      3.17      0.00
   -8   15    4     -1.68      0.00
   -7   15    4     -6.80      0.00
   -6   15    4     -0.41      0.00
   -5   15    4     -0.16      0.00
   -4   15    4      1.06      0.00
   -3   15    4     -1.11      0.00
   -2   15    4     -3.01      0.00
   -1   15    4     -3.55      0.00
    0   15    4     -1.63      0.00
  -15   16    4      1.94      0.00
  -14   16    4     -3.06      0.00
  -13   16    4      3.73      0.00
  -12   16    4      0.96      0.00
  -11   16    4     -4.27      0.00
  -10   16    4     -0.77      0.00
   -9   16    4      6.62      0.00
   -8   16    4     -3.20      0.00
   -7   16    4     -3.93      0.00
   -6   16    4     -0.22      0.00
   -5   16    4     -0.44      0.00
   -4   16    4      1.66      0.00
   -3   16    4      1.55      0.00
   -2   16    4     -0.34      0.00
   -1   16    4     -2.08      0.00
    0   16    4     -4.23      0.00
  -16   17    4     -6.85      0.00
  -15   17    4      3.42      0.00
  -14   17    4     -2.26      0.00
  -13   17    4      2.79      0.00
  -12   17    4     -4.85      0.00
  -11   17    4     -2.90      0.00
  -10   17    4      3.61      0.00
   -9   17    4      2.76      0.00
   -8   17    4      0.06      0.00
   -7   17    4     -1.85      0.00
   -6   17    4      1.24      0.00
   -5   17    4      3.14      0.00
   -4   17    4     -4.07      0.00
   -3   17    4     -1.76      0.00
   -2   17    4      4.58      0.00
   -1   17    4      3.51      0.00
    0   17    4      2.33      0.00
  -17   18    4     -1.74      0.00
  -16   18    4      2.10      0.00
  -15   18    4      0.20      0.00
  -14   18    4     -2.03      0.00
  -13   18    4      1.05      0.00
  -12   18    4     -4.33      0.00
  -11   18    4      0.67      0.00
  -10   18    4      2.98      0.00
   -9   18    4     -0.36      0.00
   -8   18    4     -3.60      0.00
   -7   18    4      1.82      0.00
   -6   18    4      1.39      0.00
   -5   18    4      0.61      0.00
   -4   18    4      1.42      0.00
   -3   18    4     -3.98      0.00
   -2   18    4     -2.21      0.00
   -1   18    4      4.59      0.00
    0   18    4      6.81      0.00
  -18   19    4      2.47      0.00
  -17   19    4     -5.14      0.00
  -16   19    4      6.45      0.00
  -15   19    4     -7.44      0.00
  -14   19    4      2.12      0.00
  -13   19    4      0.70      0.00
  -12   19    4     -1.49      0.00
  -11   19    4      1.28      0.00
  -10   19    4     -2.85      0.00
   -9   19    4      2.14      0.00
   -8   19    4     -1.65      0.00
   -7   19    4     -0.27      0.00
   -6   19    4     -2.90      0.00
   -5   19    4     -0.85      0.00
   -4   19    4      4.00      0.00
   -3   19    4      0.98      0.00
   -2   19    4     -1.66      0.00
   -1   19    4     -2.51      0.00
    0   19    4     -1.29      0.00
  -19   20    4     -0.72      0.00
  -18   20    4      1.12      0.00
  -17   20    4     -0.84      0.00
  -16   20    4      0.68      0.00
  -15   20    4     -5.13      0.00
  -14   20    4      5.15      0.00
  -13   20    4     -3.31      0.00
  -12   20    4      3.23      0.00
  -11   20    4     -3.40      0.00
  -10   20    4     -2.03      0.00
   -9   20    4      3.66      0.00
   -8   20    4      0.70      0.00
   -7   20    4      1.47      0.00
   -6   20    4     -2.43      0.00
   -5   20    4     -3.62      0.00
   -4   20    4     -0.68      0.00
   -3   20    4      5.65      0.00
   -2   20    4      1.94      0.00
   -1   20    4      0.36      0.00
    0   20    4     -3.39      0.00
  -20   21    4     -2.60      0.00
  -19   21    4      1.65      0.00
  -18   21    4     -1.75      0.00
  -17   21    4      8.58      0.00
  -16   21    4     -1.36      0.00
  -15   21    4     -1.90      0.00
  -14   21    4      3.29      0.00
  -13   21    4      1.09      0.00
  -12   21    4      2.49      0.00
  -11   21    4     -2.78      0.00
  -10   21    4      4.74      0.00
   -9   21    4     -1.89      0.00
   -8   21    4      0.32      0.00
   -7   21    4      0.58      0.00
   -6   21    4     -0.20      0.00
   -5   21    4      3.31      0.00
   -4   21    4     -0.53      0.00
   -3   21    4      1.25      0.00
   -2   21    4      1.89      0.00
   -1   21    4      4.72      0.00
    0   21    4      0.64      0.00
  -21   22    4     -0.12      0.00
  -20   22    4     -2.81      0.00
  -19   22    4     -0.06      0.00
  -18   22    4     -1.80      0.00
  -17   22    4      5.17      0.00
  -16   22    4     -2.03      0.00
  -15   22    4      4.19      0.00
  -14   22    4     -2.49      0.00
  -13   22    4      3.68      0.00
  -12   22    4     -0.60      0.00
  -11   22    4     -2.23      0.00
  -10   22    4      4.90      0.00
   -9   22    4     -2.09      0.00
   -8   22    4     -2.11      0.00
   -7   22    4     -1.16      0.00
   -6   22    4      2.49      0.00
   -5   22    4      2.05      0.00
   -4   22    4      1.77      0.00
   -3   22    4     -1.23      0.00
   -2   22    4     -0.75      0.00
   -1   22    4      1.23      0.00
    0   22    4      1.45      0.00
  -21   23    4     -1.53      0.00
  -20   23    4     -5.01      0.00
  -19   23    4     -3.43      0.00
  -18   23    4     -1.17      0.00
  -17   23    4     -3.07      0.00
  -16   23    4     -2.61      0.00
  -15   23    4      5.31      0.00
  -14   23    4     -0.82      0.00
  -13   23    4     -1.31      0.00
  -12   23    4     -3.65      0.00
  -11   23    4      1.39      0.00
  -10   23    4     -0.43      0.00
   -9   23    4     -2.65      0.00
   -8   23    4      0.30      0.00
   -7   23    4     -0.28      0.00
   -6   23    4      0.01      0.00
   -5   23    4     -1.64      0.00
   -4   23    4     -0.26      0.00
   -3   23    4     -3.74      0.00
   -2   23    4      2.28      0.00
  -20   24    4     -1.84      0.00
  -19   24    4     -2.78      0.00
  -18   24    4      0.22      0.00
  -17   24    4     -1.39      0.00
  -16   24    4     -1.30      0.00
  -15   24    4     -3.01      0.00
  -14   24    4      3.36      0.00
  -13   24    4      2.57      0.00
  -12   24    4     -1.35      0.00
  -11   24    4      1.24      0.00
  -10   24    4     -2.87      0.00
   -9   24    4     -0.22      0.00
   -8   24    4      3.06      0.00
   -7   24    4      1.66      0.00
   -6   24    4     -0.02      0.00
   -5   24    4     -0.76      0.00
   -4   24    4     -0.69      0.00
  -18   25    4      5.21      0.00
  -17   25    4      0.86      0.00
  -16   25    4     -2.00      0.00
  -15   25    4     -3.48      0.00
  -14   25    4      0.51      0.00
  -13   25    4      1.77      0.00
  -12   25    4      0.75      0.00
  -11   25    4      0.92      0.00
  -10   25    4      0.57      0.00
   -9   25    4      2.88      0.00
   -8   25    4      4.45      0.00
   -7   25    4      2.84      0.00
    0    0    5    -52.70      0.00
    0    1    5     12.93      0.00
   -1    2    5     -0.45      0.00
    0    2    5     13.18      0.00
   -2    3    5     -4.03      0.00
   -1    3    5    -33.48      0.00
    0    3    5     13.43      0.00
   -3    4    5      8.46      0.00
   -2    4    5     -2.74      0.00
   -1    4    5      7.68      0.00
    0    4    5      0.01      0.00
   -4    5    5    -11.68      0.00
   -3    5    5      8.86      0.00
   -2    5    5      1.13      0.00
   -1    5    5     -0.80      0.00
    0    5    5     -5.32      0.00
   -5    6    5      1.82      0.00
   -4    6    5      5.31      0.00
   -3    6    5     -5.95      0.00
   -2    6    5     -5.23      0.00
   -1    6    5      6.23      0.00
    0    6    5     -3.35      0.00
   -6    7    5     -0.75      0.00
   -5    7    5     -0.45      0.00
   -4    7    5     -2.45      0.00
   -3    7    5      4.13      0.00
   -2    7    5      2.20      0.00
   -1    7    5      0.52      0.00
    0    7    5      1.13      0.00
   -7    8    5      4.64      0.00
   -6    8    5      1.76      0.00
   -5    8    5     -3.02      0.00
   -4    8    5      1.93      0.00
   -3    8    5      7.12      0.00
   -2    8    5     -5.23      0.00
   -1    8    5     -2.66      0.00
    0    8    5      3.28      0.00
   -8    9    5      3.31      0.00
   -7    9    5     -6.16      0.00
   -6    9    5      2.06      0.00
   -5    9    5      0.44      0.00
   -4    9    5     -0.08      0.00
   -3    9    5     -2.78      0.00
   -2    9    5      4.71      0.00
   -1    9    5     -0.54      0.00
    0    9    5     -2.13      0.00
   -9   10    5     -2.00      0.00
   -8   10    5     -2.50      0.00
   -7   10    5      1.53      0.00
   -6   10    5      0.03      0.00
   -5   10    5     -9.00      0.00
   -4   10    5      3.80      0.00
   -3   10    5      1.27      0.00
   -2   10    5      0.49      0.00
   -1   10    5      1.06      0.00
    0   10    5      3.25      0.00
  -10   11    5     -1.77      0.00
   -9   11    5      1.13      0.00
   -8   11    5     -3.29      0.00
   -7   11    5     -0.30      0.00
   -6   11    5     -0.99      0.00
   -5   11    5      4.42      0.00
   -4   11    5      1.15      0.00
   -3   11    5     -1.63      0.00
   -2   11    5      1.72      0.00
   -1   11    5      1.54      0.00
    0   11    5      0.27      0.00
  -11   12    5     -0.72      0.00
  -10   12    5      0.26      0.00
   -9   12    5     -2.36      0.00
   -8   12    5     -6.10      0.00
   -7   12    5      1.77      0.00
   -6   12    5      2.34      0.00
   -5   12    5     -1.12      0.00
   -4   12    5     -1.13      0.00
   -3   12    5      2.08      0.00
   -2   12    5      0.53      0.00
   -1   12    5     -0.17      0.00
    0   12    5     -2.02      0.00
  -12   13    5      0.82      0.00
  -11   13    5      0.36      0.00
  -10   13    5     -2.32      0.00
   -9   13    5     -5.06      0.00
   -8   13    5     -0.59      0.00
   -7   13    5      0.16      0.00
   -6   13    5     -4.16      0.00
   -5   13    5     -3.23      0.00
   -4   13    5      2.59      0.00
   -3   13    5     -0.44      0.00
   -2   13    5     -4.66      0.00
   -1   13    5      0.68      0.00
    0   13    5      0.74      0.00
  -13   14    5      0.33      0.00
  -12   14    5     -1.12      0.00
  -11   14    5      0.70      0.00
  -10   14    5      0.55      0.00
   -9   14    5     -2.47      0.00
   -8   14    5     -6.34      0.00
   -7   14    5     -0.58      0.00
   -6   14    5     -1.39      0.00
   -5   14    5     -0.29      0.00
   -4   14    5     -2.92      0.00
   -3   14    5      0.37      0.00
   -2   14    5      4.08      0.00
   -1   14    5     -2.13      0.00
    0   14    5     -3.66      0.00
  -14   15    5     -3.60      0.00
  -13   15    5      2.56      0.00
  -12   15    5      0.73      0.00
  -11   15    5      0.28      0.00
  -10   15    5     -2.19      0.00
   -9   15    5     -1.86      0.00
   -8   15    5      3.05      0.00
   -7   15    5      2.00      0.00
   -6   15    5     -4.64      0.00
   -5   15    5     -0.11      0.00
   -4   15    5      1.15      0.00
   -3   15    5      0.23      0.00
   -2   15    5      1.68      0.00
   -1   15    5      2.21      0.00
    0   15    5     -2.20      0.00
  -15   16    5     -6.16      0.00
  -14   16    5      2.93      0.00
  -13   16    5      2.12      0.00
  -12   16    5     -2.16      0.00
  -11   16    5     -1.42      0.00
  -10   16    5      3.71      0.00
   -9   16    5     -0.58      0.00
   -8   16    5      1.46      0.00
   -7   16    5      0.18      0.00
   -6   16    5      3.26      0.00
   -5   16    5      4.44      0.00
   -4   16    5     -0.41      0.00
   -3   16    5     -1.79      0.00
   -2   16    5     -1.92      0.00
   -1   16    5     -0.13      0.00
    0   16    5      2.02      0.00
  -16   17    5      2.80      0.00
  -15   17    5     -4.21      0.00
  -14   17    5      4.07      0.00
  -13   17    5     -3.77      0.00
  -12   17    5      1.82      0.00
  -11   17    5      2.78      0.00
  -10   17    5      0.10      0.00
   -9   17    5      0.27      0.00
   -8   17    5     -0.27      0.00
   -7   17    5      1.41      0.00
   -6   17    5      3.22      0.00
   -5   17    5      2.23      0.00
   -4   17    5      3.39      0.00
   -3   17    5     -2.08      0.00
   -2   17    5     -2.58      0.00
   -1   17    5      0.19      0.00
    0   17    5     -0.07      0.00
  -17   18    5      0.37      0.00
  -16   18    5     -2.65      0.00
  -15   18    5     -1.55      0.00
  -14   18    5      3.21      0.00
  -13   18    5     -0.53      0.00
  -12   18    5      1.13      0.00
  -11   18    5      0.15      0.00
  -10   18    5      0.14      0.00
   -9   18    5      0.92      0.00
   -8   18    5      2.21      0.00
   -7   18    5      0.83      0.00
   -6   18    5      1.60      0.00
   -5   18    5     -0.97      0.00
   -4   18    5     -3.07      0.00
   -3   18    5      1.72      0.00
   -2   18    5      3.46      0.00
   -1   18    5      0.30      0.00
    0   18    5     -4.11      0.00
  -18   19    5     -2.25      0.00
  -17   19    5      3.64      0.00
  -16   19    5     -5.71      0.00
  -15   19    5      4.32      0.00
  -14   19    5     -0.93      0.00
  -13   19    5      1.62      0.00
  -12   19    5      1.29      0.00
  -11   19    5     -1.63      0.00
  -10   19    5      2.03      0.00
   -9   19    5     -2.48      0.00
   -8   19    5      1.68      0.00
   -7   19    5      1.87      0.00
   -6   19    5      0.43      0.00
   -5   19    5     -1.32      0.00
   -4   19    5     -4.15      0.00
   -3   19    5     -0.16      0.00
   -2   19    5      2.88      0.00
   -1   19    5      2.97      0.00
    0   19    5     -2.06      0.00
  -19   20    5     -2.53      0.00
  -18   20    5      3.67      0.00
  -17   20    5      6.63      0.00
  -16   20    5     -2.18      0.00
  -15   20    5      2.48      0.00
  -14   20    5     -2.09      0.00
  -13   20    5      3.27      0.00
  -12   20    5     -2.26      0.00
  -11   20    5      2.29      0.00
  -10   20    5      0.59      0.00
   -9   20    5     -1.05      0.00
   -8   20    5      1.53      0.00
   -7   20    5     -1.79      0.00
   -6   20    5     -2.38      0.00
   -5   20    5      1.97      0.00
   -4   20    5      3.69      0.00
   -3   20    5     -2.76      0.00
   -2   20    5     -1.09      0.00
   -1   20    5     -0.16      0.00
    0   20    5      0.17      0.00
  -19   21    5      0.16      0.00
  -18   21    5      7.59      0.00
  -17   21    5      1.40      0.00
  -16   21    5      1.32      0.00
  -15   21    5      0.14      0.00
  -14   21    5      0.41      0.00
  -13   21    5      1.35      0.00
  -12   21    5     -2.64      0.00
  -11   21    5      2.10      0.00
  -10   21    5     -2.41      0.00
   -9   21    5      3.45      0.00
   -8   21    5      1.83      0.00
   -7   21    5     -1.89      0.00
   -6   21    5     -1.03      0.00
   -5   21    5      0.82      0.00
   -4   21    5      2.54      0.00
   -3   21    5     -0.33      0.00
   -2   21    5      0.83      0.00
  -18   22    5      5.59      0.00
  -17   22    5     -2.27      0.00
  -16   22    5     -0.44      0.00
  -15   22    5     -2.48      0.00
  -14   22    5      3.59      0.00
  -13   22    5     -2.17      0.00
  -12   22    5     -1.21      0.00
  -11   22    5     -0.46      0.00
  -10   22    5     -0.80      0.00
   -9   22    5      3.15      0.00
   -8   22    5     -0.15      0.00
   -7   22    5     -2.13      0.00
   -6   22    5      0.08      0.00
   -5   22    5      3.88      0.00
   -4   22    5     -0.58      0.00
  -16   23    5     -1.24      0.00
  -15   23    5     -4.71      0.00
  -14   23    5      0.81      0.00
  -13   23    5     -1.68      0.00
  -12   23    5     -0.27      0.00
  -11   23    5     -0.82      0.00
  -10   23    5      1.28      0.00
   -9   23    5     -0.59      0.00
   -8   23    5     -1.92      0.00
   -7   23    5      1.95      0.00
    0    0    6     55.21      0.00
    0    1    6     -5.08      0.00
   -1    2    6     -2.83      0.00
    0    2    6    -14.07      0.00
   -2    3    6     -0.40      0.00
   -1    3    6     18.75      0.00
    0    3    6     -6.35      0.00
   -3    4    6     -1.51      0.00
   -2    4    6     -0.78      0.00
   -1    4    6     -7.44      0.00
    0    4    6      4.58      0.00
   -4    5    6     11.01      0.00
   -3    5    6     -7.84      0.00
   -2    5    6     -5.09      0.00
   -1    5    6      0.98      0.00
    0    5    6      0.85      0.00
   -5    6    6     -6.30      0.00
   -4    6    6     -7.19      0.00
   -3    6    6      5.11      0.00
   -2    6    6      3.20      0.00
   -1    6    6     -7.45      0.00
    0    6    6      0.83      0.00
   -6    7    6     -0.82      0.00
   -5    7    6     -1.98      0.00
   -4    7    6      2.88      0.00
   -3    7    6      3.09      0.00
   -2    7    6      2.61      0.00
   -1    7    6     -2.56      0.00
    0    7    6      0.43      0.00
   -7    8    6      0.12      0.00
   -6    8    6     -1.45      0.00
   -5    8    6     -0.42      0.00
   -4    8    6      0.47      0.00
   -3    8    6     -2.13      0.00
   -2    8    6      4.51      0.00
   -1    8    6      2.82      0.00
    0    8    6     -0.02      0.00
   -8    9    6     -0.57      0.00
   -7    9    6      3.83      0.00
   -6    9    6     -4.43      0.00
   -5    9    6     -6.76      0.00
   -4    9    6     -1.76      0.00
   -3    9    6      3.81      0.00
   -2    9    6     -5.06      0.00
   -1    9    6      0.56      0.00
    0    9    6      3.85      0.00
   -9   10    6     -0.31      0.00
   -8   10    6      0.66      0.00
   -7   10    6     -3.71      0.00
   -6   10    6     -5.48      0.00
   -5   10    6      3.79      0.00
   -4   10    6     -2.40      0.00
   -3   10    6      0.41      0.00
   -2   10    6      1.87      0.00
   -1   10    6     -0.19      0.00
    0   10    6     -5.81      0.00
  -10   11    6      1.28      0.00
   -9   11    6     -3.23      0.00
   -8   11    6     -2.10      0.00
   -7   11    6     -0.30      0.00
   -6   11    6      0.86      0.00
   -5   11    6     -2.26      0.00
   -4   11    6      1.12      0.00
   -3   11    6      2.15      0.00
   -2   11    6     -0.21      0.00
   -1   11    6     -1.01      0.00
    0   11    6     -2.51      0.00
  -11   12    6     -0.21      0.00
  -10   12    6     -0.40      0.00
   -9   12    6     -0.17      0.00
   -8   12    6      0.44      0.00
   -7   12    6     -2.76      0.00
   -6   12    6      1.33      0.00
   -5   12    6      2.56      0.00
   -4   12    6      0.03      0.00
   -3   12    6     -1.08      0.00
   -2   12    6      0.03      0.00
   -1   12    6     -2.19      0.00
    0   12    6      2.98      0.00
  -12   13    6     -0.80      0.00
  -11   13    6      0.78      0.00
  -10   13    6     -1.43      0.00
   -9   13    6     -4.22      0.00
   -8   13    6     -5.89      0.00
   -7   13    6     -1.26      0.00
   -6   13    6      3.03      0.00
   -5   13    6     -0.50      0.00
   -4   13    6     -5.48      0.00
   -3   13    6     -0.19      0.00
   -2   13    6      6.49      0.00
   -1   13    6      0.99      0.00
    0   13    6     -1.58      0.00
  -13   14    6     -1.43      0.00
  -12   14    6     -0.36      0.00
  -11   14    6     -2.34      0.00
  -10   14    6     -5.79      0.00
   -9   14    6     -4.40      0.00
   -8   14    6      0.05      0.00
   -7   14    6     -4.60      0.00
   -6   14    6     -3.83      0.00
   -5   14    6     -4.33      0.00
   -4   14    6      0.30      0.00
   -3   14    6     -0.18      0.00
   -2   14    6     -2.46      0.00
   -1   14    6      1.93      0.00
    0   14    6     -0.87      0.00
  -14   15    6     -1.49      0.00
  -13   15    6     -2.56      0.00
  -12   15    6      1.27      0.00
  -11   15    6     -2.91      0.00
  -10   15    6     -0.44      0.00
   -9   15    6      1.69      0.00
   -8   15    6     -4.42      0.00
   -7   15    6     -5.02      0.00
   -6   15    6      2.42      0.00
   -5   15    6     -1.55      0.00
   -4   15    6     -4.11      0.00
   -3   15    6      0.46      0.00
   -2   15    6     -0.76      0.00
   -1   15    6     -4.93      0.00
    0   15    6     -2.45      0.00
  -15   16    6      1.12      0.00
  -14   16    6     -1.15      0.00
  -13   16    6     -2.05      0.00
  -12   16    6      0.48      0.00
  -11   16    6      1.28      0.00
  -10   16    6     -0.02      0.00
   -9   16    6      3.89      0.00
   -8   16    6     -1.02      0.00
   -7   16    6      1.07      0.00
   -6   16    6      0.03      0.00
   -5   16    6      0.28      0.00
   -4   16    6     -1.79      0.00
   -3   16    6     -1.30      0.00
   -2   16    6      1.31      0.00
   -1   16    6     -1.42      0.00
    0   16    6     -4.04      0.00
  -16   17    6     -3.61      0.00
  -15   17    6      0.81      0.00
  -14   17    6     -3.62      0.00
  -13   17    6      4.18      0.00
  -12   17    6     -2.54      0.00
  -11   17    6     -2.72      0.00
  -10   17    6      2.99      0.00
   -9   17    6      1.19      0.00
   -8   17    6      0.46      0.00
   -7   17    6      4.96      0.00
   -6   17    6      2.40      0.00
   -5   17    6     -2.15      0.00
   -4   17    6     -4.53      0.00
   -3   17    6     -1.83      0.00
   -2   17    6      0.36      0.00
   -1   17    6      1.02      0.00
    0   17    6     -2.09      0.00
  -17   18    6     -1.65      0.00
  -16   18    6     -0.68      0.00
  -15   18    6     -0.17      0.00
  -14   18    6     -2.98      0.00
  -13   18    6      0.55      0.00
  -12   18    6      0.32      0.00
  -11   18    6     -2.02      0.00
  -10   18    6      0.30      0.00
   -9   18    6      2.47      0.00
   -8   18    6      1.64      0.00
   -7   18    6      0.11      0.00
   -6   18    6      1.55      0.00
   -5   18    6      0.04      0.00
   -4   18    6     -1.42      0.00
   -3   18    6     -2.62      0.00
   -2   18    6     -1.43      0.00
   -1   18    6      0.99      0.00
  -16   19    6      3.59      0.00
  -15   19    6     -4.69      0.00
  -14   19    6      1.76      0.00
  -13   19    6      1.35      0.00
  -12   19    6     -1.21      0.00
  -11   19    6      0.41      0.00
  -10   19    6      1.56      0.00
   -9   19    6      5.37      0.00
   -8   19    6      1.08      0.00
   -7   19    6     -1.51      0.00
   -6   19    6      1.95      0.00
   -5   19    6      2.31      0.00
   -4   19    6      1.00      0.00
   -3   19    6      0.45      0.00
  -14   20    6      3.20      0.00
  -13   20    6      2.09      0.00
  -12   20    6      0.20      0.00
  -11   20    6     -0.66      0.00
  -10   20    6      4.33      0.00
   -9   20    6      2.10      0.00
   -8   20    6      0.44      0.00
   -7   20    6      3.33      0.00
   -6   20    6      2.66      0.00
    0    0    7    -25.73      0.00
    0    1    7      4.78      0.00
   -1    2    7      0.12      0.00
    0    2    7      3.97      0.00
   -2    3    7     -3.64      0.00
   -1    3    7    -17.80      0.00
    0    3    7      7.34      0.00
   -3    4    7      1.57      0.00
   -2    4    7      1.35      0.00
   -1    4    7      3.22      0.00
    0    4    7     -1.63      0.00
   -4    5    7     -5.49      0.00
   -3    5    7      2.98      0.00
   -2    5    7     -0.22      0.00
   -1    5    7     -0.51      0.00
    0    5    7     -3.87      0.00
   -5    6    7      0.11      0.00
   -4    6    7      1.68      0.00
   -3    6    7     -1.88      0.00
   -2    6    7     -4.64      0.00
   -1    6    7      2.41      0.00
    0    6    7     -0.84      0.00
   -6    7    7     -1.28      0.00
   -5    7    7      1.82      0.00
   -4    7    7     -3.86      0.00
   -3    7    7     -2.06      0.00
   -2    7    7      2.24      0.00
   -1    7    7      1.97      0.00
    0    7    7     -0.43      0.00
   -7    8    7      5.39      0.00
   -6    8    7     -0.74      0.00
   -5    8    7     -4.63      0.00
   -4    8    7      0.82      0.00
   -3    8    7      3.15      0.00
   -2    8    7     -1.96      0.00
   -1    8    7      0.53      0.00
    0    8    7      2.01      0.00
   -8    9    7      1.06      0.00
   -7    9    7     -2.31      0.00
   -6    9    7      1.81      0.00
   -5    9    7     -1.86      0.00
   -4    9    7     -1.45      0.00
   -3    9    7     -0.17      0.00
   -2    9    7      2.81      0.00
   -1    9    7     -0.54      0.00
    0    9    7      1.58      0.00
   -9   10    7      0.46      0.00
   -8   10    7      0.77      0.00
   -7   10    7     -1.41      0.00
   -6   10    7     -1.60      0.00
   -5   10    7     -4.01      0.00
   -4   10    7      0.18      0.00
   -3   10    7     -0.59      0.00
   -2   10    7      1.38      0.00
   -1   10    7      0.93      0.00
    0   10    7      4.53      0.00
  -10   11    7     -0.02      0.00
   -9   11    7      0.79      0.00
   -8   11    7      0.63      0.00
   -7   11    7     -0.53      0.00
   -6   11    7     -1.92      0.00
   -5   11    7      3.11      0.00
   -4   11    7      1.40      0.00
   -3   11    7     -2.77      0.00
   -2   11    7     -0.65      0.00
   -1   11    7      1.22      0.00
    0   11    7      0.51      0.00
  -11   12    7      1.09      0.00
  -10   12    7     -0.16      0.00
   -9   12    7      0.16      0.00
   -8   12    7     -3.73      0.00
   -7   12    7      1.47      0.00
   -6   12    7      4.16      0.00
   -5   12    7     -1.75      0.00
   -4   12    7     -4.75      0.00
   -3   12    7      0.53      0.00
   -2   12    7     -2.19      0.00
   -1   12    7     -1.37      0.00
    0   12    7     -1.59      0.00
  -12   13    7      0.48      0.00
  -11   13    7      0.03      0.00
  -10   13    7     -1.79      0.00
   -9   13    7     -1.34      0.00
   -8   13    7      1.16      0.00
   -7   13    7     -1.15      0.00
   -6   13    7     -4.81      0.00
   -5   13    7     -2.75      0.00
   -4   13    7     -0.80      0.00
   -3   13    7     -1.65      0.00
   -2   13    7     -4.56      0.00
   -1   13    7     -3.02      0.00
    0   13    7     -1.41      0.00
  -13   14    7     -1.95      0.00
  -12   14    7     -1.21      0.00
  -11   14    7     -1.45      0.00
  -10   14    7      0.71      0.00
   -9   14    7     -2.61      0.00
   -8   14    7     -3.43      0.00
   -7   14    7      0.69      0.00
   -6   14    7     -3.45      0.00
   -5   14    7     -2.26      0.00
   -4   14    7     -1.11      0.00
   -3   14    7     -1.09      0.00
   -2   14    7      0.96      0.00
   -1   14    7     -1.64      0.00
    0   14    7     -3.52      0.00
  -13   15    7     -0.22      0.00
  -12   15    7     -0.34      0.00
  -11   15    7      0.63      0.00
  -10   15    7     -0.25      0.00
   -9   15    7      0.75      0.00
   -8   15    7      0.46      0.00
   -7   15    7     -2.54      0.00
   -6   15    7     -2.07      0.00
   -5   15    7      0.21      0.00
   -4   15    7      0.49      0.00
   -3   15    7      0.14      0.00
   -2   15    7      0.33      0.00
  -11   16    7      1.96      0.00
  -10   16    7      2.25      0.00
   -9   16    7     -0.59      0.00
   -8   16    7      0.53      0.00
   -7   16    7     -1.85      0.00
   -6   16    7      2.81      0.00
   -5   16    7      0.29      0.00
    0    0    8     15.77      0.00
    0    1    8     -4.66      0.00
   -1    2    8     -1.41      0.00
    0    2    8     -4.04      0.00
   -2    3    8      1.33      0.00
   -1    3    8      8.53      0.00
    0    3    8     -3.68      0.00
   -3    4    8      0.77      0.00
   -2    4    8     -1.29      0.00
   -1    4    8     -2.76      0.00
    0    4    8     -0.01      0.00
   -4    5    8      2.77      0.00
   -3    5    8     -0.74      0.00
   -2    5    8     -1.39      0.00
   -1    5    8     -2.31      0.00
    0    5    8      0.45      0.00
   -5    6    8     -1.55      0.00
   -4    6    8     -1.56      0.00
   -3    6    8      0.91      0.00
   -2    6    8      2.93      0.00
   -1    6    8     -2.85      0.00
    0    6    8      1.06      0.00
   -6    7    8      2.35      0.00
   -5    7    8     -2.07      0.00
   -4    7    8      1.91      0.00
   -3    7    8      2.09      0.00
   -2    7    8     -0.11      0.00
   -1    7    8      0.02      0.00
    0    7    8      2.13      0.00
   -7    8    8     -1.54      0.00
   -6    8    8      0.92      0.00
   -5    8    8      1.03      0.00
   -4    8    8     -2.46      0.00
   -3    8    8     -1.89      0.00
   -2    8    8      0.51      0.00
   -1    8    8      0.10      0.00
    0    8    8     -1.00      0.00
   -7    9    8      1.59      0.00
   -6    9    8     -3.11      0.00
   -5    9    8     -3.81      0.00
   -4    9    8     -2.54      0.00
   -3    9    8     -0.09      0.00
   -2    9    8     -3.13      0.00
    0    1    0     45.21      0.00
   -1    2    0     28.21      0.00
    0    2    0    -88.32      0.00
   -3    7    0     10.72      0.00
   -5    8    0     -3.29      0.00
   -6   14    0     -3.14      0.00
  -25   26    0     -0.54      0.00
   -1   26    0      2.54      0.00
  -24   27    0     -0.58      0.00
   -3   27    0      2.96      0.00
  -22   28    0      0.38      0.00
   -6   28    0      0.33      0.00
  -20   29    0      2.59      0.00
  -19   29    0     -0.88      0.00
  -10   29    0      1.83      0.00
   -9   29    0     -0.33      0.00
   -5    9    1      1.43      0.00
  -25   26    1     -2.36      0.00
   -1   26    1      0.35      0.00
  -24   27    1     -0.15      0.00
   -3   27    1      0.89      0.00
  -22   28    1     -0.79      0.00
   -6   28    1      0.12      0.00
  -19   29    1      2.19      0.00
  -18   29    1     -0.47      0.00
  -11   29    1     -1.46      0.00
  -10   29    1     -0.10      0.00
    0   25    2      1.04      0.00
  -24   26    2     -0.31      0.00
   -2   26    2     -0.78      0.00
  -22   27    2     -0.51      0.00
   -5   27    2      1.37      0.00
  -20   28    2      2.26      0.00
  -19   28    2     -0.58      0.00
   -9   28    2      0.08      0.00
   -8   28    2     -1.56      0.00
  -15   29    2      0.72      0.00
  -14   29    2      1.70      0.00
    0   24    3     -2.58      0.00
  -23   25    3     -0.05      0.00
   -2   25    3     -0.54      0.00
  -21   26    3      1.90      0.00
   -5   26    3      0.35      0.00
  -19   27    3      1.60      0.00
  -18   27    3      1.00      0.00
   -9   27    3      2.19      0.00
   -8   27    3     -1.71      0.00
  -22   23    4      0.86      0.00
   -1   23    4     -0.27      0.00
  -21   24    4     -2.30      0.00
   -3   24    4     -1.39      0.00
  -19   25    4     -0.14      0.00
   -6   25    4     -1.14      0.00
  -17   26    4     -0.50      0.00
  -16   26    4     -2.03      0.00
  -15   26    4     -1.28      0.00
  -14   26    4     -0.53      0.00
  -13   26    4     -1.57      0.00
  -12   26    4     -0.54      0.00
  -11   26    4     -0.07      0.00
  -10   26    4      0.99      0.00
   -9   26    4      2.34      0.00
  -20   21    5     -0.87      0.00
   -1   21    5     -0.22      0.00
    0   21    5      0.88      0.00
  -19   22    5      0.30      0.00
   -3   22    5      0.46      0.00
  -18   23    5      0.67      0.00
  -17   23    5      0.92      0.00
   -6   23    5      1.69      0.00
   -5   23    5      0.09      0.00
  -15   24    5      0.38      0.00
  -14   24    5     -1.97      0.00
  -13   24    5     -1.43      0.00
  -12   24    5      0.20      0.00
  -11   24    5      0.33      0.00
  -10   24    5      0.68      0.00
   -9   24    5     -0.64      0.00
    0   18    6      1.52      0.00
  -18   19    6     -0.25      0.00
  -17   19    6      0.22      0.00
   -2   19    6      0.40      0.00
   -1   19    6     -1.63      0.00
  -16   20    6      2.04      0.00
  -15   20    6     -1.77      0.00
   -5   20    6      1.04      0.00
   -4   20    6     -0.67      0.00
  -14   21    6      1.59      0.00
  -13   21    6      0.04      0.00
  -12   21    6      2.20      0.00
  -11   21    6     -1.42      0.00
  -10   21    6      2.25      0.00
   -9   21    6      1.17      0.00
   -8   21    6     -0.41      0.00
   -7   21    6      0.01      0.00
  -14   15    7     -1.86      0.00
   -1   15    7      0.78      0.00
    0   15    7      0.15      0.00
  -13   16    7      1.80      0.00
  -12   16    7      1.40      0.00
   -4   16    7     -1.30      0.00
   -3   16    7     -0.15      0.00
  -11   17    7      1.35      0.00
  -10   17    7      0.58      0.00
   -9   17    7      0.10      0.00
   -8   17    7      0.02      0.00
   -7   17    7     -0.55      0.00
   -6   17    7      0.52      0.00
   -8    9    8     -0.03      0.00
   -1    9    8     -0.65      0.00
    0    9    8      0.19      0.00
   -8   10    8     -0.10      0.00
   -7   10    8      0.62      0.00
   -6   10    8     -1.95      0.00
   -5   10    8      0.48      0.00
   -4   10    8      0.53      0.00
   -3   10    8     -0.85      0.00
   -2   10    8     -2.01      0.00
    0    0    0      0.00      0.00
# SQUEEZE RESULTS
# Note: Data are Listed for all Voids in the P1 Unit Cell
# i.e. Centre of Gravity, Solvent Accessible Volume,
# Recovered number of Electrons in the Void and
# Details about the Squeezed Material
loop_
  _platon_squeeze_void_nr
  _platon_squeeze_void_average_x
  _platon_squeeze_void_average_y
  _platon_squeeze_void_average_z
  _platon_squeeze_void_volume
  _platon_squeeze_void_count_electrons
  _platon_squeeze_void_content
   1 -0.004 -0.003 -0.161      2261       509 ' '
_platon_squeeze_void_probe_radius                  1.20
_platon_squeeze_details
(replace by semicolon in column 1 when used as .sqf)
TITL full      P 6/m        R = 0.16
CELL   24.6440   24.6440    7.1068     90.00     90.00    120.00
SPGR P6/m
# Solvent Accessible Volume =    2254.7
# Electrons Found in S.A.V. =     506.9
# Note: Atoms in Void as Cxxx and Qxxx all others
C101 0.835 0.281 0.508 !       5.67 eA-3
C102 0.413 0.187 0.505 !       5.52 eA-3
C103 0.665 0.538 0.498 !       4.72 eA-3
C104 0.615 0.780 0.508 !       2.86 eA-3
C105 0.332 0.664 0.514 !       2.78 eA-3
C106 0.736 0.212 0.505 !       2.62 eA-3
C107 0.720 0.774-0.003 !       2.56 eA-3
C108 0.331 0.663 0.845 !       2.52 eA-3
C109 0.350 0.132 0.501 !       2.26 eA-3
C110 0.760 0.994-0.009 !       2.04 eA-3
C111 0.935 0.273 0.498 !       1.95 eA-3
C112 0.024 0.265 0.834 !       1.94 eA-3
C113 0.378 0.095 0.490 !       1.66 eA-3
C114 0.335 0.668 0.660 !       1.66 eA-3
C115 0.762 0.939 0.966 !       1.54 eA-3
C116 0.282 0.633 0.620 !       1.48 eA-3
C117 0.632 0.406 0.508 !       1.42 eA-3
C118 0.806 0.028 0.004 !       1.41 eA-3
C119 0.124 0.897-0.002 !       1.37 eA-3
C120 0.107 1.000 0.013 !       1.29 eA-3
C121 0.765 0.906 0.000 !       1.29 eA-3
C122 0.986 0.261 0.647 !       1.23 eA-3
C123 0.023 0.275 0.617 !       1.23 eA-3
C124 0.259 0.276 0.644 !       1.22 eA-3
C125 0.363 0.735 0.467 !       1.18 eA-3
Q126 0.520 0.438 0.011 !       1.17 eA-3
Q127 0.417 0.508-0.007 !       1.12 eA-3
Q128 0.087 0.648 0.384 !       1.11 eA-3
Q129 0.975 0.305 0.008 !       1.06 eA-3
C130 0.109 0.064 0.092 !       1.03 eA-3
C131 0.018 0.969-0.008 !       1.03 eA-3
Q132 0.966 0.570 0.005 !       1.03 eA-3
C133 0.922 0.819 0.504 !       1.03 eA-3
Q134 0.797 0.453 0.007 !       1.00 eA-3
C135 1.002 0.927 0.097 !       0.98 eA-3
Q136 0.560 0.836 0.002 !       0.97 eA-3
Q137 0.584 0.094 1.004 !       0.96 eA-3
Q138 0.561 0.641 0.009 !       0.94 eA-3
C139 0.214 0.076 0.021 !       0.93 eA-3
C140 0.747 0.977 0.813 !       0.93 eA-3
Q141 0.102 0.342-0.008 !       0.91 eA-3
Q142 1.000 0.500 0.002 !       0.91 eA-3
Q143 0.487 0.117-0.010 !       0.89 eA-3
C144 0.788 0.010 0.323 !       0.89 eA-3
C145 0.087 0.041 0.184 !       0.89 eA-3
C146 0.181 0.172 0.002 !       0.88 eA-3
C147 0.788 0.922 0.504 !       0.88 eA-3
C148 0.793 0.782 0.913 !       0.88 eA-3
C149 0.773 0.402 0.589 !       0.88 eA-3
C150 0.375 0.238 0.371 !       0.87 eA-3
C151 0.188 0.750 0.373 !       0.86 eA-3
Q152 0.228 0.781 0.004 !       0.86 eA-3
C153 0.854 0.842 0.492 !       0.86 eA-3
Q154 0.037 0.499 0.001 !       0.85 eA-3
C155 0.987 0.275-0.015 !       0.85 eA-3
Q156 0.159 0.820 0.001 !       0.84 eA-3
Q157 0.318 0.312 0.003 !       0.83 eA-3
C158 0.984 0.973 0.053 !       0.83 eA-3
Q159 0.648 0.515 0.344 !       0.81 eA-3
C160 0.771 0.905 0.835 !       0.80 eA-3
C161 0.904 0.845-0.011 !       0.80 eA-3
Q162 0.545 0.040 0.988 !       0.80 eA-3
C163 0.824 0.929 0.406 !       0.79 eA-3
C164 0.747 0.769 0.318 !       0.78 eA-3
Q165 0.117 0.695 0.001 !       0.78 eA-3
Q166 0.424 0.867-0.018 !       0.78 eA-3
C167 0.028 0.063 0.320 !       0.77 eA-3
C168 0.152 0.835 0.482 !       0.76 eA-3
C169 0.811 0.977 0.001 !       0.75 eA-3
C170 0.843 0.804 0.990 !       0.75 eA-3
Q171 0.386 0.742-0.003 !       0.75 eA-3
C172 0.072 0.065 0.253 !       0.74 eA-3
C173 0.125 0.047 0.026 !       0.74 eA-3
Q174 0.116 0.398 0.456 !       0.73 eA-3
Q175 0.369 0.585-0.001 !       0.73 eA-3
C176 0.867 0.033 0.503 !       0.71 eA-3
Q177 0.639 0.961 0.409 !       0.71 eA-3
Q178 0.601 0.923 0.450 !       0.71 eA-3
C179 0.448 0.804 0.492 !       0.71 eA-3
C180 0.424 0.681 0.506 !       0.71 eA-3
C181 0.138 0.859 0.911 !       0.71 eA-3
Q182 0.858 0.555 0.010 !       0.71 eA-3
C183 0.007 0.010 0.404 !       0.71 eA-3
C184 0.771 1.003 0.590 !       0.70 eA-3
C185 0.724 0.963 0.502 !       0.68 eA-3
Q186 0.694 0.188 0.014 !       0.68 eA-3
Q187 0.697 0.891-0.003 !       0.68 eA-3
C188 0.694 0.174 0.386 !       0.68 eA-3
C189 0.130 0.040 0.852 !       0.67 eA-3
C190 0.124 0.079 0.481 !       0.66 eA-3
Q191 0.585 0.945 0.003 !       0.66 eA-3
C192 0.830 0.742 0.519 !       0.66 eA-3
C193 0.882 0.020 0.640 !       0.65 eA-3
C194 0.038 0.929 0.229 !       0.65 eA-3
C195 0.197 0.125 0.407 !       0.65 eA-3
C196 0.869 0.029 0.586 !       0.64 eA-3
Q197 0.983 0.577 0.503 !       0.64 eA-3
Q198 0.012 0.594-0.001 !       0.64 eA-3
C199 0.127 0.045 0.329 !       0.63 eA-3
(replace by semicolon in column 1 when used as .sqf)
;
_shelx_shelxl_version_number     2016/6
_olex2_submission_special_instructions 'No special instructions were received'
loop_
_space_group_symop_operation_xyz
'x, y, z'
'-y, x-y, z'
'-x+y, -x, z'
'-x, -y, z'
'y, -x+y, z'
'x-y, x, z'
'-x, -y, -z'
'y, -x+y, -z'
'x-y, x, -z'
'x, y, -z'
'-y, x-y, -z'
'-x+y, -x, -z'
loop_
_atom_site_label
_atom_site_type_symbol
_atom_site_fract_x
_atom_site_fract_y
_atom_site_fract_z
_atom_site_U_iso_or_equiv
_atom_site_adp_type
_atom_site_occupancy
_atom_site_site_symmetry_order
_atom_site_calc_flag
_atom_site_refinement_flags_posn
_atom_site_refinement_flags_adp
_atom_site_refinement_flags_occupancy
Fe1 Fe 0.41044(4) 0.93753(4) 1.000000 0.0179(3) Uani 1 2 d S T P
O1 O 0.49048(18) 0.93317(17) 1.000000 0.0221(9) Uani 1 2 d S T P
O2 O 0.59415(18) 0.98101(17) 1.000000 0.0225(9) Uani 1 2 d S T P
O3 O 0.47963(17) 0.64447(18) 1.000000 0.0231(9) Uani 1 2 d S TU P
O4 O 0.58281(17) 0.69235(17) 1.000000 0.0208(8) Uani 1 2 d S TU P
N1 N 0.41172(15) 0.93906(14) 0.6960(4) 0.0206(7) Uani 1 1 d . . .
C1 C 0.5404(3) 0.9320(3) 1.000000 0.0183(12) Uani 1 2 d S T P
C2 C 0.5387(3) 0.8704(2) 1.000000 0.0199(12) Uani 1 2 d S T P
C3 C 0.5931(3) 0.8682(3) 1.000000 0.0238(13) Uani 1 2 d S T P
H3 H 0.632215 0.906146 1.000000 0.029 Uiso 1 2 calc RS T P
C4 C 0.5921(3) 0.8113(3) 1.000000 0.0242(13) Uani 1 2 d S TU P
H4 H 0.630108 0.810202 1.000000 0.029 Uiso 1 2 calc RS T P
C5 C 0.5340(3) 0.7553(3) 1.000000 0.0249(12) Uani 1 2 d S TU P
C6 C 0.4805(3) 0.7591(3) 1.000000 0.0207(12) Uani 1 2 d S TU P
H6 H 0.441392 0.721143 1.000000 0.025 Uiso 1 2 calc RS T P
C7 C 0.4804(3) 0.8148(3) 1.000000 0.0270(14) Uani 1 2 d S T P
H7 H 0.442262 0.815684 1.000000 0.032 Uiso 1 2 calc RS T P
C8 C 0.5332(3) 0.6951(3) 1.000000 0.0212(11) Uani 1 2 d S TU P
C9 C 0.4345(2) 0.90887(19) 0.5971(6) 0.0307(10) Uani 1 1 d . . .
H9 H 0.451141 0.886768 0.662118 0.037 Uiso 1 1 calc R . .
C10 C 0.38902(19) 0.9693(2) 0.5965(6) 0.0285(10) Uani 1 1 d . . .
H10 H 0.372377 0.991410 0.661357 0.034 Uiso 1 1 calc R . .
loop_
_atom_site_aniso_label
_atom_site_aniso_U_11
_atom_site_aniso_U_22
_atom_site_aniso_U_33
_atom_site_aniso_U_23
_atom_site_aniso_U_13
_atom_site_aniso_U_12
Fe1 0.0218(5) 0.0158(4) 0.0131(4) 0.000 0.000 0.0071(4)
O1 0.026(2) 0.020(2) 0.024(2) 0.000 0.000 0.0149(17)
O2 0.033(2) 0.020(2) 0.0134(19) 0.000 0.000 0.0121(19)
O3 0.024(2) 0.026(2) 0.024(2) 0.000 0.000 0.0161(17)
O4 0.0193(19) 0.023(2) 0.023(2) 0.000 0.000 0.0129(16)
N1 0.0256(17) 0.0152(16) 0.0138(15) -0.0014(13) -0.0021(14) 0.0048(14)
C1 0.026(3) 0.028(3) 0.009(3) 0.000 0.000 0.020(3)
C2 0.032(3) 0.015(3) 0.008(2) 0.000 0.000 0.009(3)
C3 0.017(3) 0.034(3) 0.017(3) 0.000 0.000 0.011(3)
C4 0.026(3) 0.028(3) 0.028(3) 0.000 0.000 0.020(2)
C5 0.037(3) 0.021(3) 0.021(3) 0.000 0.000 0.018(2)
C6 0.024(3) 0.020(3) 0.016(3) 0.000 0.000 0.009(2)
C7 0.017(3) 0.036(4) 0.029(3) 0.000 0.000 0.014(3)
C8 0.035(3) 0.024(3) 0.007(2) 0.000 0.000 0.016(2)
C9 0.047(3) 0.033(2) 0.020(2) 0.0010(18) -0.0006(19) 0.026(2)
C10 0.031(2) 0.040(2) 0.020(2) 0.0001(19) 0.0031(18) 0.022(2)
loop_
_atom_type_symbol
_atom_type_description
_atom_type_scat_dispersion_real
_atom_type_scat_dispersion_imag
_atom_type_scat_source
C C 0.0033 0.0016 'International Tables Vol C Tables 4.2.6.8 and 6.1.1.4'
H H 0.0000 0.0000 'International Tables Vol C Tables 4.2.6.8 and 6.1.1.4'
Fe Fe 0.3463 0.8444 'International Tables Vol C Tables 4.2.6.8 and 6.1.1.4'
N N 0.0061 0.0033 'International Tables Vol C Tables 4.2.6.8 and 6.1.1.4'
O O 0.0106 0.0060 'International Tables Vol C Tables 4.2.6.8 and 6.1.1.4'
loop_
_geom_angle_atom_site_label_1
_geom_angle_atom_site_label_2
_geom_angle_atom_site_label_3
_geom_angle
_geom_angle_site_symmetry_1
_geom_angle_site_symmetry_3
O1 Fe1 O2 125.34(15) . 7_677
O1 Fe1 O3 89.78(15) . 2_665
O1 Fe1 O4 150.16(15) . 2_665
O1 Fe1 N1 89.70(9) . 10_557
O1 Fe1 N1 89.71(9) . .
O2 Fe1 O3 144.88(16) 7_677 2_665
O2 Fe1 O4 84.50(15) 7_677 2_665
O2 Fe1 N1 89.45(9) 7_677 10_557
O2 Fe1 N1 89.45(9) 7_677 .
O3 Fe1 O4 60.38(13) 2_665 2_665
N1 Fe1 O3 90.88(8) . 2_665
N1 Fe1 O3 90.88(8) 10_557 2_665
N1 Fe1 O4 90.69(9) 10_557 2_665
N1 Fe1 O4 90.69(9) . 2_665
N1 Fe1 N1 178.14(18) 10_557 .
C1 O1 Fe1 178.5(4) . .
C1 O2 Fe1 112.8(3) . 7_677
C8 O3 Fe1 89.5(3) . 3_565
C8 O4 Fe1 89.9(3) . 3_565
C9 N1 Fe1 121.6(3) . .
C9 N1 C10 116.2(3) . .
C10 N1 Fe1 122.2(3) . .
O1 C1 O2 123.3(5) . .
O1 C1 C2 119.8(5) . .
O2 C1 C2 116.9(5) . .
C3 C2 C1 120.6(5) . .
C3 C2 C7 120.5(5) . .
C7 C2 C1 119.0(5) . .
C2 C3 H3 119.5 . .
C2 C3 C4 121.1(5) . .
C4 C3 H3 119.5 . .
C3 C4 H4 120.5 . .
C3 C4 C5 119.0(5) . .
C5 C4 H4 120.5 . .
C4 C5 C8 118.7(5) . .
C6 C5 C4 118.5(5) . .
C6 C5 C8 122.7(5) . .
C5 C6 H6 118.2 . .
C5 C6 C7 123.5(5) . .
C7 C6 H6 118.2 . .
C2 C7 H7 121.3 . .
C6 C7 C2 117.4(5) . .
C6 C7 H7 121.3 . .
O3 C8 C5 117.7(5) . .
O4 C8 O3 120.2(5) . .
O4 C8 C5 122.0(5) . .
N1 C9 C9 121.8(2) . 10_556
N1 C9 H9 119.1 . .
C9 C9 H9 119.1 10_556 .
N1 C10 C10 122.0(2) . 10_556
N1 C10 H10 119.0 . .
C10 C10 H10 119.0 10_556 .
loop_
_geom_bond_atom_site_label_1
_geom_bond_atom_site_label_2
_geom_bond_distance
_geom_bond_site_symmetry_2
Fe1 O1 2.028(4) .
Fe1 O2 2.066(4) 7_677
Fe1 O3 2.187(4) 2_665
Fe1 O4 2.196(4) 2_665
Fe1 N1 2.161(3) 10_557
Fe1 N1 2.161(3) .
O1 C1 1.246(6) .
O2 C1 1.270(7) .
O3 C8 1.286(7) .
O4 C8 1.256(7) .
N1 C9 1.334(5) .
N1 C10 1.335(5) .
C1 C2 1.498(8) .
C2 C3 1.369(8) .
C2 C7 1.405(8) .
C3 H3 0.9500 .
C3 C4 1.389(8) .
C4 H4 0.9500 .
C4 C5 1.407(8) .
C5 C6 1.365(8) .
C5 C8 1.476(8) .
C6 H6 0.9500 .
C6 C7 1.376(8) .
C7 H7 0.9500 .
C9 C9 1.380(8) 10_556
C9 H9 0.9500 .
C10 C10 1.372(8) 10_556
C10 H10 0.9500 .
loop_
_geom_torsion_atom_site_label_1
_geom_torsion_atom_site_label_2
_geom_torsion_atom_site_label_3
_geom_torsion_atom_site_label_4
_geom_torsion
_geom_torsion_site_symmetry_1
_geom_torsion_site_symmetry_4
Fe1 O2 C1 O1 0.0 7_677 .
Fe1 O2 C1 C2 180.0 7_677 .
Fe1 O3 C8 O4 0.0 3_565 .
Fe1 O3 C8 C5 180.0 3_565 .
Fe1 O4 C8 O3 0.0 3_565 .
Fe1 O4 C8 C5 180.0 3_565 .
Fe1 N1 C9 C9 178.94(10) . 10_556
Fe1 N1 C10 C10 -178.94(10) . 10_556
O1 C1 C2 C3 180.0 . .
O1 C1 C2 C7 0.0 . .
O2 C1 C2 C3 0.0 . .
O2 C1 C2 C7 180.0 . .
C1 C2 C3 C4 180.0 . .
C1 C2 C7 C6 180.0 . .
C2 C3 C4 C5 0.0 . .
C3 C2 C7 C6 0.0 . .
C3 C4 C5 C6 0.0 . .
C3 C4 C5 C8 180.0 . .
C4 C5 C6 C7 0.0 . .
C4 C5 C8 O3 180.0 . .
C4 C5 C8 O4 0.0 . .
C5 C6 C7 C2 0.0 . .
C6 C5 C8 O3 0.0 . .
C6 C5 C8 O4 180.0 . .
C7 C2 C3 C4 0.0 . .
C8 C5 C6 C7 180.0 . .
C9 N1 C10 C10 0.0(4) . 10_556
C10 N1 C9 C9 0.0(4) . 10_556
