#------------------------------------------------------------------------------
#$Date: 2017-06-05 03:09:04 +0300 (Mon, 05 Jun 2017) $
#$Revision: 197396 $
#$URL: file:///home/coder/svn-repositories/cod/cif/4/34/57/4345751.cif $
#------------------------------------------------------------------------------
#
# This file is available in the Crystallography Open Database (COD),
# http://www.crystallography.net/
#
# All data on this site have been placed in the public domain by the
# contributors.
#
data_4345751
loop_
_publ_author_name
'Chen, Qiu-Fang'
'Zhao, Xin'
'Liu, Quan'
'Jia, Ji-Dong'
'Qiu, Xiao-Ting'
'Song, Ying-Lin'
'Young, David James'
'Zhang, Wen-Hua'
'Lang, Jian-Ping'
_publ_section_title
;
 Tungsten(VI)-Copper(I)-Sulfur Cluster-Supported Metal-Organic Frameworks
 Bridged by in Situ Click-Formed Tetrazolate Ligands.
;
_journal_issue                   10
_journal_name_full               'Inorganic chemistry'
_journal_page_first              5669
_journal_page_last               5679
_journal_paper_doi               10.1021/acs.inorgchem.7b00261
_journal_volume                  56
_journal_year                    2017
_chemical_formula_moiety         'C39 H59 B2 Cu6 N27 S6 W2'
_chemical_formula_sum            'C39 H59 B2 Cu6 N27 S6 W2'
_chemical_formula_weight         1869.05
_space_group_crystal_system      trigonal
_space_group_IT_number           148
_space_group_name_Hall           '-R 3'
_space_group_name_H-M_alt        'R -3 :H'
_symmetry_space_group_name_Hall  '-R 3'
_symmetry_space_group_name_H-M   'R -3 :H'
_atom_sites_solution_hydrogens   mixed
_audit_creation_method           SHELXL-2013
_audit_update_record
;
2016-07-14 # Formatted by publCIF

;
_cell_angle_alpha                90
_cell_angle_beta                 90
_cell_angle_gamma                120
_cell_formula_units_Z            6
_cell_length_a                   12.0896(7)
_cell_length_b                   12.0896(7)
_cell_length_c                   81.755(7)
_cell_measurement_reflns_used    3062
_cell_measurement_temperature    223(2)
_cell_measurement_theta_max      22.4300
_cell_measurement_theta_min      3.3520
_cell_volume                     10348.3(12)
_computing_cell_refinement
;
CrysAlisPro, Agilent Technologies,
Version 1.171.36.32 (release 02-08-2013 CrysAlis171 .NET)
(compiled Aug  2 2013,16:46:58)
;
_computing_data_collection
;
CrysAlisPro, Agilent Technologies,
Version 1.171.36.32 (release 02-08-2013 CrysAlis171 .NET)
(compiled Aug  2 2013,16:46:58)
;
_computing_data_reduction
;
CrysAlisPro, Agilent Technologies,
Version 1.171.36.32 (release 02-08-2013 CrysAlis171 .NET)
(compiled Aug  2 2013,16:46:58)
;
_computing_molecular_graphics    'SHELXL-2013 (Sheldrick, 2013)'
_computing_publication_material  'publCIF (Westrip, 2010)'
_computing_structure_refinement  'SHELXL-2013 (Sheldrick, 2013)'
_computing_structure_solution    'SHELXL-2013 (Sheldrick, 2013)'
_diffrn_ambient_temperature      223(2)
_diffrn_measured_fraction_theta_full 0.997
_diffrn_measured_fraction_theta_max 0.997
_diffrn_measurement_device_type  'Xcalibur, Atlas, Gemini'
_diffrn_measurement_method       'phi and omega scans'
_diffrn_radiation_type           MoK\a
_diffrn_radiation_wavelength     0.71073
_diffrn_reflns_av_R_equivalents  0.1091
_diffrn_reflns_av_unetI/netI     0.1091
_diffrn_reflns_Laue_measured_fraction_full 0.997
_diffrn_reflns_Laue_measured_fraction_max 0.997
_diffrn_reflns_limit_h_max       13
_diffrn_reflns_limit_h_min       -14
_diffrn_reflns_limit_k_max       14
_diffrn_reflns_limit_k_min       -13
_diffrn_reflns_limit_l_max       96
_diffrn_reflns_limit_l_min       -99
_diffrn_reflns_number            18442
_diffrn_reflns_point_group_measured_fraction_full 0.997
_diffrn_reflns_point_group_measured_fraction_max 0.997
_diffrn_reflns_theta_full        25.242
_diffrn_reflns_theta_max         25.681
_diffrn_reflns_theta_min         3.362
_diffrn_standards_decay_%        0
_diffrn_standards_interval_count 0
_diffrn_standards_interval_time  0
_diffrn_standards_number         0
_exptl_absorpt_coefficient_mu    5.363
_exptl_absorpt_correction_T_max  0.447
_exptl_absorpt_correction_T_min  0.396
_exptl_absorpt_correction_type   multi-scan
_exptl_absorpt_process_details
;
CrysAlisPro, Agilent Technologies,
Version 1.171.36.32 (release 02-08-2013 CrysAlis171 .NET)
(compiled Aug  2 2013,16:46:58)
Empirical absorption correction using spherical harmonics,
 implemented in SCALE3 ABSPACK scaling algorithm.
;
_exptl_crystal_colour            black
_exptl_crystal_density_diffrn    1.800
_exptl_crystal_description       block
_exptl_crystal_F_000             5460
_exptl_crystal_size_max          0.200
_exptl_crystal_size_mid          0.150
_exptl_crystal_size_min          0.150
_refine_diff_density_max         2.379
_refine_diff_density_min         -2.315
_refine_diff_density_rms         0.253
_refine_ls_extinction_method     none
_refine_ls_goodness_of_fit_ref   1.117
_refine_ls_hydrogen_treatment    mixed
_refine_ls_matrix_type           full
_refine_ls_number_parameters     248
_refine_ls_number_reflns         4370
_refine_ls_number_restraints     2
_refine_ls_restrained_S_all      1.117
_refine_ls_R_factor_all          0.1455
_refine_ls_R_factor_gt           0.0991
_refine_ls_shift/su_max          0.000
_refine_ls_shift/su_mean         0.000
_refine_ls_structure_factor_coef Fsqd
_refine_ls_weighting_details
;
 w=1/[\s^2^(Fo^2^)+(0.0678P)^2^+1047.2578P]
 where P=(Fo^2^+2Fc^2^)/3
;
_refine_ls_weighting_scheme      calc
_refine_ls_wR_factor_gt          0.2286
_refine_ls_wR_factor_ref         0.2526
_reflns_Friedel_coverage         0.000
_reflns_number_gt                2861
_reflns_number_total             4370
_reflns_threshold_expression     'I > 2\s(I)'
_cod_data_source_file            ic7b00261_si_002.cif
_cod_data_source_block           3a
_cod_depositor_comments
'Adding full bibliography for 4345750--4345757.cif.'
_cod_original_cell_volume        10348.2(15)
_cod_database_code               4345751
_publcif_datablock.id            {b62a27c4-6f08-4882-9889-cba5fd7938e5}
_shelx_space_group_comment
;
The symmetry employed for this shelxl refinement is uniquely defined
by the following loop, which should always be used as a source of
symmetry information in preference to the above space-group names.
They are only intended as comments.
;
_shelx_estimated_absorpt_t_min   0.413
_shelx_estimated_absorpt_t_max   0.500
_shelxl_version_number           2013-2
_shelx_res_file
;
TITL WC2 in R-3
CELL 0.71073  12.0896  12.0896  81.7546  90.000  90.000 120.000
ZERR   6.00   0.0007   0.0007   0.0068   0.000   0.000   0.000
LATT  3
SYMM -Y, X-Y, Z
SYMM -X+Y, -X, Z
SFAC C H B N S CU W
UNIT 234 354 12 162 36 36 12
TEMP -50
SIZE 0.15 0.15 0.2
DFIX 1.15 0.02 B1 H1B1 B2 H1B2

L.S. 30
BOND $H
FMAP 2
PLAN -6
SHEL 99999 0.82
EADP N9 N10 N11
EADP B2 N8
ACTA

ABIN
WGHT    0.067800 1047.257812
FVAR       0.06542
W1    7    0.000000    1.000000    0.145170    10.33333    0.04751    0.04751 =
         0.02705    0.00000    0.00000    0.02376
W2    7    0.333333    0.666667    0.040722    10.33333    0.04462    0.04462 =
         0.02474    0.00000    0.00000    0.02231
CU1   6    0.117375    0.966079    0.120319    11.00000    0.05662    0.05537 =
         0.03409   -0.00455    0.00149    0.03164
CU2   6    0.306151    0.787467    0.066053    11.00000    0.05398    0.05083 =
         0.04144   -0.00723    0.00469    0.02460
S1    5   -0.042738    0.809471    0.133383    11.00000    0.05623    0.04262 =
         0.03599    0.00214   -0.00411    0.02187
S2    5    0.487554    0.854365    0.052244    11.00000    0.04135    0.04853 =
         0.03380    0.00050    0.00271    0.01697
N1    4    0.033547    1.133157    0.180140    11.00000    0.04144    0.05842 =
         0.03014    0.00546   -0.00548    0.01739
N2    4    0.035153    1.156885    0.163361    11.00000    0.02957    0.05037 =
         0.03776   -0.01926    0.00004    0.02156
N3    4    0.209386    0.950213    0.102163    11.00000    0.07561    0.05147 =
         0.03246   -0.00423    0.00823    0.03490
N4    4    0.332468    1.035925    0.100121    11.00000    0.04461    0.03756 =
         0.05687   -0.01290    0.00576    0.01366
N5    4    0.374774    0.997871    0.087957    11.00000    0.05034    0.08984 =
         0.04839   -0.01514    0.00125    0.03292
N6    4    0.279060    0.889268    0.082050    11.00000    0.04739    0.05215 =
         0.04588   -0.00715    0.00653    0.01921
N7    4    0.482314    0.688708    0.022445    11.00000    0.05761    0.06126 =
         0.03606    0.01358    0.02107    0.04573
N8    4    0.456722    0.679182    0.005541    11.00000    0.07087    0.06476 =
         0.02974    0.00328    0.01871    0.04590
N9    4    0.333333    0.666667    0.088759    10.33333    0.10363    0.10363 =
         0.04528    0.00000    0.00000    0.05181
N10   4    0.333333    0.666667    0.103085    10.33333    0.10363    0.10363 =
         0.04528    0.00000    0.00000    0.05181
N11   4    0.333333    0.666667    0.121491    10.33333    0.10363    0.10363 =
         0.04528    0.00000    0.00000    0.05181
C1    1    0.074910    1.247964    0.206425    11.00000    0.10022    0.08051 =
         0.04191   -0.01326   -0.00822    0.04370
AFIX 137
H1A   2    0.085874    1.329453    0.209956    11.00000   -1.50000
H1B   2    0.149356    1.242299    0.209532    11.00000   -1.50000
H1C   2   -0.000465    1.179251    0.211577    11.00000   -1.50000
AFIX   0
C2    1    0.059578    1.237098    0.188409    11.00000    0.05526    0.06097 =
         0.04186   -0.00225    0.00465    0.03504
C3    1    0.078272    1.327694    0.177189    11.00000    0.08727    0.05890 =
         0.04799   -0.02251   -0.00168    0.04578
AFIX  43
H3    2    0.098494    1.411930    0.179501    11.00000   -1.20000
AFIX   0
C4    1    0.062501    1.274903    0.161849    11.00000    0.05003    0.04154 =
         0.04602   -0.02034   -0.01412    0.01683
C5    1    0.069140    1.341790    0.146339    11.00000    0.07765    0.05043 =
         0.06747    0.01052    0.01302    0.04433
AFIX 137
H5A   2    0.136373    1.345374    0.139490    11.00000   -1.50000
H5B   2    0.087329    1.427868    0.148737    11.00000   -1.50000
H5C   2   -0.011944    1.295837    0.140655    11.00000   -1.50000
AFIX   0
C6    1    0.174093    0.854326    0.091049    11.00000    0.03582    0.04946 =
         0.03279    0.00284    0.00504    0.01593
C7    1    0.046373    0.747119    0.087987    11.00000    0.08209    0.06032 =
         0.03169   -0.00367    0.02835   -0.00042
AFIX  23
H7A   2   -0.000776    0.722099    0.098340    11.00000   -1.20000
H7B   2    0.053947    0.674455    0.084122    11.00000   -1.20000
AFIX   0
C8    1   -0.029721    0.774163    0.075675    11.00000    0.05595    0.12551 =
         0.06486   -0.01008    0.00029    0.02281
AFIX 137
H8A   2    0.027898    0.837643    0.067927    11.00000   -1.50000
H8B   2   -0.078834    0.806137    0.081273    11.00000   -1.50000
H8C   2   -0.087249    0.696131    0.069895    11.00000   -1.50000
AFIX   0
C9    1    0.669364    0.717372    0.039251    11.00000    0.03979    0.12167 =
         0.07847   -0.01356   -0.00183    0.04996
AFIX 137
H9A   2    0.690492    0.798983    0.044054    11.00000   -1.50000
H9B   2    0.747141    0.714636    0.037335    11.00000   -1.50000
H9C   2    0.614535    0.649072    0.046661    11.00000   -1.50000
AFIX   0
C10   1    0.601925    0.701194    0.023494    11.00000    0.07129    0.05611 =
         0.03963    0.00876    0.00401    0.04001
C11   1    0.644634    0.698385    0.007824    11.00000    0.04722    0.07454 =
         0.06308   -0.00333    0.02138    0.03392
AFIX  43
H11   2    0.724683    0.707894    0.005227    11.00000   -1.20000
AFIX   0
C12   1    0.554347    0.680090   -0.002967    11.00000    0.07599    0.05307 =
         0.04320    0.00085   -0.00182    0.02363
C13   1    0.551390    0.663876   -0.021013    11.00000    0.11605    0.07566 =
         0.03661    0.00333    0.03876    0.04035
AFIX 137
H13A  2    0.492633    0.575360   -0.023783    11.00000   -1.50000
H13B  2    0.636256    0.687666   -0.024892    11.00000   -1.50000
H13C  2    0.523352    0.718019   -0.026139    11.00000   -1.50000
AFIX   0
B1    3    0.000000    1.000000    0.187690    10.33333    0.07181    0.07181 =
         0.02332    0.00000    0.00000    0.03590
H1B1  2    0.000000    1.000000    0.201761    10.33333   -1.50000
B2    3    0.333333    0.666667   -0.000765    10.33333    0.07087    0.06476 =
         0.02974    0.00328    0.01871    0.04590
H1B2  2    0.333333    0.666667   -0.014834    10.33333   -1.50000

HKLF 4

REM  WC2 in R-3
REM R1 =  0.0991 for    2861 Fo > 4sig(Fo)  and  0.1455 for all    4370 data
REM    248 parameters refined using      2 restraints

END

WGHT      0.0663   1062.0723

REM Highest difference peak  2.379,  deepest hole -2.315,  1-sigma level  0.253
Q1    1   0.1239  1.1553  0.1203  11.00000  0.05    2.38
Q2    1   0.3052  0.5189  0.0657  11.00000  0.05    2.29
Q3    1   0.0000  0.0000  0.0840  10.33333  0.05    2.29
Q4    1   0.3619  0.5396  0.0149  11.00000  0.05    2.02
Q5    1   0.0412  1.0767  0.1388  11.00000  0.05    1.75
Q6    1   0.2861  0.6952  0.0483  11.00000  0.05    1.75
;
_shelx_res_checksum              82357
_shelx_hkl_file
;
   0   0 -15 1121.85   35.51
   0   0 -15 1072.60   48.60
   0   0  15 1069.23   53.04
   0   0 -18  200.39   16.22
   0   0  18  186.66   24.68
   0   0  18  192.48   15.79
   0   0 -18  169.10   21.27
   0   0  21  282.59   21.07
   0   0  21  309.83   34.22
   0   0 -21  244.77   27.52
   0   0 -21  320.70   22.04
   0   0 -24  132.17   21.98
   0   0  24  148.46   16.38
   0   0 -24  153.11   16.43
   0   0  24  127.24   23.90
   0   0 -27  369.33   26.67
   0   0 -27  348.81   36.79
   0   0  27  331.30   25.78
   0   0  27  340.44   40.76
   0   0 -30  147.72   25.98
   0   0  30  135.60   17.65
   0   0 -30  170.92   19.42
   0   0  30  116.56   25.42
   0   0  33  892.67   73.57
   0   0  33  904.74   48.08
   0   0 -33 1019.94   49.31
   0   0 -33  899.65   66.11
   0   0  36 1128.79   87.05
   0   0 -36 1223.56   56.51
   0   0 -36 1142.79   77.98
   0   0  36 1159.06   56.81
   0   0 -39 1044.46   54.54
   0   0  39  887.48   80.96
   0   0 -39  946.08   73.43
   0   0  39  926.82   51.96
   0   0  42 1439.93   66.65
   0   0 -42 1639.42   70.86
   0   0 -42 1547.60   97.84
   0   0  42 1439.36  106.92
   0   0 -45    4.02    7.97
   0   0 -45   23.84   10.79
   0   0  45   21.61    8.39
   0   0  45   29.32   20.39
   0   0  48 2269.21   87.80
   0   0  48 2415.15  149.82
   0   0 -48 2510.77  134.02
   0   0 -48 2451.94  148.51
   0   0 -48 2458.76   92.93
   0   0 -51    6.47   11.26
   0   0  51   16.23   12.81
   0   0 -51   28.41   12.59
   0   0 -51   25.92   20.53
   0   0  51   16.34    7.64
   0   0 -54  136.29   23.32
   0   0 -54  127.76   34.08
   0   0  54  140.54   22.82
   0   0 -54  121.99   35.79
   0   0 -57   27.60   10.62
   0   0 -57   73.88   32.74
   0   0  57   37.49   12.89
   0   0 -60   19.50   10.48
   0   0  60   16.30    8.73
   0   0 -63  700.03   56.51
   0   0  63  555.65   46.72
   0   0 -66  540.32   50.95
   0   0  66  425.00   41.82
   0   0 -69   -4.90   12.88
   0   0  69    1.22    7.14
   0   0  72  196.18   28.14
   0   0 -72  287.22   39.26
   0   0  75 1581.49   81.47
   0   0 -75 1983.65  182.09
   0   0 -75 1933.18   99.74
   0   0 -78   26.89   32.06
   0   0  78   33.07   15.82
   0   0 -78   -1.33   13.68
   0   0 -81  -57.37   42.67
   0   0 -84   92.88   44.66
   0   0 -87 1122.97  155.53
   0   0 -90  394.33   93.72
   0   0 -93   12.82   24.98
   0   0 -96   70.93   29.58
   0   0 -99   72.53   47.83
   0   0-102  -31.73   26.00
   0   0-105  -37.30   37.63
  -1   1-104    2.32   39.32
   0  -1-104   12.52   31.60
   1   0-104   25.96   32.32
  -1   1-101  -97.50   56.58
   0  -1-101  -15.17   33.90
   1   0-101  -30.73   38.51
   0  -1 -98   23.09   22.05
  -1   1 -98  -34.25   37.91
   1   0 -98   36.27   36.28
   0  -1 -95   95.67   53.93
   1   0 -95  130.74   55.01
  -1   1 -95   13.22   19.29
   0  -1 -92   89.94   48.15
   1   0 -92  137.30   63.17
  -1   1 -92   93.66   48.67
   1   0 -89  -11.38   27.47
   0  -1 -89    9.56   25.85
   1   0 -86  143.59   57.65
   0  -1 -86  134.74   57.73
   1   0 -83 1371.11  162.22
  -1   0  83 1177.99   84.24
   0  -1 -83 1070.78  143.41
   1   0 -80   -1.56   13.66
  -1   0  80  -37.84   20.58
   1   0 -80   13.04   18.02
   0  -1 -80   47.06   33.60
  -1   0  77   16.95    7.13
  -1   1 -77   12.11   11.17
   1   0 -77    6.98   19.67
   0  -1 -77   -2.33   20.63
   1   0 -77   16.16   14.48
   1   0 -74   27.99   15.52
  -1   1 -74   27.63   14.38
   0  -1 -74   62.81   36.57
   1   0 -74   63.97   34.09
  -1   0  74   43.08   19.94
  -1   0  71 1326.39   89.07
  -1   1 -71 1464.77   92.40
   1   0 -71 1390.63   96.51
   1   0 -71 1330.82  142.54
   0  -1 -71 1310.53  142.18
  -1   0  68  159.15   31.87
  -1   0  68  153.16   48.54
   0  -1 -68  132.82   44.11
  -1   1 -68  157.89   31.10
   1   0 -68  184.48   34.74
   1   0 -68  165.79   50.56
   1   0 -65   18.75    9.49
   1  -1  65   14.12    6.27
  -1   0  65   -2.30    8.81
  -1   0  65   11.04   15.81
   1   0 -65   -3.68   21.89
   0   1  65   21.39    8.23
   0  -1 -65    0.33   20.25
   0  -1 -65   11.84    5.24
  -1   1 -65   19.06    9.69
   1  -1  62  240.44   31.54
  -1   0  62  292.30   41.23
   0  -1 -62  227.90   24.38
   1   0 -62  305.87   42.79
   0   1  62  194.21   20.39
   1   0 -62  278.43   58.93
   0  -1 -62  249.78   55.16
  -1   1 -62  287.68   38.70
  -1   0  62  273.06   59.44
   1   0 -59   31.91   22.76
  -1   0  59    6.48    7.56
   0  -1 -59   13.50    7.07
   1   0 -59   12.09    7.18
   1   0 -59    2.37   16.78
  -1   0  59   -6.54   22.48
   0   1  59    9.75    5.02
  -1   1 -59   16.35    9.72
   1  -1  59   21.87   10.35
  -1   1 -56  127.82   32.07
   0   1  56   81.72   12.91
   0  -1 -56  107.76   16.08
  -1   0  56  145.80   28.82
   1  -1  56   95.42   19.57
  -1   1 -56  126.99   36.69
   1   0 -56   42.09   18.93
   0   1  56  112.54   37.30
  -1   1 -56  128.49   25.03
   1   0 -56  144.80   40.05
   1   0 -56  133.35   27.67
  -1   0  56  134.51   39.18
  -1   1 -53    8.61   15.16
   1   0 -53   40.42   26.11
   1   0 -53    5.35    6.97
   0   1  53    5.16    3.32
  -1   1 -53    2.14    5.61
   0  -1 -53    9.25    5.55
  -1   0  53  -24.19   17.95
   0   1  53   -9.33   14.82
  -1   1 -53   14.01   10.12
   1   0 -53    2.96    5.89
   0  -1 -53   11.47   12.01
  -1   0  53   -2.42    9.51
   1  -1  53    3.17    5.77
   0   1  50  557.95   77.20
  -1   1 -50  565.61   64.26
   0  -1 -50  559.08   67.65
   0  -1 -50  495.55   33.09
  -1   1 -50  512.18   69.60
  -1   1 -50  594.89   50.67
  -1   0  50  578.47   54.20
   1   0 -50  589.52   72.43
   1   0 -50  511.68   63.64
  -1   0  50  552.18   73.40
   0   1  50  409.57   28.09
   1  -1  50  520.04   43.93
   1   0 -50  549.76   51.87
  -1   1 -47  333.33   36.81
  -1   1 -47  299.77   52.53
   0   1  47  269.33   52.59
   0  -1 -47  296.51   47.51
   0   1  47  254.81   21.57
   1   0 -47  297.87   46.16
   1  -1  47  303.06   33.07
   0  -1 -47  269.64   23.85
  -1   0  47  314.76   54.75
  -1   1 -47  311.86   47.11
   1   0 -47  320.40   38.81
  -1   0  47  301.88   38.59
   1   0 -47  302.77   50.72
   0  -1 -44 1407.47   99.63
  -1   1 -44 1336.02  105.24
  -1   1 -44 1385.89   72.57
   1  -1  44 1187.94   64.44
   1   0 -44 1262.70   98.02
  -1   0  44 1271.78   76.52
   0   1  44  982.49   41.34
   0   1  44 1357.35  110.64
   1   0 -44 1351.76   76.39
  -1   0  44 1233.33  102.41
  -1   1 -44 1350.16   91.82
   0  -1 -44 1203.13   47.87
   1  -1  41    8.72    8.16
   0   1  41   10.37   10.32
  -1   0  41    6.27    6.55
   1   0 -41   30.43   18.05
  -1   1 -41    1.62    6.22
   0  -1 -41    7.36    4.82
  -1   0  41   -4.75   13.31
   1   0 -41   14.78   10.07
   0   1  41    3.36    3.38
   0  -1 -41    7.30   10.62
  -1   1 -41   -2.32    6.69
  -1   1 -41   17.75   15.55
   1   0 -38  362.69   49.85
   0   1  38  355.95   52.90
  -1   0  38  354.95   39.12
  -1   1 -38  318.49   32.90
   0  -1 -38  371.45   47.62
   1   0 -38  349.78   37.03
   0   1  38  264.36   19.51
  -1   0  38  360.95   52.50
   1  -1  38  328.14   31.98
  -1   1 -38  369.12   44.75
   0  -1 -38  277.85   20.66
   1   0 -35 1845.49   81.18
   0  -1 -35 1469.02   45.09
   1  -1  35 1646.17   69.12
  -1   0  35 1743.22  106.86
   0   1  35 1785.12  113.16
  -1   0  35 1782.25   82.90
   0  -1 -35 1775.31  100.08
  -1   1 -35 1689.13   73.82
   0   1  35 1369.23   43.08
  -1   1 -35 1810.41   93.32
   1   0 -35 1727.56  102.06
  -1   1 -32  173.40   22.50
   0  -1 -32  143.62   12.98
   0   1  32  116.06   11.58
   0  -1 -32  159.34   29.34
   1   0 -32  215.83   27.17
  -1   0  32  198.55   26.62
  -1   1 -32  181.16   28.80
   0   1  32  166.59   34.01
  -1   0  32  206.07   34.72
   1  -1  32  153.87   19.80
  -1   1 -29    9.16    7.84
   0   1  29   16.96   11.50
   0  -1 -29    8.41    5.92
   1   0 -29   -5.89    5.88
  -1   0  29   -4.40   10.21
  -1   0  29    4.02    4.87
   1  -1  29    1.99    4.99
  -1   1 -29    6.05    5.69
   0   1  26   -6.49    6.50
   1   0 -26    2.75    6.29
  -1   1 -26    7.97    6.81
  -1   0  26   -4.05    8.50
  -1   1 -26    7.99    7.32
   0  -1 -26    2.22    8.31
   1  -1  26    1.33    4.28
  -1   0  26   -5.14    4.01
  -1   0  23   67.32   17.12
   0   1  23   85.93   20.91
   1  -1  23   81.40   13.34
   0  -1 -23   68.59   17.32
  -1   1 -23   75.66   13.77
   1   0 -23   97.28   16.37
  -1   0  23  105.34   17.59
  -1   1 -23   81.40   16.89
   0  -1 -20  114.26   20.33
   1  -1  20  102.63   14.17
  -1   0  20  127.54   18.34
   0   1  20  128.29   23.59
  -1   1 -20  118.30   16.29
  -1   0  20   84.37   17.50
  -1   1 -20  106.41   16.59
   1   0 -20  131.74   18.25
  -1   0  17  551.53   41.90
   0   1  17  542.52   45.27
  -1   1 -17  504.19   31.60
  -1   1 -17  526.90   34.42
   1  -1  17  493.32   30.55
   1   0 -17  556.97   35.57
  -1   0  17  564.41   36.97
   0  -1 -17  523.05   41.43
   0   1  14   18.71    9.19
   0  -1 -14   28.85    9.70
  -1   1 -14   18.16    6.40
  -1   0  14   25.52    7.54
   1  -1  14   12.94    5.15
  -1   1 -14   19.64    5.98
  -1   0  14   24.74    9.15
  -1   0  11  374.65   30.46
   0  -1 -11  359.01   27.75
  -1   0 -13  405.02   31.07
  -1   1  13  510.46   38.73
   1  -1 -13  457.54   26.65
  -1   1  13  416.11   34.02
   0  -1  13  396.58   29.05
   0  -1  16  545.82   35.21
   0  -1  16  577.19   37.15
  -1   1  16  571.17   44.19
  -1   0 -16  591.13   39.66
  -1   1  16  685.33   48.67
  -1   1  16  649.74   32.39
   1  -1 -16  642.34   32.37
   1  -1 -19  412.74   27.53
   0  -1  19  363.70   32.12
  -1   0 -19  407.61   35.28
   0  -1  19  376.16   31.81
   0   1 -19  409.82   32.61
  -1   1  19  436.14   27.67
  -1   1  19  388.82   39.69
  -1   1  22   12.38    6.73
  -1   0 -22    9.24    3.75
  -1   1  22   11.23   10.32
   0  -1  22   16.04   11.95
   0  -1  22    4.20    5.39
   1  -1 -22   15.91    6.52
   0   1 -22   16.56    9.16
   1  -1 -22   13.00    8.75
  -1   0 -22   25.51   12.06
   0  -1  25    5.73    9.16
  -1   0 -25   21.22   10.94
  -1   0 -25   17.42    5.12
   0   1 -25    9.58    6.46
   1  -1 -25   13.55    6.39
  -1   1  25    6.50    6.63
  -1   1  25   17.22    6.45
   0  -1  25   11.07    7.86
   1  -1 -25   32.62   13.32
   1  -1 -28   25.54    8.20
   0  -1  28   32.89   11.68
  -1   1  28   16.78    6.04
   1  -1 -28   34.79   12.82
  -1   0 -28   12.34    8.18
  -1   1  28   12.95    9.66
   0   1 -28   17.71    8.48
   0  -1  28   17.61   11.34
  -1   0 -28   14.29    5.23
   0  -1  31 1632.67   91.95
   1  -1 -31 1878.57   67.80
  -1   0 -31 1748.76   92.28
   0   1 -31 1750.75   92.86
  -1   0 -31 1646.23   50.86
  -1   1  31 1958.57   70.59
   0  -1  31 1766.60   81.40
   0   1 -31 1869.88   80.82
  -1   1  31 1813.02  106.49
   1  -1 -31 1702.52   91.78
   0   1 -34    6.86    6.44
  -1   0 -34   27.12   13.77
   1  -1 -34    1.31    8.42
   0  -1  34   12.97    7.05
   1  -1 -34   24.85    9.17
  -1   1  34    5.06    8.90
  -1   1  34    7.94    4.89
  -1   0 -34   13.89    5.17
   0  -1  34    8.74    6.32
   0   1 -34   10.40    6.32
   0   1 -37  153.32   31.15
  -1   0 -37  143.87   16.24
  -1   1  37  143.90   33.32
  -1   0 -37  174.02   32.07
  -1   1  37  188.02   23.81
   1  -1 -37  149.45   19.93
   0  -1  37  165.05   26.32
   1  -1 -37  144.29   29.52
   0   1 -37  184.32   27.91
   0  -1  37  154.06   31.68
   1  -1 -40 1093.34   57.39
   0   1 -40 1217.65   72.48
   0   1 -40 1141.95   87.41
  -1   0 -40 1081.67   81.87
  -1   1  40 1127.22   95.62
   0  -1  40 1108.71   70.30
  -1   1  40 1157.76   60.52
  -1   0 -40  986.75   45.16
   1  -1 -40 1114.01   84.51
  -1   0 -43  684.85   39.00
  -1   0 -43  775.55   71.74
  -1   1  43  746.47   80.90
   0   1 -43  766.58   75.18
   1  -1 -43  680.08   68.16
   0  -1  43  708.71   56.89
  -1   1  43  767.44   50.41
   1  -1 -43  768.87   49.23
   0   1 -43  851.96   62.21
  -1   1  46 1082.41  100.24
   0   1 -46 1161.51   95.58
  -1   1  46 1151.78   63.72
   1  -1 -46 1104.51   90.18
  -1   0 -46 1174.38   91.16
   0   1 -46 1140.19   87.03
  -1   0 -46 1084.96   50.77
   1  -1 -46 1120.62   61.48
   0   1 -46 1245.12   76.44
   0  -1  46 1138.22   73.06
  -1   1  49   10.73    9.39
   0   1 -49    2.83   12.95
  -1   0 -49   21.73   14.76
   0  -1  49  -12.75   12.18
   1  -1 -49   12.39   11.42
   0   1 -49   -6.17   13.42
   0   1 -49    4.08    6.91
  -1   0 -49   18.46    7.60
  -1   1  49   26.54   22.34
   1  -1 -49   14.97   10.61
  -1   1  52  907.90   59.68
   0   1 -52  871.86   90.36
  -1   0 -52  828.38   93.39
  -1   1  52  893.26   98.88
   1  -1 -52  971.31   61.49
  -1   0 -52  827.12   47.47
   0   1 -52  960.98   70.86
   0   1 -52  922.32   84.17
   1  -1 -52  934.36   97.34
  -1   0 -52  910.37   85.42
   0  -1  52  888.84   66.79
   1  -1 -52 1021.13   92.41
  -1   1  55   -5.68   14.42
   0   1 -55   21.55   11.89
   1  -1 -55    8.94    6.49
   0   1 -55   30.02   18.51
  -1   0 -55   22.33    9.12
  -1   1  55   22.82   10.49
   0   1 -55   24.39   22.40
   1  -1 -55  -37.04   31.84
  -1   0 -55    8.37   11.40
   0  -1  55   11.97   11.50
  -1   0 -55   42.20   19.71
   1  -1 -55   33.88   24.68
   0   1 -58  107.21   24.85
   0   1 -58  142.06   43.10
  -1   1  58   82.15   31.92
  -1   0 -58  112.25   18.55
  -1   1  58  125.25   23.63
   1  -1 -58   81.90   29.56
   1  -1 -58  113.43   21.57
   0  -1  58  102.54   24.43
  -1   0 -61    5.43    4.97
  -1   1  61    0.11    6.47
   0  -1  61   -7.41    9.84
   1  -1 -61   13.64   14.99
   0   1 -61    0.14    9.70
   1  -1 -61  -13.13   11.15
  -1   0 -64   58.66   14.53
  -1   1  64   50.29   13.43
   0  -1  64   68.18   20.39
  -1   1  64   92.88   34.46
   1  -1 -64   20.76   15.05
   1  -1 -64  115.23   23.79
   0   1 -64   78.41   23.82
  -1   1  67  775.15   57.51
   1  -1 -67  953.50   67.73
   0  -1  67  842.07   69.48
   1  -1 -67  911.53  112.56
  -1   0 -67  859.72   53.37
  -1   1  67  875.53  111.08
   0   1 -67  956.14   80.37
  -1   1  70  197.06   57.69
   0   1 -70  163.85   34.76
  -1   1  70  127.67   25.09
   1  -1 -70  126.20   46.08
   0  -1  70  157.63   31.11
   1  -1 -70  156.51   27.99
  -1   0 -70  135.30   21.68
   0   1 -73   19.44   11.06
  -1   1  73  -17.55   16.89
   0  -1  73   -9.73   14.50
  -1   0 -73  -15.28    9.69
  -1   1  73   16.24   16.91
   1  -1 -73  -13.28   31.63
   1  -1 -73    1.97   13.24
  -1   1  76  -14.14   13.38
   0   1 -76  -33.24   21.37
   1  -1 -76   -6.69   18.95
  -1   0 -76    9.96    7.76
   0  -1  76   -8.75   12.57
   1  -1 -76  -59.28   24.06
  -1   1  79  966.40   62.79
   0  -1  79 1156.21   84.87
   1  -1 -79 1268.83   80.84
   1  -1 -79 1334.57  154.29
   0   1 -79 1453.09  106.73
  -1   0 -79  946.70   54.33
   0  -1  82   63.22   21.63
  -1   1  82   53.31   15.42
   1  -1 -82  109.42   49.61
   0   1 -82  101.27   49.98
   1  -1 -85   25.22   24.15
   0   1 -85    4.14   21.50
   0  -1  85    9.97    8.06
  -1   0 -85   16.27   18.35
  -1   0 -88   55.84   32.06
   1  -1 -88   84.33   39.15
   0   1 -88    6.56   21.65
   0   1 -91  381.98   98.04
  -1   0 -91  338.20   90.95
   1  -1 -91  345.12   86.36
  -1   0 -94   18.77   27.24
   0   1 -94   75.01   46.61
   1  -1 -94   61.02   39.81
  -1   0 -97   46.88   19.14
   0   1 -97  -28.28   29.02
   1  -1 -97   -7.58   24.31
  -1   0-100   50.28   37.45
   1  -1-100   27.20   31.71
   0   1-100   -8.00   22.87
   0   1-103  -36.88   42.96
  -1   0-103  -50.51   50.66
   1  -1-103  -17.60   39.89
   1  -1-106  -16.91   33.42
   0   1-106   69.51   51.76
  -1   0-106   18.11   31.66
   2  -1-105   33.17   33.74
  -1   2-105  -56.98   54.87
  -1  -1-105   25.88   26.90
   2  -1-102  -68.05   46.77
  -1   2-102   -7.15   32.43
  -1  -1-102    2.87   25.71
  -1  -1 -99  -17.37   23.80
  -1   2 -99   -1.73   34.46
   2  -1 -99  -66.43   51.30
  -1   2 -96  117.44   61.21
   2  -1 -96  116.87   45.20
  -1  -1 -96  141.49   63.80
   2  -1 -93   12.34   21.82
  -1  -1 -93   58.20   37.30
   2  -1 -90    1.63   21.86
  -1  -1 -90   15.50   25.51
   2  -1 -87  551.37  105.44
  -1  -1 -87  395.57   90.65
  -2   1  84  -15.80   16.22
  -1  -1 -84    3.40   18.08
   2  -1 -84    2.64   22.24
  -2   1  81    7.85   10.61
   2  -1 -81   -5.99   21.65
  -2   1  81   13.11   23.99
  -1  -1 -81    6.81   17.04
  -2   1  78    6.22   14.76
  -2   1  78   26.93   17.27
   2  -1 -78  -56.93   36.29
   2  -1 -78   -3.08    9.73
  -1  -1 -78   48.60   35.94
  -1   2 -78  -22.80   21.85
  -1   2 -75  792.68   81.35
  -2   1  75  723.44   70.65
   1  -2  75  682.21   67.61
   2  -1 -75  838.63  119.62
  -2   1  75  880.80  122.05
   2  -1 -75  857.19   79.05
   1  -2  72  -17.01    9.83
   2  -1 -72  -40.86   33.44
  -2   1  72   -3.84   23.02
  -1   2 -72  -17.60   17.24
  -2   1  72   -7.50   13.04
   2  -1 -72    4.03   10.52
   2  -1 -69   48.55   20.31
  -2   1  69   60.13   16.98
   1  -2  69   52.27   18.20
   2  -1 -69   81.98   21.25
  -2   1  69   75.57   37.07
  -1   2 -69   60.30   21.16
  -2   1  66  152.53   46.25
   1  -2  66   64.72   21.06
  -2   1  66   98.63   25.96
   2  -1 -66   72.05   29.80
  -1   2 -66   91.90   27.71
   2  -1 -66  101.46   27.61
   2  -1 -63   44.72   25.04
   1  -2  63   96.34   25.09
  -1   2 -63   85.29   25.77
   2  -1 -63   57.66   18.51
  -2   1  63  108.57   26.59
  -2   1  63  100.71   35.24
   1  -2  60   39.42   15.45
   2  -1 -60   46.43   14.70
   2  -1 -60    1.24   13.40
  -1   2 -60   52.04   20.68
  -1   2 -60   45.14   22.94
  -2   1  60   74.34   34.64
  -2   1  60   68.12   20.63
  -2   1  57    0.03   11.09
   1  -2  57    1.52    8.84
  -2   1  57   -3.67    6.66
  -1   2 -57   10.83    9.97
  -1   2 -57    1.00    8.04
  -1   2 -57   11.93   15.94
   2  -1 -57   -1.05    8.92
   2  -1 -57  -13.92   19.25
   2  -1 -54    3.25   10.56
  -1   2 -54   17.22   12.94
  -2   1  54   12.97   14.86
   1  -2  54   24.16   14.04
  -2   1  54   -4.71   13.28
  -1   2 -54   17.00   11.83
   2  -1 -54   30.28   21.05
  -1   2 -54   20.59   17.46
   2  -1 -51  185.31   32.90
  -1   2 -51  170.13   35.77
  -1   2 -51  183.49   42.55
   1  -2  51  175.77   30.98
  -2   1  51  148.33   41.95
  -2   1  51  169.26   30.25
  -1  -1 -51  190.50   40.61
  -1   2 -51  203.43   35.05
   2  -1 -51  160.76   37.43
  -1   2 -48 1653.51   96.05
  -1   2 -48 1410.96  110.49
   1  -2  48 1568.00   89.41
  -1  -1 -48 1489.00  109.64
  -2   1  48 1530.87   89.45
   2  -1 -48 1494.44   86.05
  -1   2 -48 1572.46  101.18
  -2   1  48 1531.42  123.25
  -2   1  45   15.90   12.87
  -1  -1 -45   18.75   14.72
  -1   2 -45    9.63   10.29
   2  -1 -45   28.26   10.69
  -1   2 -45   25.47   13.11
  -2   1  45   16.43    9.52
   1  -2  45   38.35   15.30
  -1   2 -45   38.00   22.67
  -1   2 -42  560.27   56.31
  -2   1  42  498.46   65.54
   2  -1 -42  584.65   50.39
  -2   1  42  651.70   56.37
  -1   2 -42  544.63   63.79
  -1  -1 -42  497.51   59.40
   1  -2  42  480.64   47.73
  -1   2 -42  573.27   54.63
  -1   2 -39  971.85   81.07
   2  -1 -39 1089.11   67.92
   1  -2  39  890.05   63.62
  -1   2 -39 1031.94   71.12
  -2   1  39 1045.59   68.98
  -2   1  39  934.11   85.70
  -1   2 -39  935.81   69.14
  -1  -1 -39  964.53   80.10
  -1   2 -36 1243.35   86.87
  -1   2 -36 1328.41   78.20
   1  -2  36 1243.77   72.88
   2  -1 -36 1368.47   74.59
  -2   1  36 1370.01   76.53
  -2   1  36 1256.16   95.67
  -1  -1 -36 1219.24   86.76
  -1  -1 -33    0.84    6.69
   2  -1 -33    8.45    9.01
   1  -2  33   21.99   11.11
  -1   2 -33   16.25   12.51
  -2   1  33   27.68   15.13
  -2   1  33   17.49    8.15
  -1   2 -33   14.43    8.43
   2  -1 -30  265.21   31.39
  -2   1  30  214.01   36.06
   1  -2  30  245.80   30.76
  -1  -1 -30  242.21   36.16
  -1   2 -30  216.31   30.07
  -2   1  30  250.56   31.18
  -1   2 -30  208.54   33.28
  -1   2 -27 1828.53   85.16
  -1  -1 -27 1755.94   92.89
  -2   1  27 1755.17   97.89
   2  -1 -27 2025.77   83.97
   1  -2  27 1795.75   80.90
  -2   1  27 1922.51   83.55
  -1   2 -27 1804.04   90.52
  -2   1  24   20.84   12.64
   2  -1 -24   16.68    9.23
  -1   2 -24   10.82    8.25
   1  -2  24    3.56    5.24
  -1  -1 -24   21.86    9.31
  -2   1  24   18.89   10.20
  -2   1  24    1.81    6.40
  -1  -1 -21  131.42   24.06
  -2   1  21  137.56   27.13
   2  -1 -21  131.15   20.31
  -2   1  21  115.16   19.54
   1  -2  21  134.49   21.10
  -1   2 -21  133.75   22.01
   1  -2  18   50.61   13.17
  -1  -1 -18   47.62   15.18
   2  -1 -18   46.32   11.63
  -2   1  18   48.08   12.76
  -2   1  18   33.22   12.54
   1  -2  15  226.02   25.93
  -2   1  15  250.10   31.54
  -2   1  15  285.09   28.56
  -2   1  12 3369.60   94.70
   1  -2  12 3027.24   90.29
  -2   1  12 3267.06  106.92
  -1  -1 -12 2904.68   59.21
  -2   1   9  580.15   40.23
  -2   1   9  546.75   40.74
   1  -2   9  513.51   35.79
  -1  -1  -9  489.18   26.63
   1  -2   6  256.82   24.53
  -2   1   6  258.78   25.29
  -1  -1  -6  251.26   20.72
  -2   1   3  563.87   36.17
   1  -2   3  610.12   36.59
  -1  -1  -3  628.86   34.82
  -2   1   0 7228.24  128.08
  -1  -1   0 7492.93  126.99
  -1  -1   3  245.09   25.63
  -1  -1   6  307.77   29.16
   1  -2  -6  361.69   24.43
   1  -2  -9 1052.54   46.53
  -1  -1   9 1002.71   53.75
  -1   2   9 1063.01   50.06
   1  -2 -12  952.22   49.15
  -1   2  12 1159.84   59.20
  -1   2  12 1205.64   63.28
   2  -1  12 1365.61   54.38
  -1  -1  12  880.77   53.91
  -1   2  15  586.56   46.51
  -2   1 -15  552.08   36.78
  -1  -1  15  509.31   41.14
   2  -1  15  567.36   37.57
   1  -2 -15  511.23   38.74
  -1  -1  15  493.07   31.58
  -1   2  15  580.80   43.54
  -1  -1  18   71.03   16.09
   2  -1  18   68.05   14.67
   1  -2 -18   69.29   15.89
  -1   2  18   76.75   17.81
  -2   1 -18   56.94   13.12
  -1  -1  18   72.77   14.07
  -1   2  18   92.43   19.62
   1  -2 -21  330.76   35.64
  -1   2  21  367.81   42.08
  -1  -1  21  335.81   31.62
  -1  -1  21  341.74   35.31
  -1   2  21  318.68   23.51
  -2   1 -21  333.69   32.59
   1   1 -21  367.27   35.69
  -1   2  21  408.41   42.37
   2  -1  21  292.57   31.28
  -1  -1  24    1.36    5.68
   1  -2 -24   21.60   11.80
  -1   2  24   16.68   12.31
   1   1 -24   14.82    7.81
  -1  -1  24    3.64    7.16
  -2   1 -24   17.65    6.53
  -1   2  24   12.73    5.22
   2  -1  24   10.08    7.40
  -2   1 -24   31.82   11.76
   2  -1  27 1484.52   78.59
  -1   2  27 1534.43   53.07
  -2   1 -27 1386.83   58.06
   1  -2 -27 1726.19   97.62
  -1  -1  27 1519.00   80.96
  -2   1 -27 1527.82   78.02
  -1  -1  27 1536.22   80.77
  -1   2  27 1730.61  102.60
   1  -2 -27 1531.13   85.71
   1   1 -27 1439.95   75.41
   1   1 -27 1508.29   77.25
   1   1 -30   29.25   12.52
   1  -2 -30   24.51   14.00
  -2   1 -30   34.11    9.90
   1  -2 -30   35.79   15.48
  -2   1 -30   35.74   13.28
   1   1 -30   48.39   16.52
  -1  -1  30   17.40   11.51
  -1   2  30   36.29   15.84
   2  -1  30   20.44   11.25
  -1  -1  30   33.61   13.45
  -1   2  30   37.65    9.88
   1   1 -33  188.88   30.24
  -2   1 -33  200.24   31.01
   2  -1  33  176.94   30.18
  -1  -1  33  211.51   32.27
   1  -2 -33  200.54   34.30
  -1  -1  33  213.67   33.60
  -1   2  33  182.93   38.96
  -1   2  33  190.69   19.68
   1   1 -33  185.94   28.68
  -2   1 -33  186.30   23.01
   1  -2 -33  174.94   35.03
  -1   2  36  318.77   51.92
   1  -2 -36  272.99   43.20
   1   1 -36  276.05   36.60
   1   1 -36  258.64   39.11
  -1  -1  36  271.49   38.06
   1  -2 -36  323.86   49.03
  -1   2  36  282.38   24.88
  -2   1 -36  263.11   28.21
  -2   1 -36  278.65   39.75
  -1  -1  36  277.09   42.19
   1   1 -39 1420.54   93.89
  -1   2  39 1579.35  115.34
  -1   2  39 1483.26   57.33
  -2   1 -39 1433.19   68.81
   1  -2 -39 1406.73  104.09
   1  -2 -39 1410.06   96.47
  -1  -1  39 1384.09   86.68
  -2   1 -39 1389.63   89.87
  -1  -1  39 1351.64   94.62
   1   1 -39 1526.86   87.31
  -1  -1  42  395.71   53.83
  -1  -1  42  498.12   54.07
  -2   1 -42  410.40   37.37
   1  -2 -42  468.62   62.42
  -2   1 -42  412.01   51.54
   1   1 -42  438.43   54.81
   1   1 -42  447.09   48.85
  -1   2  42  445.57   63.90
  -1   2  42  465.37   33.27
   1  -2 -42  437.82   56.64
   1   1 -45  159.41   27.70
   1   1 -45   67.79   23.74
  -2   1 -45   47.43   19.39
   1  -2 -45   53.14   20.72
  -1   2  45   73.26   14.08
   1  -2 -45   61.73   23.24
  -1   2  45   55.96   25.42
  -1  -1  45   63.53   20.57
  -2   1 -45   50.80   13.55
  -1  -1  45   80.80   26.66
  -2   1 -48  959.75   59.77
   1  -2 -48  877.06   91.15
  -1   2  48  898.20   47.55
   1   1 -48 1041.41   78.22
  -1  -1  48 1016.49   79.62
  -1  -1  48  893.23   87.85
  -2   1 -48  983.42  101.07
  -1   2  48  978.14  100.07
   1   1 -48  890.49   83.20
   1  -2 -48  969.08   89.51
  -2   1 -48 1017.49   86.06
   1  -2 -51  211.97   44.26
  -1   2  51  245.00   52.99
  -1  -1  51  217.70   38.60
  -1  -1  51  205.26   43.80
   1   1 -51  235.55   38.31
  -2   1 -51  273.03   45.95
  -2   1 -51  230.41   29.62
   1   1 -51  285.14   50.73
  -2   1 -51  262.01   54.75
   1  -2 -51  253.24   51.04
  -1   2  51  225.58   24.20
   1  -2 -54   -0.26   16.84
  -1  -1  54   12.00   13.55
  -2   1 -54    3.18    6.77
   1   1 -54   31.20   26.35
  -1   2  54   21.85   10.97
  -2   1 -54   -2.41   12.49
  -1  -1  54   16.36   13.69
   1   1 -54    6.20   10.29
  -1   2  54   10.56    6.68
  -2   1 -54   16.00    8.60
  -2   1 -57  133.28   22.75
  -1  -1  57   59.76   20.81
  -1   2  57   33.84   23.52
  -1   2  57   54.35   13.10
   1   1 -57   52.86   23.87
   1   1 -57   71.45   23.82
   1  -2 -57   56.77   21.02
  -1  -1  57   53.27   26.42
   1  -2 -60   41.94   17.26
  -1  -1  60   84.23   25.79
   1   1 -60   62.50   23.42
  -1  -1  60   50.25   27.14
   1   1 -60   90.26   32.71
  -1   2  60   97.27   32.34
  -1   2  60   64.20   12.68
  -2   1 -60   51.60   15.03
  -1  -1  63   30.31   15.83
  -1   2  63   32.22   17.63
  -1   2  63   11.75    4.73
   1  -2 -63    4.80   23.86
   1   1 -63  -12.46   28.86
   1   1 -63   16.25   12.64
  -2   1 -63    5.27    9.89
  -1  -1  66  231.76   43.50
  -1   2  66  312.75   69.58
  -2   1 -66  241.56   33.01
   1   1 -66  169.20   48.64
   1  -2 -66  207.92   52.66
   1   1 -66  210.86   42.27
  -1   2  66  174.13   20.77
   1  -2 -69   51.26   25.90
   1   1 -69  100.07   28.00
   1   1 -69   18.15   14.90
  -1   2  69   60.25   32.32
  -1   2  69   35.76    8.79
  -2   1 -69   74.62   18.62
  -1  -1  69   72.64   25.31
   1  -2 -72  -14.43   29.31
  -1  -1  72   33.72   18.83
  -2   1 -72   12.36    7.98
  -1   2  72   25.35   28.18
  -1   2  72   13.82    5.40
   1   1 -72  -13.81   30.31
   1   1 -72   22.91   13.76
   1   1 -75  900.48  124.09
  -2   1 -75  675.03   56.64
  -1  -1  75  768.31   78.29
   1   1 -75  850.96   87.88
  -1   2  75  751.61  115.00
   1  -2 -75  736.47  110.34
  -2   1 -78   23.23   11.72
   1   1 -78   22.76   18.10
   1  -2 -78    5.91   15.74
  -1  -1  78   -5.81   11.44
   1   1 -78    5.60   18.53
   1  -2 -81  -13.55   22.86
   1   1 -81   12.07   16.22
  -1  -1  81   25.20   16.68
   1  -2 -84    7.21   27.06
   1   1 -84    2.60   21.51
  -1  -1  84   13.75   12.90
  -1  -1  87  424.07   61.14
   1  -2 -87  446.10   94.31
   1   1 -87  460.15  103.83
   1  -2 -90   27.60   22.07
   1   1 -90   12.50   24.59
   1  -2 -93  -12.46   29.55
   1   1 -93   -6.23   31.90
   1   1 -96  102.69   55.70
   1  -2 -96   35.73   26.37
  -2   1 -99   67.72   44.06
   1  -2 -99  -58.90   46.14
   1   1 -99  -55.19   46.56
   1   1-102    9.58   29.40
   1  -2-102   20.59   30.45
  -2   1-102   54.89   46.79
   1   1-105  -79.42   47.11
  -2   1-105  -54.99   51.60
   1  -2-105    1.81   25.60
   0  -2-106  165.98   76.63
  -2   2-103   22.60   43.44
   0  -2-103    4.22   35.06
   2   0-103   16.01   25.94
   2   0-100  109.13   62.03
   0  -2-100   93.39   43.52
   2   0 -97  -15.39   25.31
   0  -2 -97   18.34   23.26
   0  -2 -94   -0.36   19.27
   2   0 -94   -6.72   24.09
   2   0 -91  138.88   55.66
   0  -2 -91   71.29   37.53
  -2   0  88   28.80   19.50
   0  -2 -88   86.00   40.64
  -2   0  85   -9.24   14.77
   0  -2 -85  -31.87   36.62
   2   0 -85   -7.36   26.02
   2   0 -82   34.36   25.46
   0  -2 -82   32.45   27.14
  -2   0  82   25.71   20.33
  -2   0  79  715.24   78.03
   2   0 -79  620.04   77.80
  -2   2 -79  544.90   66.52
   2   0 -79  772.90  116.74
   0  -2 -79  532.83   96.93
  -2   0  79  831.45  119.24
   2   0 -76  -46.27   21.44
   0  -2 -76   31.27   22.24
  -2   0  76  -16.08   15.65
   2   0 -76    3.82   19.03
  -2   2 -76   11.75   13.28
  -2   0  76  -14.30   17.08
  -2   0  73  224.74   60.65
   2   0 -73  199.50   40.81
  -2   2 -73  250.44   43.18
   2   0 -73  169.79   52.33
   0  -2 -73  174.77   51.76
  -2   0  73  211.89   41.37
   2   0 -70  143.65   46.85
  -2   0  70  132.71   33.73
   2   0 -70  151.34   35.09
   0  -2 -70  167.92   50.92
  -2   0  70  164.60   51.04
  -2   2 -70  186.99   36.52
   0  -2 -67  127.63   45.51
  -2   0  67  114.81   29.91
  -2   2 -67  115.68   27.96
   2   0 -67  147.52   33.62
   2   0 -67   77.75   35.86
  -2   0  67   99.52   37.68
  -2   0  64   32.55   22.62
  -2   2 -64   28.03   13.06
   0  -2 -64   14.51   15.74
   2   0 -64   -7.69   15.13
  -2   0  64   36.16   17.05
   2   0 -64    2.62   19.70
   0   2  61   26.76   21.79
   2   0 -61   49.35   20.66
  -2   0  61   86.32   27.07
  -2   0  61   54.42   28.30
   2   0 -61   53.88   25.49
   0  -2 -61   40.49   17.27
  -2   2 -61   67.96   21.12
   0   2  58  135.58   41.58
  -2   2 -58  117.99   31.16
   2   0 -58  163.29   32.57
  -2   2 -58  132.86   29.68
  -2   0  58  129.94   39.38
   0  -2 -58   78.78   28.06
  -2   0  58  159.97   35.03
   2   0 -58  111.29   35.15
  -2   2 -55    5.01    7.85
   2   0 -55   -8.50   15.48
  -2   0  55    5.74   12.05
   0   2  55  -14.67   14.93
   2   0 -55   14.33   12.73
   0  -2 -55  -18.94   26.39
  -2   2 -55    8.61    9.66
  -2   0  55   14.78   14.55
  -2   2 -55    0.99   14.20
   0  -2 -52  698.08   85.44
  -2   2 -52  833.33   68.52
   0   2  52  784.30   94.95
  -2   2 -52  766.90   91.21
  -2   2 -52  694.99   71.61
  -2   0  52  684.90   85.41
   2   0 -52  756.39   68.88
  -2   0  52  880.00   77.36
  -2   0  49  -15.55   16.62
   2   0 -49    8.31    9.72
   0  -2 -49   19.36   11.49
  -2   0  49    1.34   13.52
   0   2  49  -20.90   19.65
  -2   2 -49    0.90    7.21
   0  -2 -49  -17.09   24.32
  -2   2 -49   -1.55   10.21
  -2   2 -49   26.59   17.65
  -2   2 -46  256.34   50.12
   2   0 -46  263.99   38.36
  -2   0  46  288.16   41.31
   0   2  46  250.32   49.89
   0  -2 -46  245.82   44.06
  -2   2 -46  221.02   33.33
  -2   0  46  252.54   46.74
   0  -2 -46  238.72   45.24
  -2   2 -46  246.87   39.22
  -2   2 -43  320.70   39.76
  -2   2 -43  325.04   44.57
   0  -2 -43  313.15   50.37
   0   2  43  311.75   55.25
  -2   0  43  373.41   48.04
   2   0 -43  295.39   40.06
  -2   2 -43  322.36   54.22
  -2   0  43  353.29   54.72
   0  -2 -43  280.29   48.85
   2   0 -40  891.62   67.91
  -2   0  40  932.47   84.97
   0   2  40  926.84   89.37
  -2   2 -40  908.25   66.04
   0  -2 -40  927.90   81.39
  -2   0  40  929.11   71.95
  -2   2 -40  869.86   85.66
   0  -2 -40  850.90   80.35
  -2   2 -40  912.02   70.30
   0  -2 -37   -6.60    9.33
  -2   2 -37   11.21    8.15
  -2   0  37   23.68   16.18
   0  -2 -37   17.81   15.05
  -2   0  37   11.92   10.86
  -2   2 -37   -0.44    6.66
  -2   2 -37  -12.43   12.40
   2   0 -37    8.33    9.96
   0   2  37   12.54   12.82
  -2   2 -34  342.95   39.28
  -2   2 -34  342.12   37.65
   2   0 -34  335.23   39.49
   0  -2 -34  294.62   42.08
   0  -2 -34  291.52   42.56
   0   2  34  340.26   50.25
  -2   0  34  372.22   43.73
  -2   0  34  352.04   47.32
   2   0 -31 3851.86  129.94
  -2   2 -31 3638.94  121.09
   0   2  31 4237.00  169.51
   0  -2 -31 3487.89  140.11
   0  -2 -31 3515.60  141.88
  -2   0  31 3760.69  135.88
  -2   0  31 3584.39  143.22
  -2   2 -31 3635.42  118.70
   0  -2 -28   12.36    8.43
   2   0 -28   37.56   13.04
  -2   0  28   19.82   10.88
  -2   2 -28   19.88    9.99
  -2   0  28   17.00    8.82
   0  -2 -28   21.56   10.84
  -2   2 -28   40.65   13.60
   0   2  28   24.13   15.05
  -2   2 -25  361.22   35.51
  -2   0  25  318.94   38.01
  -2   2 -25  308.08   31.55
   0  -2 -25  306.39   38.87
   0  -2 -25  320.61   38.74
   2   0 -25  350.25   37.14
  -2   0  25  319.82   37.02
   0   2  25  351.44   44.32
   2   0 -22   57.15   15.44
   0   2  22   50.13   15.69
   0  -2 -22   48.46   12.19
  -2   2 -22   47.96   12.11
  -2   0  22   84.75   19.02
  -2   2 -22   53.62   13.72
   0  -2 -22   47.21   15.94
   0  -2 -19   65.26   15.18
  -2   0  19   80.15   19.16
  -2   2 -19   84.54   14.36
   0   2  19   78.61   20.46
  -2   2 -19   87.35   17.27
  -2   0  19   80.78   19.09
   0  -2 -19   91.15   21.75
   0   2  19   59.05    8.33
  -2   0  16  375.26   39.09
   0   2  16  485.30   44.54
   0   2  16  386.60   22.73
  -2   2 -16  383.61   26.71
  -2   0  16  410.44   38.62
  -2   2 -16  378.45   33.19
   0  -2 -16  398.56   38.30
   0  -2 -16  395.57   33.84
   0   2  13 1240.18   65.10
  -2   0  13 1181.19   63.04
   0  -2 -13 1173.79   41.54
  -2   2 -13 1263.88   42.70
  -2   0  13 1254.10   66.77
   0  -2 -13 1213.63   53.60
   0   2  13 1217.87   43.16
  -2   2 -10 1575.04   40.25
   0   2  10 1639.89   54.66
  -2   0  10 1534.78   69.00
   0  -2 -10 1506.74   52.88
   2  -2  10 1526.15   38.98
   0   2  10 1666.10   68.89
   0  -2 -10 1595.75   51.18
  -2   0  10 1583.63   69.43
  -2   0   7  789.91   47.63
   0  -2  -7  789.76   38.33
   0   2   7  717.69   42.36
   0   2   7  756.52   31.49
  -2   0   7  769.62   44.95
   0  -2  -4 2859.73   73.37
  -2   0   4 2511.95   82.43
   0  -2  -4 2768.76   76.39
  -2   0   1    3.23    5.08
   0  -2  -1    3.68    5.15
   0  -2   2 1080.24   52.26
  -2   0  -2 1047.67   50.02
   0  -2   5  756.52   46.40
  -2   0  -5  704.00   39.53
  -2   0  -8 3260.31   81.81
   0  -2   8 3408.51  102.25
  -2   2  11  159.01   24.66
   0  -2  11  134.71   21.19
  -2   0 -11  135.98   16.51
  -2   0 -14   35.70    8.78
  -2   2  14   27.78   11.83
   0  -2  14   43.32   13.94
   0   2 -14   11.98    4.31
  -2   2  17  469.46   44.62
  -2   0 -17  387.70   26.63
   0   2 -17  387.59   27.12
  -2   2  17  453.25   35.02
   0  -2  17  446.54   41.52
  -2   0 -20   14.58    5.63
   0   2 -20   14.51    6.61
  -2   2  20    7.07    8.56
   0  -2  20   29.65   12.20
  -2   2  20   26.26   11.16
  -2   2  23  604.79   56.22
  -2   2  23  756.02   63.63
   0  -2  23  628.21   52.52
  -2   0 -23  628.72   52.75
   0   2 -23  624.10   50.52
  -2   2  23  662.15   44.76
   0   2 -23  584.80   41.47
  -2   2  26   29.13   13.65
   0  -2  26   26.10   11.74
   0   2 -26   10.13    5.05
   2  -2 -26    8.40    6.78
   0   2 -26   15.64    4.88
  -2   2  26   22.25    7.96
  -2   0 -26   17.81   10.19
   0   2 -29   16.72    9.98
  -2   2  29    3.89    8.51
   0  -2  29   12.27   10.61
  -2   2  29   -1.87    8.54
   2   0  29   18.10   10.60
   0   2 -29    5.10    6.73
  -2   2  29   12.07    7.59
   2  -2 -29    4.75    4.64
  -2   0 -29   15.64   11.57
  -2   0 -29    5.64    3.98
  -2   0 -32  315.32   42.64
   2   0  32  365.88   46.64
  -2   0 -32  302.81   21.88
   0  -2  32  363.09   42.56
   2  -2 -32  407.74   48.18
  -2   2  32  375.77   35.74
  -2   2  32  351.63   51.29
   0   2 -32  362.00   41.04
   0   2 -32  381.18   43.00
  -2   0 -35 1091.44   42.96
   2  -2 -35 1194.96   85.88
  -2   2  35 1261.87   98.43
   0   2 -35 1248.49   78.90
   0   2 -35 1127.32   75.60
  -2   0 -35 1221.24   84.78
   2   0  35 1139.42   83.71
  -2   2  35 1269.88   67.31
   0  -2  35 1251.56   80.88
   2   0  38  183.78   34.58
  -2   2  38  226.73   29.49
   0   2 -38  201.24   33.81
   0  -2  38  202.13   33.14
  -2   0 -38  133.52   15.51
   0   2 -38  191.04   31.54
   2  -2 -38  186.78   34.21
  -2   2  38  175.64   39.24
  -2   0 -38  184.90   35.25
   0   2 -41  222.46   35.13
  -2   2  41  233.21   30.02
   0   2 -41  213.47   36.77
   2  -2 -41  218.44   28.52
   0  -2  41  215.93   35.89
   2   0  41  195.49   37.60
  -2   0 -41  218.95   39.23
  -2   0 -41  190.63   18.72
  -2   2  41  233.89   46.57
   2  -2 -41  228.87   40.42
  -2   0 -44 1606.95  107.54
  -2   2  44 1703.02   82.43
   0  -2  44 1589.87   97.38
   2  -2 -44 1457.31  104.63
  -2   0 -44 1250.72   48.56
  -2   2  44 1569.65  122.63
   2   0  44 1551.41  109.38
   2  -2 -44 1528.91   77.84
   0   2 -44 1663.40   98.70
   0   2 -44 1445.70   98.99
   0  -2  47   68.28   19.96
  -2   2  47   36.61   21.26
   2  -2 -47   67.04   22.41
  -2   0 -47   38.10    8.99
  -2   0 -47   62.57   23.66
   2   0  47   64.58   24.48
   0   2 -47   52.71   19.58
   0   2 -47   49.91   15.67
  -2   2  47   71.13   17.12
   2  -2 -47   61.09   16.42
  -2   2  50    0.72   16.46
   2  -2 -50   21.71   18.49
  -2   2  50   44.59   16.97
   0   2 -50   28.07   16.10
  -2   0 -50    9.82    4.33
   2  -2 -50   28.30   18.39
   0  -2  50   23.23   13.42
   0   2 -50   25.22   13.26
  -2   0 -50   -5.08   12.88
   2  -2 -50   41.81   13.36
  -2   2  53   27.29   19.20
  -2   0 -53    4.43    3.67
   0   2 -53    2.83    9.32
   2  -2 -53    7.07   16.33
   0  -2  53    4.75   11.62
  -2   2  53    6.86    8.77
   0   2 -53  -13.62   17.49
  -2   0 -53    7.71    8.79
  -2   2  56  809.97   60.48
   0  -2  56  811.98   73.77
   2  -2 -56  787.79   96.49
   0   2 -56  821.96   76.23
   0   2 -56  824.53   86.83
  -2   0 -56  580.51   33.19
  -2   2  56  838.51  100.95
   0   2 -59  -13.97   13.92
  -2   2  59    5.54    7.56
  -2   2  59    8.72   13.37
   2  -2 -59  -33.97   26.06
   0   2 -59   17.14   23.41
  -2   0 -59    6.87    5.18
   0  -2  59    0.48   10.34
  -2   2  62  333.28   69.80
   2  -2 -62  333.73   64.46
   0   2 -62  318.49   59.69
  -2   2  62  337.88   40.47
  -2   0 -62  224.64   19.63
   0   2 -62  377.71   54.02
   0  -2  62  323.32   48.00
  -2   2  65  124.86   42.33
   0   2 -65  123.93   32.02
  -2   0 -65   74.69   11.06
   0  -2  65  134.91   31.55
  -2   2  65  133.66   24.23
   2  -2 -65  127.30   42.01
   0  -2  68   26.76   12.63
  -2   2  68    2.35   16.55
   0   2 -68   19.11   10.78
  -2   2  68    9.86    7.74
   0  -2  71  215.82   40.90
   2  -2 -71  171.75   51.16
  -2   2  71  210.28   57.99
   0   2 -71  171.16   40.00
  -2   2  71  157.54   27.66
  -2   2  74   54.87   32.02
   2  -2 -74    3.62   16.61
  -2   2  74   37.59   17.00
   0  -2  74   25.20   14.71
   0   2 -74  -16.51   19.20
   2  -2 -77   10.87   22.38
   0  -2  77   37.10   17.24
  -2   2  77   62.64   18.02
  -2   2  77   86.64   42.25
   0   2 -77   54.84   25.36
   2  -2 -80  -21.71   25.91
   0   2 -80   22.45   12.76
   0  -2  80    4.23    7.83
  -2   2  80   -1.01    9.31
  -2   2  80   -9.97   21.89
   2  -2 -83  638.30  110.27
   0  -2  83  628.66   72.99
  -2   2  83  765.80  122.62
   0  -2  86   16.70   15.95
  -2   2  86   45.01   25.13
   0   2 -86    9.85   17.64
   2  -2 -86   27.05   21.64
   0   2 -89   19.07   26.76
   0  -2  89   -9.51   15.82
   0   2 -92  120.13   54.28
   2  -2 -92   66.95   28.03
   0   2 -95   35.61   28.23
   2  -2 -95   28.00   24.67
  -2   0 -95  -17.54   37.87
   2  -2 -98  -34.96   43.37
   0   2 -98    9.70   28.03
  -2   0 -98  -53.12   46.20
   0   2-101    2.24   30.22
  -2   0-101  -19.70   43.03
   2  -2-101  -44.38   40.71
   2  -2-104   -7.76   22.12
   0   2-104   50.42   40.37
  -2   0-104   11.81   23.77
  -2  -1-106   64.17   49.17
  -1   3-103  -50.48   53.18
   3  -2-103   11.01   24.46
  -2  -1-103   44.53   42.52
   3  -2-100  131.57   58.74
  -1   3-100  209.19   73.38
  -2  -1-100  113.58   62.16
  -2  -1 -97  -17.67   30.08
   3  -2 -97    0.21   20.73
  -3   2  94    1.95   21.46
  -2  -1 -94  -12.45   41.20
   3  -2 -94  -15.81   38.53
   3  -2 -91  109.65   47.54
  -2  -1 -91   23.58   24.79
  -3   2  91   49.67   31.89
  -3   2  88  -28.01   22.40
  -2  -1 -88   20.62   24.91
   3  -2 -88   14.66   19.06
  -3   2  85  -11.54   19.51
   3  -2 -85   -5.62   23.03
  -3   2  82   16.13   14.18
   3  -2 -82    9.88   20.41
   1  -3  82  -20.73   17.00
  -3   2  82   -3.04   22.80
   3  -2 -79  371.63   80.41
   1  -3  79  244.01   45.24
  -3   2  79  341.87   80.59
  -3   2  79  280.76   46.34
  -1   3 -76  -26.55   21.46
  -3   2  76   -4.93   14.38
   3  -2 -76  -33.29   32.79
  -3   2  76  -31.54   32.94
   1  -3  76    1.83    8.90
  -3   2  73  153.49   32.34
   3  -2 -73  157.93   48.48
  -1   3 -73  141.17   35.54
   1  -3  73  182.73   38.22
  -3   2  73  132.07   43.30
  -3   2  70   75.84   24.59
  -1   3 -70   52.91   24.05
   3  -2 -70   82.65   38.40
  -3   2  70   91.41   40.02
   1  -3  70  104.86   28.15
   3  -2 -70  119.48   30.74
   1  -3  67   23.04   16.09
   3  -2 -67   -5.91   29.70
  -1   3 -67    4.79   12.16
   3  -2 -67   39.92   20.37
  -3   2  67   -9.66   18.24
  -3   2  67  -13.85   18.20
  -3   2  64  247.05   40.44
  -3   2  64  277.80   60.81
  -1   3 -64  307.07   52.22
   3  -2 -64  289.25   43.93
   1  -3  64  250.41   42.81
   3  -2 -64  301.91   65.31
  -1   3 -61  161.89   39.68
  -1   3 -61  179.99   45.02
  -3   2  61  148.86   30.58
  -3   2  61   95.05   33.32
   1  -3  61  195.52   38.84
   3  -2 -61  158.96   32.29
   3  -2 -61   89.10   33.91
   3  -2 -58  461.31   76.17
   1  -3  58  635.81   68.07
  -1   3 -58  534.83   72.34
  -3   2  58  642.31   64.81
   3  -2 -58  660.04   65.69
  -3   2  58  589.52   87.06
  -1   3 -58  687.46   75.05
   2   1  58  611.02   82.63
   3  -2 -55  243.41   39.84
   1  -3  55  232.25   40.79
  -1   3 -55  221.63   41.89
  -3   2  55  247.69   40.56
  -3   2  55  179.01   47.46
   3  -2 -55  153.48   43.45
  -1   3 -55  224.27   46.17
   2   1  55  213.62   48.91
  -1   3 -55  195.41   39.37
   2   1  52 1696.88  129.57
  -3   2  52 1762.83  140.73
  -1   3 -52 1934.06  119.23
   3  -2 -52 1894.10  106.44
  -3   2  52 2011.57  110.49
   1  -3  52 1825.41  110.90
   3  -2 -52 1663.80  138.03
  -1   3 -52 1714.54  121.16
  -3   2  49  -13.08   15.92
   1  -3  49   12.39   10.40
  -1   3 -49   17.06   14.45
   3  -2 -49   31.21   16.44
  -2  -1 -49    0.17    9.50
  -3   2  49   20.49   13.42
   3  -2 -49   10.64   12.62
   2   1  49  -14.40   15.51
  -1   3 -49    0.34    8.44
   1  -3  46   22.27   14.20
   2   1  46   14.05   12.32
  -3   2  46   23.78   18.02
  -3   2  46   13.89    9.13
  -1   3 -46    8.46   12.19
  -2  -1 -46   19.04   12.37
  -1   3 -46   17.13   14.32
   3  -2 -43  122.19   27.24
  -3   2  43  137.91   38.25
  -3   2  43  121.63   27.22
   1  -3  43  118.22   27.62
  -1   3 -43  136.31   30.08
  -2  -1 -43  129.66   34.54
  -1   3 -43  119.17   30.02
   2   1  43   96.46   31.30
  -1   3 -40 1381.57   93.26
   1  -3  40 1481.66   93.73
  -1   3 -40 1440.25   94.93
   3  -2 -40 1517.05   88.90
  -2  -1 -40 1374.78  101.02
  -3   2  40 1465.94   87.65
  -3   2  40 1388.03  109.28
  -1   3 -37   12.57   12.59
  -2  -1 -37   31.15   16.78
  -3   2  37   22.83   16.03
  -3   2  37   12.52   11.21
   3  -2 -37   24.43   13.56
  -1   3 -37   22.52   13.02
   1  -3  37    6.79    5.93
  -2  -1 -34   23.92   14.30
   3  -2 -34   37.14   12.48
  -1   3 -34   22.45   11.02
   1  -3  34   25.28   12.77
  -3   2  34   24.77   11.24
  -3   2  34   18.50    9.49
  -3   2  34   29.98   15.51
  -1   3 -34   38.28   17.10
   3  -2 -31 1293.25   77.99
  -1   3 -31 1088.35   72.31
  -3   2  31 1313.25  101.76
   1  -3  31 1216.95   80.00
  -3   2  31 1209.53   74.78
  -1   3 -31 1177.53   81.27
  -3   2  31 1098.81   87.03
  -3   2  28  598.18   51.40
  -2  -1 -28  427.83   23.60
   1  -3  28  504.42   50.24
  -1   3 -28  498.44   46.25
  -1   3 -28  512.88   52.16
  -3   2  28  631.50   67.00
   3  -2 -28  597.20   51.91
   3  -2 -25 1199.45   72.12
   1  -3  25 1022.86   69.62
  -3   2  25 1242.52   89.86
  -3   2  25 1106.09   68.88
  -2  -1 -25  883.86   37.04
  -1   3 -25 1114.98   75.36
  -3   2  22  483.23   44.55
   2   1  22  339.80   24.14
  -1   3 -22  474.35   48.84
   3  -2 -22  463.74   43.80
  -2  -1 -22  412.97   26.64
   1  -3  22  431.57   43.97
  -3   2  22  465.80   53.70
  -2  -1 -19  498.91   31.47
   2   1  19  452.89   30.06
  -3   2  19  530.99   46.96
   1  -3  19  484.52   46.04
  -3   2  19  496.71   52.31
  -2  -1 -16 1229.28   51.54
  -3   2  16 1527.62   78.92
  -3   2  16 1448.47   86.19
   2   1  16 1308.98   52.87
   1  -3  16 1310.73   73.45
   2   1  13  385.80   31.03
  -3   2  13  370.94   38.55
   1  -3  13  337.02   37.19
  -2  -1 -13  444.14   33.36
  -3   2  13  440.80   46.59
   1  -3  10 2131.73   89.64
  -3   2  10 2109.10   87.89
  -2  -1 -10 2028.89   71.48
  -2  -1  -7  128.37   20.05
   1  -3   7   81.15   17.86
  -3   2   7   79.67   18.14
  -2  -1  -4  186.71   24.78
   1  -3   4  170.89   24.62
   1  -3   1 2450.75   88.46
  -2  -1  -1 2456.44   88.07
   1  -3  -2   54.49   14.15
  -2  -1   2   80.40   18.23
  -2  -1   2   53.36   12.53
   1  -3  -5  192.82   24.79
  -2  -1   5  169.79   20.38
  -2  -1   5  191.25   27.17
  -2  -1   8  747.11   44.69
   2   1  -8  765.58   42.75
  -2  -1   8  686.50   51.87
   2   1 -11  537.02   39.47
  -2  -1  11  484.15   39.13
  -1   3  11  526.29   38.22
  -1   3  11  508.86   42.24
  -2  -1  11  524.12   46.64
  -1   3  14  791.28   61.28
  -1   3  14  700.26   51.45
  -1   3  14  612.10   40.14
   3  -2  14  838.58   44.67
  -2  -1  14  579.83   51.23
   1  -3 -14  489.94   42.92
  -1   3  17 3382.90  125.12
  -2  -1  17 3077.13  119.65
   3  -2  17 3189.55   90.74
  -1   3  17 3106.46   85.52
   1  -3 -17 3234.61  111.99
   1  -3 -17 3132.73  110.92
  -1   3  17 3409.56  112.45
  -1   3  20  719.11   55.05
   3  -2  20  685.85   45.16
  -2  -1  20  747.58   60.54
   1  -3 -20  794.52   59.83
  -1   3  20  694.70   39.96
  -1   3  20  701.89   60.85
   1  -3 -20  706.27   55.79
  -1   3  23 2387.51  116.78
   1  -3 -23 2465.05  109.91
  -1   3  23 2584.19  111.01
  -3   2 -23 2165.45   85.23
   3  -2  23 2109.43   84.87
   1  -3 -23 2262.34  103.87
  -2  -1  23 2155.98  105.19
  -2  -1  23 1991.10   85.12
  -2  -1  26   64.39   17.13
   2   1 -26   50.70   17.61
  -2  -1  26   45.23   15.48
  -1   3  26   62.08   20.76
  -3   2 -26   42.66   13.35
   1  -3 -26   53.57   17.98
   1  -3 -26   46.79   16.16
   3  -2  26   48.51   14.52
  -2  -1  29  183.82   31.97
   1  -3 -29  191.46   34.75
  -3   2 -29  180.72   25.58
   2   1 -29  165.91   28.41
   1  -3 -29  240.65   38.39
  -3   2 -29  193.67   28.91
  -1   3  29  300.58   46.00
  -2  -1  29  217.75   32.53
   3  -2  29  166.34   26.85
  -1   3  32  145.08   33.99
   2   1 -32  149.93   30.28
   1  -3 -32  128.20   28.09
   1  -3 -32  114.90   27.23
  -3   2 -32   81.74   16.52
  -3   2 -32  116.82   23.92
  -1   3  32  101.40   14.35
  -2  -1  32  136.86   28.65
   3  -2  32  109.59   23.78
  -2  -1  32  130.42   26.77
  -3   2 -35 2814.65  106.93
  -1   3  35 2516.52   71.58
   3  -2  35 2935.49  124.15
  -3   2 -35 2900.43  120.42
   1  -3 -35 2924.37  138.87
  -1   3  35 3262.49  161.96
   2   1 -35 2954.12  129.40
  -2  -1  35 2944.45  131.28
   1  -3 -35 3187.11  149.86
  -2  -1  35 3060.72  137.43
   1  -3 -38  457.21   58.10
  -2  -1  38  422.56   52.31
  -1   3  38  362.56   26.51
  -3   2 -38  441.08   43.44
  -2  -1  38  443.07   54.24
  -3   2 -38  430.15   48.32
   2   1 -38  464.92   52.82
  -1   3  38  482.05   63.03
   1  -3 -38  471.10   57.78
  -2  -1  41   36.79   16.87
  -1   3  41    8.16    5.12
   2   1 -41   33.89   16.75
   1  -3 -41   26.35   16.23
  -3   2 -41    8.51    6.59
  -2  -1  41   -5.12   11.90
  -1   3  41   18.61   13.99
   1  -3 -41   -8.48   19.80
  -3   2 -41    9.56    7.28
  -3   2 -44  312.99   58.45
  -2  -1  44  350.55   52.37
   1  -3 -44  332.90   52.59
   1  -3 -44  328.89   52.99
  -1   3  44  293.05   23.78
  -3   2 -44  302.79   38.07
   2   1 -44  344.08   47.93
  -3   2 -44  340.67   47.09
  -1   3  44  426.62   65.08
  -2  -1  44  402.91   54.78
  -2  -1  47 1216.01  100.83
   1  -3 -47 1406.81  109.18
  -1   3  47 1411.87  122.03
  -3   2 -47 1337.42   95.98
  -1   3  47 1126.92   44.83
  -3   2 -47 1470.66  130.15
   1  -3 -47 1310.71  111.45
  -3   2 -47 1338.56   82.90
  -2  -1  47 1422.03  104.33
   2   1 -47 1319.62   94.10
  -2  -1  50  -25.88   21.84
   1  -3 -50   21.81   12.14
  -1   3  50  -11.75   19.20
  -3   2 -50   -5.97    9.61
  -1   3  50    0.82    3.25
  -3   2 -50    1.86    6.87
   2   1 -50    9.45    7.18
  -2  -1  50   -3.46   10.28
  -3   2 -50   12.60   13.05
  -2  -1  53   47.67   23.29
  -1   3  53   22.24    5.99
  -3   2 -53    2.19   14.84
  -3   2 -53   15.36   18.75
   1  -3 -53   11.47   15.40
  -2  -1  53   16.00   14.00
   2   1 -53   26.47   16.17
  -3   2 -53   -0.81   13.57
  -1   3  53    6.34   13.54
   1  -3 -56  447.99   71.07
  -3   2 -56  528.94   66.05
  -2  -1  56  515.83   74.13
   2   1 -56  521.44   78.38
  -1   3  56  521.24   81.07
  -2  -1  56  539.60   67.71
   2   1 -56  526.24   63.15
  -3   2 -56  478.69   51.97
   2   1 -59   94.42   31.46
   2   1 -59  107.01   30.45
  -3   2 -59   66.44   17.60
  -1   3  59   44.28   14.39
  -2  -1  59   89.58   27.78
   1  -3 -59  158.68   47.59
  -2  -1  59   71.95   29.40
  -2  -1  62  240.86   47.15
   2   1 -62  291.10   49.76
   1  -3 -62  225.74   51.92
   2   1 -62  256.00   57.61
  -3   2 -62  286.74   42.85
  -1   3  62  263.21   63.09
  -2  -1  62  255.95   56.99
  -2  -1  65  347.90   56.30
   2   1 -65  341.52   55.16
  -3   2 -65  405.04   50.22
   2   1 -65  393.56   73.30
  -1   3  65  367.00   75.15
  -2  -1  65  306.12   61.01
   1  -3 -65  337.62   66.21
  -2  -1  68   -4.57   22.28
  -1   3  68  -12.05   17.54
   2   1 -68   13.46   13.42
   2   1 -68  -27.44   27.97
  -3   2 -68   -6.10   14.15
   1  -3 -68   -5.85   26.65
  -2  -1  68    5.97   12.36
   2   1 -71   54.50   29.71
  -1   3  71  115.05   45.86
   2   1 -71  105.46   35.60
  -2  -1  71   87.01   32.64
  -3   2 -71   19.48    9.97
   1  -3 -71  120.98   44.28
   2   1 -74   28.38   18.57
   1  -3 -74   12.40   17.56
  -3   2 -74    1.27    8.27
  -1   3  74    4.05   19.47
   2   1 -74   17.54   18.61
  -2  -1  74   -5.36   15.04
   2   1 -77  103.31   44.76
  -3   2 -77   92.53   24.71
  -1   3  77  129.16   49.20
  -2  -1  77   66.83   26.39
   1  -3 -77   18.78   18.25
  -2  -1  80  -12.68   10.81
   1  -3 -80  -44.17   30.08
   2   1 -80  -62.25   40.39
   2   1 -83  184.38   62.65
  -2  -1  83  198.53   47.11
   1  -3 -83  148.92   52.48
   2   1 -86    5.68   17.38
  -2  -1  86   28.22   22.80
  -2  -1  89   -8.95   15.51
   2   1 -89    9.38   23.65
   1  -3 -89  -50.98   46.16
   2   1 -92  134.99   52.71
   1  -3 -92   33.77   26.50
   2   1 -95  102.75   52.98
   1  -3 -95  -40.03   44.64
   1  -3 -98  -13.31   51.27
   2   1 -98   77.61   48.79
   2   1-101   34.58   28.44
   1  -3-101  -22.36   35.15
   1  -3-104   48.43   33.39
   2   1-104   38.55   40.78
  -1  -2-107   94.68   64.50
   3  -1-104   97.56   56.01
  -1  -2-104   99.55   63.19
  -1  -2-101   31.09   38.48
   3  -1-101  -22.09   34.30
   3  -1 -98   23.62   23.22
  -1  -2 -98   -1.23   21.32
  -1  -2 -95  -28.03   29.61
   3  -1 -95   -9.51   21.92
   3  -1 -92   88.73   47.40
  -1  -2 -92   24.01   17.95
  -1  -2 -89   33.49   22.69
  -3   1  89   74.01   39.41
   3  -1 -89   32.13   23.71
  -1  -2 -86   15.08   16.83
  -3   1  86   27.86   19.36
   3  -1 -86  -17.09   21.93
  -3   1  86   -3.22   14.38
  -3   1  83  169.76   59.11
  -1  -2 -83  222.49   66.35
   3  -1 -83  230.67   69.91
  -3   1  83  259.01   49.82
  -1  -2 -80  -32.23   31.32
  -3   1  80  -18.56   18.65
   3  -1 -80  -10.27   31.59
  -3   1  80   27.24   16.62
   3  -1 -77   50.24   29.46
  -1  -2 -77   83.20   35.47
  -3   1  77   70.02   34.84
  -3   1  77   20.22   11.13
  -2   3 -77   75.23   28.38
   3  -1 -77   15.38   14.13
   3  -1 -74   16.21   15.48
  -3   1  74   28.06   18.18
  -2   3 -74    5.77   17.43
   3  -1 -74  -30.24   35.47
  -1  -2 -74  -13.45   27.55
  -3   1  74    3.02   18.23
  -2   3 -71  130.65   36.18
   3  -1 -71  168.05   36.26
  -3   1  71  181.40   56.82
  -1  -2 -71   85.61   34.96
  -3   1  71  199.57   40.92
   3  -1 -71  172.27   53.04
  -2   3 -68  114.48   32.42
  -3   1  68   62.38   35.18
   3  -1 -68   75.22   36.07
  -1  -2 -68  101.24   32.86
  -3   1  68  116.69   30.23
   3  -1 -68  120.78   31.31
   3  -1 -65  379.94   56.52
  -1  -2 -65  385.45   71.15
  -3   1  65  435.91   60.71
   3  -1 -65  375.93   73.61
  -3   1  65  421.74   76.65
  -2   3 -65  514.47   66.78
  -3   1  62  376.39   70.94
  -3   1  62  439.88   57.40
   3  -1 -62  405.70   56.67
   3  -1 -62  385.76   72.53
  -2   3 -62  446.60   60.45
  -2   3 -59   38.98   28.26
   2  -3  59   35.73   15.59
   3  -1 -59   23.71   14.06
  -3   1  59    0.45   14.07
  -2   3 -59   24.07   14.63
  -3   1  59    4.70   12.77
  -2   3 -56  553.88   78.77
  -2   3 -56  662.92   71.23
  -3   1  56  562.80   63.38
  -2   3 -56  492.61   61.85
   3  -1 -56  517.69   61.32
  -3   1  56  483.60   75.45
   2  -3  56  575.29   60.76
   1   2  56  532.82   75.16
   3  -1 -56  480.76   74.17
   3  -1 -53   -6.42   15.12
  -3   1  53   -7.87   14.23
   1   2  53   -0.72   11.36
  -2   3 -53    9.96   12.36
  -2   3 -53    6.00   16.44
   3  -1 -53  -39.37   30.85
  -3   1  53   -2.32   18.07
   2  -3  53    2.15    7.49
  -2   3 -53   13.40   12.66
  -3   1  50   48.78   15.92
   2  -3  50    3.07    8.07
   1   2  50   17.21   15.56
  -2   3 -50    3.42   11.29
  -3   1  50   -9.09   15.42
  -2   3 -50   24.90   15.91
  -2   3 -50   26.71   13.91
   3  -1 -50   -7.46   14.88
  -3   1  47  399.94   63.94
  -2   3 -47  370.10   48.37
  -2   3 -47  401.30   60.86
  -2   3 -47  448.35   54.98
  -3   1  47  461.67   57.05
  -1  -2 -47  362.69   58.38
   2  -3  47  404.08   49.14
   3  -1 -47  418.85   51.52
  -3   1  44  968.21   78.75
   2  -3  44  964.42   72.83
   3  -1 -44  990.24   76.85
  -3   1  44  843.51   87.75
  -2   3 -44  953.55   73.08
  -2   3 -44  948.73   90.37
  -2   3 -44 1017.47   80.41
  -1  -2 -44  974.48   89.51
  -2   3 -41  -11.13   16.56
  -2   3 -41    3.56    8.04
  -3   1  41   -9.70    8.16
  -1  -2 -41   15.54   12.44
   2  -3  41    2.90    9.53
  -3   1  41   -1.87   11.37
   3  -1 -41    8.80    7.40
  -2   3 -41    7.48    7.99
  -2   3 -38  454.99   52.29
   2  -3  38  459.87   48.49
  -1  -2 -38  439.18   56.57
  -3   1  38  491.49   53.74
  -3   1  38  433.73   57.40
   3  -1 -38  488.28   51.83
  -2   3 -38  441.81   45.45
   3  -1 -35 2244.73  108.75
  -3   1  35 2449.92  117.75
  -3   1  35 1980.67  118.06
  -2   3 -35 2278.59  113.17
   2  -3  35 2283.14  106.58
  -1  -2 -35 2081.32  120.41
  -2   3 -35 2096.10   94.53
   2  -3  32  418.85   44.21
  -2   3 -32  407.67   39.53
  -3   1  32  399.64   51.19
  -3   1  32  392.14   45.89
  -3   1  32  378.33   52.95
  -1  -2 -32  434.64   52.69
  -2   3 -32  441.98   48.43
   3  -1 -32  442.62   47.68
  -3   1  29  615.81   67.44
  -2   3 -29  622.30   55.23
  -3   1  29  547.44   52.56
   2  -3  29  587.19   51.93
   3  -1 -29  649.25   56.09
  -1  -2 -29  576.02   60.17
  -2   3 -26   33.91   12.77
   3  -1 -26   27.09   10.96
  -3   1  26   14.39   11.23
  -3   1  26   23.85   11.05
   2  -3  26   57.00   17.08
  -3   1  23 2970.75  135.82
   3  -1 -23 3271.85  123.57
  -2   3 -23 3192.64  118.63
   2  -3  23 3091.33  114.87
  -3   1  23 3014.64  117.58
   3  -1 -20  916.30   64.08
  -3   1  20  849.40   61.69
  -1  -2 -20  827.30   36.69
  -2   3 -20  857.58   59.50
   1   2  20  791.59   35.27
  -3   1  20  797.47   66.88
   2  -3  20  829.51   57.97
  -1  -2 -17  780.73   60.34
  -3   1  17  813.70   59.41
  -3   1  17  823.34   65.79
  -1  -2 -17  753.54   37.86
   1   2  17  725.72   36.54
  -3   1  14 2491.14  108.23
  -1  -2 -14 2619.39  102.39
   1   2  14 2590.62   74.08
  -1  -2 -14 2740.28   76.57
  -3   1  14 2749.10  106.56
  -1  -2 -11  209.31   26.76
   1   2  11  194.34   21.25
  -1  -2 -11  198.18   21.48
  -3   1  11  198.51   28.15
  -3   1  11  232.44   32.31
  -3   1   8  524.53   44.89
  -1  -2  -8  584.05   42.56
  -1  -2  -8  601.08   40.74
  -1  -2  -5 1034.39   49.56
  -1  -2  -5 1094.85   55.76
  -3   1   5 1043.40   62.31
  -3   1   2  277.10   31.82
  -1  -2  -2  280.24   23.25
  -1  -2  -2  304.05   31.14
  -3   1  -1  722.86   51.18
  -2   3   1  770.06   28.91
  -1  -2   1  746.55   50.60
   2  -3  -4  460.41   27.17
  -3   1  -4  417.58   37.56
  -2   3   4  477.73   26.23
  -1  -2   4  462.90   41.51
  -3   1  -7  611.58   44.74
   2  -3  -7  664.97   36.44
  -1  -2   7  618.35   49.62
  -2   3   7  687.84   35.68
  -2   3  10  615.57   38.13
  -1  -2  10  520.90   46.16
   2  -3 -10  555.24   37.04
  -3   1 -10  539.44   41.19
   2  -3 -13 2548.80   85.26
  -1  -2  13 2302.79   99.02
  -2   3  13 2532.50   98.87
  -2   3  16  277.20   37.36
  -1  -2  16  231.57   34.55
  -1  -2  16  164.17   15.68
   2  -3 -16  248.56   30.68
  -1  -2  19  105.64   24.84
   3  -1  19  121.25   22.64
   2  -3 -19  132.84   23.64
   2  -3 -19  170.67   31.60
  -1  -2  19   96.14   14.22
  -2   3  19  123.96   23.27
  -2   3  22   98.32   25.28
   2  -3 -22   71.64   22.19
  -1  -2  22   48.38   11.78
  -1  -2  22   58.96   20.00
  -2   3  22   65.93   18.75
   2  -3 -22   60.55   17.82
   3  -1  22   67.10   19.68
   3  -1  25 1139.02   71.92
  -2   3  25 1443.03   90.83
  -1  -2  25 1209.10   80.59
  -2   3  25 1357.21   90.39
   2  -3 -25 1380.36   91.44
   2  -3 -25 1304.65   78.88
   1   2 -25 1270.82   80.07
  -1  -2  25 1147.21   59.61
   1   2 -28  414.55   46.88
  -1  -2  28  444.71   50.43
   2  -3 -28  443.00   48.74
  -2   3  28  436.37   37.12
  -1  -2  28  400.21   38.08
  -2   3  28  502.43   56.48
   2  -3 -28  454.48   54.74
  -2   3  28  476.31   56.78
   3  -1  28  366.81   42.63
  -1  -2  31 1839.33  104.16
   1   2 -31 1707.99   96.97
  -2   3  31 1992.89  117.47
   2  -3 -31 1964.88  116.47
   2  -3 -31 1754.69  100.65
  -2   3  31 1979.40  119.84
  -1  -2  31 1567.22   81.37
   3  -1  31 1702.18   95.99
  -2   3  31 1904.17   79.09
  -3   1 -31 1778.56   96.19
   2  -3 -34  220.42   37.56
   3  -1  34  200.51   34.91
   2  -3 -34  238.98   40.63
  -1  -2  34  282.37   42.21
  -2   3  34  250.64   44.47
  -3   1 -34  222.83   35.77
   1   2 -34  204.53   34.08
  -3   1 -34  183.79   23.47
   1   2 -34  236.81   33.72
  -2   3  34  221.93   26.68
  -1  -2  34  228.04   33.59
  -3   1 -37  251.85   38.99
  -2   3  37  243.52   45.76
   1   2 -37  254.62   36.39
   1   2 -37  235.49   37.68
   2  -3 -37  227.06   39.44
   3  -1  37  197.38   35.17
  -3   1 -37  217.98   25.53
  -2   3  37  264.17   29.51
  -1  -2  37  252.38   36.86
   2  -3 -37  271.18   46.42
  -1  -2  37  293.29   44.41
   2  -3 -40  840.58   85.83
  -2   3  40  729.33   50.33
  -1  -2  40  703.72   65.38
  -3   1 -40  700.70   48.04
   1   2 -40  740.95   68.37
  -2   3  40  838.80   88.71
   1   2 -40  727.20   64.23
   2  -3 -40  769.38   76.02
   3  -1  40  673.31   68.15
  -3   1 -40  723.96   68.96
  -1  -2  40  764.34   73.01
  -1  -2  43 1060.05   83.69
   3  -1  43 1179.84   92.68
   2  -3 -43 1147.30   94.49
   1   2 -43 1200.59   85.27
  -3   1 -43 1186.90   90.65
  -1  -2  43 1210.96   92.93
  -2   3  43 1281.88  111.12
  -2   3  43 1208.12   64.32
   1   2 -43 1151.99   86.33
  -3   1 -43 1192.51   64.21
   2  -3 -43 1233.41  105.73
  -2   3  46  175.01   24.96
  -3   1 -46  135.46   32.09
   1   2 -46  177.40   34.95
   3  -1  46  167.78   38.42
  -1  -2  46  140.78   31.61
  -2   3  46  155.38   42.66
   2  -3 -46  185.61   38.74
   1   2 -46  171.63   34.00
  -1  -2  46  168.20   36.15
  -3   1 -46  118.94   20.14
   2  -3 -46  128.54   33.20
   1   2 -49    6.13   13.21
   1   2 -49   35.00   15.79
  -2   3  49    0.60   15.12
  -2   3  49   30.99   12.86
  -3   1 -49   23.40    9.55
  -1  -2  49   32.37   17.78
   2  -3 -49   17.97   11.07
   2  -3 -49   47.50   20.70
   3  -1  49   51.37   20.92
  -3   1 -49   36.30   17.29
   1   2 -52 1425.43  102.66
  -2   3  52 1509.14   73.72
   1   2 -52 1255.81   99.33
   2  -3 -52 1292.54  118.17
  -2   3  52 1286.12  123.51
  -3   1 -52 1397.87   73.72
  -1  -2  52 1415.34  108.89
  -3   1 -52 1316.48  104.56
  -3   1 -55   41.31   13.06
   1   2 -55   83.41   27.13
  -2   3  55   85.83   18.29
   1   2 -55   73.55   27.91
  -1  -2  55   22.42   15.55
  -2   3  55   88.25   40.06
   2  -3 -55  -11.16   24.08
  -3   1 -55   54.23   25.77
  -2   3  58  473.72   41.64
   1   2 -58  520.73   66.41
  -3   1 -58  454.57   42.36
   2  -3 -58  364.02   64.03
  -1  -2  58  465.64   65.01
   1   2 -58  545.55   70.12
  -2   3  58  465.46   79.27
   2  -3 -61  357.00   67.75
  -3   1 -61  382.17   38.28
  -2   3  61  380.25   72.31
   1   2 -61  438.22   60.95
  -1  -2  61  391.46   58.65
  -2   3  61  380.14   36.62
  -2   3  64  209.03   56.38
   1   2 -64  148.64   35.48
  -1  -2  64  154.92   37.72
  -3   1 -64  171.78   26.46
   2  -3 -64  118.66   38.56
  -2   3  64  176.36   25.78
  -1  -2  67  -23.92   21.07
  -2   3  67   10.53    9.12
  -2   3  67   22.90   27.23
   1   2 -67   -0.12   17.10
   2  -3 -67  -29.67   32.68
  -3   1 -67  -28.05   15.46
  -1  -2  70    9.76   13.49
   1   2 -70   -7.30   24.28
   2  -3 -70   22.22   20.60
   1   2 -70   18.20   16.18
  -3   1 -70   14.78    5.05
  -2   3  70   35.98   32.88
  -2   3  70   32.79   11.56
  -3   1 -73  168.34   24.45
  -2   3  73  224.28   60.66
  -1  -2  73  283.41   53.05
   1   2 -73  199.76   57.32
   1   2 -73  281.41   52.57
   2  -3 -73  184.60   52.49
  -2   3  73  198.91   24.70
  -2   3  76   -9.36    6.51
  -3   1 -76    7.87    4.46
  -2   3  76  -17.61   26.02
   1   2 -76  -23.82   28.74
  -1  -2  76   -7.92   16.04
   2  -3 -76  -24.05   28.59
   2  -3 -79  304.46   71.53
  -1  -2  79  381.09   61.21
  -2   3  79  383.31   87.60
   1   2 -79  371.10   86.24
   2  -3 -82  -14.57   30.08
   1   2 -82  -25.60   24.17
  -2   3  82  -25.53   22.60
  -1  -2  82    4.71   15.06
   1   2 -85    1.05   19.46
   2  -3 -85  -17.70   31.03
  -2   3  85   -6.60   15.57
  -1  -2  85   -2.70   10.64
  -1  -2  88  168.29   42.48
  -2   3  88  132.34   56.58
   1   2 -88  174.88   60.12
   2  -3 -88  139.81   54.46
   2  -3 -91   60.55   41.35
  -1  -2  91   49.03   24.50
   1   2 -91   24.40   28.18
   2  -3 -94  -35.15   38.16
   1   2 -94  -35.19   30.84
   1   2 -97  -11.37   35.38
   2  -3 -97   -0.68   27.18
   2  -3-100  140.69   54.05
   1   2-100  139.66   62.18
   1   2-103  -37.19   34.85
   2  -3-103    0.29   25.33
   0  -3-105   16.13   36.45
   0  -3-102  136.53   63.13
   3   0-102  116.43   57.04
   3   0 -99  -29.55   22.45
   0  -3 -99   -4.79   30.25
   0  -3 -96  113.44   54.70
   3   0 -96  127.38   47.87
   3   0 -93   47.39   21.34
   0  -3 -93    0.49   27.96
   0  -3 -90  158.08   58.63
   3   0 -90  -13.68   33.12
   0  -3 -87   62.83   43.30
   3   0 -87   51.15   34.82
  -3   0  87   48.70   28.24
  -3   0  87   57.77   22.05
   3   0 -84  -16.00   16.44
   0  -3 -84   22.94   31.63
  -3   0  84   10.89   12.23
   0  -3 -81   -3.43   25.02
  -3   0  81   -8.34   26.29
  -3   0  81   -4.79   16.42
   3   0 -81  -25.63   30.21
   0  -3 -78  -31.61   22.52
  -3   0  78    9.11   16.69
   3   0 -78  -19.18   26.61
  -3   3 -78   -0.02    9.88
  -3   0  78    6.96   14.16
  -3   3 -75  153.56   38.23
   3   0 -75  163.63   52.70
   0  -3 -75  141.22   48.83
   3   0 -75  177.54   42.98
  -3   0  75  204.16   46.00
  -3   0  75  230.26   62.83
  -3   0  72  -20.47   23.33
   3   0 -72  -13.47   22.22
   3   0 -72  -18.74   21.90
   0  -3 -72  -20.30   25.92
  -3   3 -72   25.13   16.33
  -3   0  72   -1.06   16.93
   0  -3 -69  634.90   93.55
  -3   0  69  701.51   84.10
   3   0 -69  632.59   76.90
  -3   0  69  632.66   95.48
  -3   3 -69  831.23   83.91
   3   0 -69  706.51  103.42
  -3   0  66  376.17   71.33
  -3   0  66  469.68   67.17
  -3   3 -66  438.35   60.51
   3   0 -66  291.71   63.90
   0  -3 -66  396.90   72.42
   3   0 -66  386.55   60.23
   0  -3 -63    4.66   22.01
  -3   0  63   75.04   30.58
   3   0 -63   91.04   39.35
   3   0 -63   37.67   12.92
   0   3  63   50.05   29.94
  -3   3 -63   24.25   14.36
  -3   0  63   93.78   28.60
   0   3  60  236.37   54.95
   0  -3 -60  152.00   40.29
  -3   3 -60  182.63   36.70
  -3   0  60  199.62   49.83
   3   0 -60  122.58   37.57
   3   0 -60  158.87   36.21
  -3   0  60  216.77   43.05
  -3   0  57   65.06   32.48
  -3   3 -57   80.93   25.67
  -3   3 -57   47.75   17.41
   3   0 -57   47.04   23.93
   0   3  57   52.68   23.08
  -3   0  57   60.18   23.02
   0  -3 -57   39.40   15.71
   3   0 -57   44.75   15.16
  -3   3 -54   58.58   21.57
   3   0 -54   26.24   14.66
  -3   0  54   11.81   14.58
   0   3  54   20.57   18.68
  -3   3 -54   60.73   20.36
  -3   0  54   54.75   24.04
   3   0 -54   11.02   16.74
   0   3  54   48.32   25.57
  -3   3 -54   32.45   18.42
   0  -3 -54   58.82   26.78
  -3   3 -51   30.12   23.78
   0  -3 -51   10.90   13.92
   3   0 -51   21.51   12.52
  -3   0  51    2.79    8.45
   3   0 -51   -7.66   18.42
  -3   3 -51    2.02    8.61
  -3   0  51    5.67   13.27
   0   3  51   -4.16   13.53
  -3   3 -51   20.32   13.79
  -3   3 -48  474.67   71.89
   3   0 -48  524.29   61.00
   0  -3 -48  428.21   63.33
  -3   0  48  485.18   61.57
   0  -3 -48  463.15   65.92
  -3   3 -48  599.06   63.60
  -3   0  48  491.57   68.64
   0   3  48  520.36   76.61
  -3   3 -48  471.95   56.14
   3   0 -45    3.28   12.89
   0   3  45   -6.90   18.45
  -3   0  45   12.45   10.77
   0  -3 -45   -5.16   15.23
  -3   3 -45  -13.84   10.89
   0  -3 -45  -17.76   16.62
  -3   3 -45  -25.18   17.52
  -3   0  45   13.34   16.64
   0  -3 -42  187.59   39.10
  -3   0  42  182.86   39.55
  -3   3 -42  173.88   32.44
  -3   3 -42  146.59   29.12
   0  -3 -42  131.22   32.59
   3   0 -42  180.16   35.22
   0   3  42  175.58   42.67
  -3   0  42  215.29   40.53
   0  -3 -39  876.15   80.56
   3   0 -39 1039.64   80.83
   0   3  39 1074.54   98.40
  -3   3 -39  948.82   72.84
  -3   0  39  863.14   81.17
  -3   3 -39  930.08   69.03
  -3   0  39  978.02   83.71
   0  -3 -39  873.45   81.92
  -3   3 -36  202.32   30.68
  -3   3 -36  171.79   30.07
   0  -3 -36  193.67   35.62
   0  -3 -36  157.92   34.76
   0   3  36  217.56   42.23
  -3   0  36  179.23   35.73
   3   0 -36  162.61   32.24
  -3   0  36  148.53   30.34
   0  -3 -33  212.68   37.91
  -3   0  33  171.24   32.03
   0   3  33  262.16   46.30
  -3   3 -33  191.21   30.61
   0   3  33  174.51   14.73
  -3   0  33  191.04   35.09
   0  -3 -33  245.28   39.52
   3   0 -33  185.54   31.46
  -3   3 -33  231.56   31.33
   0  -3 -30  412.41   50.70
  -3   3 -30  415.58   39.51
   0  -3 -30  370.98   45.01
  -3   3 -30  341.54   40.20
  -3   0  30  388.62   48.69
   0   3  30  298.47   21.53
   0   3  30  398.58   53.67
   3   0 -30  396.40   46.84
   0   3  27 4822.01  176.94
   0  -3 -27 4351.27  148.01
  -3   0  27 4173.41  154.93
   3   0 -27 4188.33  149.97
   0  -3 -27 4357.00  160.92
  -3   3 -27 4413.38  120.17
  -3   3 -27 4251.63  140.82
   3   0 -24   18.52   14.63
   0   3  24   27.93    8.91
   0  -3 -24   32.09   15.91
  -3   3 -24   10.95    6.74
  -3   0  24   12.98   12.68
   0   3  24   32.31   16.59
  -3   0  24   -4.40   10.10
  -3   3 -24   10.31    8.32
   0  -3 -24   -6.78    7.78
   0  -3 -21 3767.85  122.26
   0   3  21 3770.17  142.24
   0  -3 -21 3794.10  146.02
  -3   0  21 3710.95  139.43
  -3   0  21 3588.88  143.48
  -3   3 -21 3682.03   94.12
  -3   3 -21 3603.67  123.87
   0   3  21 3616.02   89.08
  -3   3 -18 1631.79   56.79
   0  -3 -18 1662.48   75.19
  -3   0  18 1859.97   98.36
   0   3  18 2084.18  100.80
   0   3  18 1775.29   66.47
   0  -3 -18 1797.41   95.53
   0  -3 -18 1692.60   62.92
  -3   0  18 1902.10   97.93
  -3   0  15 2177.28  101.92
   0  -3 -15 2346.02   77.15
   0   3  15 2356.42  100.85
   0   3  15 2304.78   78.04
  -3   3 -15 2333.53   59.63
   0  -3 -15 2269.04   80.54
   0  -3 -15 2302.65  101.93
  -3   0  15 2327.49  105.29
   0  -3 -12  208.91   23.30
   0  -3 -12  200.30   27.81
   0   3  12  175.76   19.57
   0   3  12  195.01   27.71
   0   3  12  208.49   24.75
  -3   0  12  126.50   22.33
  -3   0  12  183.70   29.55
   0   3   9  250.06   27.27
   0   3   9  226.31   19.01
  -3   0   9  233.09   31.82
   0  -3  -9  270.17   30.54
  -3   0   9  260.99   31.56
   0  -3  -9  261.80   27.50
   0   3   9  277.33   29.85
  -3   0   6  228.27   30.48
   0  -3  -6  250.88   27.95
   0   3   6  228.38   24.38
   0   3   6  233.70   17.94
  -3   0   3   35.90   15.89
   0   3   3   10.63    6.24
   0  -3  -3   13.98   10.96
   0  -3   0 3466.06  111.79
  -3   0   0 3280.91  111.22
   0   3   0 3346.87   76.29
   0   3  -3   41.47    7.34
  -3   0  -3   68.45   19.10
   0  -3   3   60.73   17.29
  -3   0  -6  346.86   35.07
   0  -3   6  324.61   36.42
   0  -3   9   94.46   20.64
  -3   0  -9   76.99   15.91
   0  -3  12  339.08   39.72
   3   0  12  388.64   35.90
  -3   0 -12  368.05   33.73
  -3   0 -15   85.32   16.24
   0   3 -15   50.56    7.41
  -3   3  15  104.50   23.78
   0  -3  15   84.19   19.01
  -3   0 -18  400.59   33.94
   0   3 -18  333.90   22.76
  -3   3  18  467.41   49.96
   0  -3  18  411.61   45.67
   3   0  21 2318.38  109.20
  -3   0 -21 2395.55   82.24
   0  -3  21 2625.28  117.80
  -3   3  21 2498.02  100.13
  -3   3  21 2677.54  124.06
   0   3 -21 2333.75   69.06
  -3   0 -24   42.39   11.85
   0  -3  24   32.93   17.26
   3  -3 -24   16.84    9.86
   0   3 -24   16.59    7.84
  -3   3  24   13.34   11.38
  -3   3  24   53.85   19.45
   3   0  24   27.17   18.80
   0  -3  27  590.44   58.28
  -3   3  27  609.51   51.44
   3  -3 -27  572.25   54.62
   0   3 -27  546.75   55.92
   0   3 -27  533.01   39.93
   3   0  27  499.47   55.05
  -3   0 -27  557.45   38.82
  -3   3  27  646.00   65.82
  -3   0 -30   24.36    8.68
   3  -3 -30   29.90   14.33
  -3   3  30   44.32   15.42
   0   3 -30   23.84   12.76
  -3   3  30   13.45   11.58
   3   0  30   19.55   13.20
   0  -3  30   40.55   17.59
  -3   3  30   21.86    7.58
   0   3 -30   11.34    6.87
   0   3 -33   -1.49    7.97
   3   0  33   -2.40    9.68
  -3   3  33   11.28   13.59
  -3   3  33   17.87   11.20
   0   3 -33   -2.23    6.44
  -3   0 -33    7.82    6.81
   0  -3  33  -13.15   11.29
  -3   3  33    2.86    8.70
   3  -3 -33   13.94    9.06
   0   3 -36  407.02   51.62
   0  -3  36  445.27   54.39
  -3   0 -36  319.16   27.10
  -3   3  36  384.37   41.49
   0   3 -36  372.60   41.68
   3  -3 -36  412.48   52.68
  -3   3  36  442.55   61.62
   3   0  36  328.48   48.55
  -3   3  36  413.93   59.12
  -3   3  39  486.55   66.83
  -3   0 -39  470.58   32.78
   3  -3 -39  511.31   61.13
   3   0  39  524.30   62.45
  -3   3  39  554.66   51.39
  -3   0 -39  470.93   32.57
   0   3 -39  505.03   51.03
   0   3 -39  551.63   60.27
   0  -3  39  551.94   61.68
  -3   3  39  689.46   80.28
  -3   0 -42   11.80    6.08
  -3   0 -42   22.85    6.98
   3  -3 -42   14.28   10.60
  -3   0 -42   17.97   13.39
   0   3 -42   31.57   16.26
   3   0  42    2.92    8.86
   0  -3  42   19.36   11.01
   0   3 -42   14.90   11.13
  -3   3  42   30.37   14.97
  -3   3  42   24.37   17.95
  -3   0 -45  301.47   25.63
  -3   3  45  418.62   45.19
   0  -3  45  421.77   56.40
   3   0  45  398.86   59.43
  -3   0 -45  356.65   28.83
  -3   0 -45  431.90   59.34
   3  -3 -45  387.68   57.89
   3  -3 -45  402.25   65.03
  -3   3  45  371.77   62.09
   0   3 -45  410.97   51.11
   0   3 -45  393.18   53.35
   3   0  48 2588.24  152.12
   0   3 -48 2764.64  144.40
  -3   3  48 2782.40  118.68
  -3   0 -48 2836.50  154.69
  -3   0 -48 2147.34   69.93
   0   3 -48 2626.85  135.12
   3  -3 -48 2903.64  177.32
   0  -3  48 2833.89  147.53
  -3   3  48 2719.09  170.24
   3  -3 -48 2996.84  162.19
  -3   0 -51    0.11    3.68
  -3   3  51    6.11    7.01
  -3   0 -51   11.20   19.96
   3  -3 -51  -10.96   19.34
  -3   0 -51   13.24    6.66
   0   3 -51   11.52   15.88
   0  -3  51   -6.07   15.31
  -3   3  51   47.24   27.88
   0   3 -51   16.96   16.16
   3   0  51   -1.01    8.90
  -3   3  54  440.99   73.89
  -3   3  54  504.38   51.90
   3  -3 -54  412.34   71.61
  -3   0 -54  277.39   21.35
   0  -3  54  488.45   64.38
   0   3 -54  442.25   61.44
   3   0  54  359.46   61.68
   0   3 -54  412.54   59.81
  -3   0 -54  308.01   23.51
  -3   0 -57   50.78    9.14
   3   0  57   71.02   27.56
  -3   3  57   61.20   34.37
   3  -3 -57  114.84   41.26
  -3   3  57   89.14   22.35
   0  -3  57   47.56   21.66
  -3   0 -57   36.52    6.95
   0   3 -57   81.97   27.74
   0   3 -57   88.81   29.48
  -3   3  60  906.24  112.00
   3  -3 -60  922.98  110.94
  -3   3  60 1054.07   77.95
   0   3 -60  941.61   92.47
   3   0  60  873.22  100.83
   0   3 -60  896.68   91.50
   0  -3  60  986.21   94.08
  -3   3  63  -13.43    7.13
  -3   3  63   21.89   24.70
   3  -3 -63   -9.54   23.40
   0  -3  63   17.70   11.97
   0   3 -63  -18.28   15.53
   0   3 -63  -11.55   19.92
   0   3 -66  152.25   37.94
  -3   3  66  166.08   30.41
   0  -3  66  175.35   40.61
  -3   3  66  144.86   49.11
   3  -3 -66  136.18   45.51
  -3   3  69  368.32   45.32
   3  -3 -69  318.79   69.14
  -3   3  69  355.47   77.52
   0   3 -69  356.69   60.43
   0  -3  69  318.52   54.42
  -3   3  72  -26.72   30.37
   0  -3  72   21.09   17.55
   3  -3 -72   -0.21   21.70
  -3   3  72    3.52   11.34
  -3   3  75   73.31   20.42
   0  -3  75   96.91   32.73
  -3   3  75  144.18   54.13
   3  -3 -75   93.32   39.49
  -3   3  78   -8.12   22.55
  -3   3  78   -8.17    9.83
   3  -3 -78  -26.34   34.41
   0  -3  78    1.71   11.41
   0  -3  81    4.29   10.52
  -3   3  81    0.70   19.77
  -3   3  81  -26.07   17.33
   3  -3 -81   -5.29   27.89
   0  -3  84   51.16   24.87
  -3   3  84   97.99   48.19
   3  -3 -84   28.78   25.08
   3  -3 -87  254.10   73.56
   0   3 -87  291.98   83.29
  -3   3  87  215.96   69.18
   0  -3  87  244.12   51.22
   3  -3 -90  -41.42   39.26
  -3   3  90   31.37   31.85
   0  -3  90   -0.83   16.48
   0   3 -90   40.57   35.85
  -3   3  93   15.86   21.60
   3  -3 -93   88.28   38.94
   0   3 -93   67.99   37.86
   0   3 -96  249.19   78.03
   3  -3 -96  241.89   76.42
  -3   3  96  193.11   67.70
   3  -3 -99  -37.38   33.12
   0   3 -99  -55.84   51.25
   3  -3-102   57.15   48.04
   0   3-102   43.62   41.77
  -3   0-102  -31.77   44.93
  -3   0-105  -81.84   64.29
  -3  -1-104  142.71   66.77
  -4   3 101   76.95   52.83
   4  -3-101   30.67   24.92
  -3  -1-101  -26.20   47.32
  -1   4-101   92.80   59.43
  -4   3  98   46.32   29.52
  -3  -1 -98   -9.85   34.89
   4  -3 -98  -13.74   28.04
  -3  -1 -95   24.86   27.26
  -4   3  95   71.30   45.67
   4  -3 -95  110.63   52.86
  -4   3  92  190.03   68.68
   4  -3 -92  183.90   67.39
   4  -3 -89   33.29   35.40
   1  -4  89  130.80   37.26
  -4   3  89   88.34   41.61
   1  -4  86    3.05   10.96
   4  -3 -86    9.48   34.37
  -4   3  86   46.61   33.13
  -4   3  83  150.48   36.16
   4  -3 -83  101.07   47.67
  -4   3  83  110.11   48.96
   1  -4  83  141.84   36.55
   1  -4  80    4.56   14.54
  -4   3  80  -25.72   17.75
   4  -3 -80  -17.51   20.81
  -4   3  80  -13.89   25.39
  -4   3  77   15.54   16.13
   1  -4  77   60.32   28.60
  -4   3  77   15.31   10.19
   4  -3 -77   32.66   16.71
  -4   3  74   61.58   32.61
   1  -4  74  107.15   33.29
  -4   3  74   96.99   28.35
   4  -3 -74   61.70   40.06
   4  -3 -71   19.13   23.73
   1  -4  71   -1.94   11.76
  -4   3  71   22.39   16.97
  -4   3  71   17.73   22.22
   1  -4  68  408.64   63.31
   3   1  68  436.79   79.33
  -4   3  68  443.57   59.29
  -4   3  68  301.74   70.42
   4  -3 -68  339.00   71.18
  -1   4 -65  187.69   46.31
  -4   3  65  188.51   54.24
   4  -3 -65  256.78   63.61
  -4   3  65  257.31   45.85
   3   1  65  332.21   69.67
   1  -4  65  252.23   50.25
   3   1  62  395.51   72.04
   4  -3 -62  328.60   69.11
   1  -4  62  460.14   64.97
  -1   4 -62  397.50   62.50
  -1   4 -62  375.33   61.41
  -4   3  62  425.86   56.16
  -4   3  62  411.45   76.17
   1  -4  59   73.68   26.53
   3   1  59   85.23   32.33
  -4   3  59   65.51   20.86
  -1   4 -59  104.78   33.70
   4  -3 -59   63.66   33.22
  -4   3  59   66.32   30.25
  -1   4 -59   59.46   23.25
  -4   3  56 1507.47  138.83
  -1   4 -56 1389.44  112.29
  -4   3  56 1489.36  102.76
   4  -3 -56 1315.24  131.00
   3   1  56 1232.90  119.47
  -1   4 -56 1234.51  104.22
   1  -4  56 1428.76  110.91
  -4   3  53   12.46   20.88
   1  -4  53    5.57   14.97
  -4   3  53   -4.52   15.17
   3   1  53  -11.57   16.37
  -1   4 -53    5.97    9.46
   4  -3 -53   46.49   26.17
  -1   4 -53   -7.92    9.55
  -1   4 -50  540.61   68.56
   1  -4  50  499.04   63.95
   4  -3 -50  476.97   75.06
   3   1  50  432.08   67.14
  -4   3  50  525.72   59.42
  -1   4 -50  469.95   59.48
  -4   3  50  425.01   70.92
   1  -4  47  405.30   57.88
  -1   4 -47  295.60   46.39
  -1   4 -47  360.59   56.10
   4  -3 -47  317.59   60.73
   3   1  47  282.72   53.59
  -4   3  47  300.51   44.52
  -4   3  47  260.05   54.68
   3   1  44 1766.27  129.15
  -1   4 -44 2101.67  129.80
  -4   3  44 1877.97  135.99
  -4   3  44 2081.97  114.49
  -4   3  44 2052.39  150.35
  -1   4 -44 1758.78  105.91
   1  -4  44 1927.95  121.11
  -4   3  41  297.78   54.69
  -4   3  41  394.29   64.77
  -4   3  41  334.25   45.12
   3   1  41  337.11   54.21
  -1   4 -41  312.39   42.15
  -1   4 -41  372.09   53.05
  -3  -1 -41  245.92   19.53
   1  -4  41  363.96   51.04
  -1   4 -38  135.92   27.26
  -1   4 -38  131.24   31.72
  -4   3  38  133.02   29.01
  -4   3  38  147.06   38.00
   1  -4  38  144.27   32.97
  -3  -1 -38   96.11   13.60
   3   1  38  129.50   33.41
  -4   3  38  117.73   33.14
  -1   4 -35  108.09   22.62
   3   1  35  122.74   32.78
  -4   3  35  107.07   33.28
   1  -4  35  109.40   28.55
  -1   4 -35  111.43   28.52
  -4   3  35  135.33   28.06
  -3  -1 -35  105.77   16.20
  -4   3  32  803.28   67.44
  -1   4 -32  705.66   55.48
  -1   4 -32  731.78   70.87
  -4   3  32  744.88   79.10
   1  -4  32  709.99   68.77
  -3  -1 -32  655.64   40.17
   1  -4  29 1020.41   80.78
  -1   4 -29  973.61   61.90
  -4   3  29 1082.43   92.87
  -3  -1 -29  953.00   50.46
  -4   3  29 1106.55   78.15
  -1   4 -29 1001.66   81.50
  -4   3  26  297.58   45.66
  -4   3  26  281.82   39.48
   1  -4  26  260.47   39.35
  -3  -1 -26  266.10   27.71
  -1   4 -26  264.35   42.31
   3   1  23  482.83   37.86
  -3  -1 -23  547.25   40.71
   1  -4  23  645.38   61.45
  -4   3  23  666.13   67.66
  -4   3  23  674.73   60.92
  -4   3  20  871.80   67.83
   1  -4  20  731.25   64.83
  -4   3  20  839.85   74.47
  -3  -1 -20  776.14   50.52
   3   1  20  849.46   53.54
  -3  -1 -17 1411.86   69.39
   3   1  17 1371.45   69.48
  -4   3  17 1459.75   85.80
   1  -4  17 1561.41   92.46
  -4   3  17 1494.73   96.94
   3   1  14 2244.42   89.10
  -4   3  14 2428.29  109.84
  -3  -1 -14 2276.81   90.45
   1  -4  14 2498.08  113.92
   1  -4  11   28.82   14.66
   3   1  11   37.29   13.50
  -3  -1 -11   53.94   15.14
   3   1   8  848.56   58.05
   1  -4   8  871.71   65.08
  -3  -1  -8  845.57   58.30
  -3  -1  -5  347.26   38.94
   1  -4   5  365.79   41.69
   1  -4   2   42.26   14.41
  -3  -1  -2   48.08   15.11
   1  -4  -1   47.02   15.92
  -3  -1   1   48.57   15.99
  -3  -1   4  212.55   24.63
   1  -4  -4  236.49   31.04
  -3  -1   4  226.10   33.38
  -3  -1   7  197.42   32.50
  -1   4   7  227.98   28.57
  -3  -1   7  171.40   23.39
   1  -4  -7  252.99   31.59
  -1   4  10  478.22   36.85
   1  -4 -10  513.85   44.67
  -1   4  10  494.59   44.93
  -3  -1  10  432.95   40.87
  -3  -1  10  459.25   48.80
  -1   4  10  542.31   46.76
  -1   4  10  532.84   46.17
  -3  -1  13 1765.94   98.74
   3   1 -13 1750.54   80.78
  -3  -1  13 1743.33   85.77
  -1   4  13 1634.21   72.02
  -1   4  13 1826.01   90.74
   4  -3  13 1716.25   59.29
  -1   4  13 1801.65   80.91
  -1   4  13 1922.62   90.44
  -1   4  16  260.04   35.05
   3   1 -16  253.48   33.66
   4  -3  16  226.76   22.92
  -3  -1  16  236.02   33.73
  -1   4  16  237.30   29.45
  -1   4  16  285.30   39.15
  -1   4  16  267.34   31.41
  -3  -1  16  290.82   42.36
  -1   4  19 3157.25  132.38
   3   1 -19 3177.05  123.91
  -1   4  19 2871.90   98.02
  -3  -1  19 2918.21  124.23
  -3  -1  19 2981.79  134.17
  -1   4  19 2943.69  109.20
   4  -3  19 2905.29   88.09
   1  -4 -22  257.09   39.36
  -1   4  22  281.63   32.61
   4  -3  22  212.00   28.42
  -1   4  22  397.42   53.78
  -3  -1  22  344.64   47.23
   3   1 -22  222.75   37.43
  -1   4  22  194.75   32.81
   4  -3  25 2157.07   86.41
  -3  -1  25 2297.39  123.88
  -1   4  25 2574.36  131.33
   1  -4 -25 2367.62  117.93
  -1   4  25 2309.65   83.10
   3   1 -25 2367.75  119.49
   1  -4 -25 2215.68  109.32
  -1   4  25 2482.36  112.11
   4  -3  28  359.59   37.69
   1  -4 -28  432.91   51.89
  -1   4  28  409.16   34.18
  -1   4  28  505.32   60.29
   3   1 -28  391.72   49.22
   1  -4 -28  398.69   48.45
  -3  -1  28  431.90   55.14
   3   1 -28  374.70   50.02
  -1   4  31 2393.17   80.37
   3   1 -31 2407.53  130.81
  -1   4  31 2868.12  149.22
  -3  -1  31 2349.96  111.66
   3   1 -31 2262.19  120.48
  -4   3 -31 2405.30  110.74
   4  -3  31 2314.65  100.74
   1  -4 -31 2706.16  134.36
   1  -4 -31 2595.65  129.97
  -4   3 -31 2460.74  102.82
  -3  -1  31 2461.07  133.13
   4  -3  34  522.76   50.52
   3   1 -34  484.70   61.01
   1  -4 -34  497.21   58.30
  -1   4  34  530.69   36.52
  -3  -1  34  553.80   64.37
  -4   3 -34  457.25   48.90
  -1   4  34  591.23   69.84
   3   1 -34  536.67   59.82
  -4   3 -34  527.80   49.99
   1  -4 -34  562.35   63.64
  -3  -1  34  506.66   54.29
  -1   4  37   21.49    8.68
  -3  -1  37   18.01   13.39
  -3  -1  37    0.50   10.23
   1  -4 -37    9.84   10.97
   3   1 -37  -19.68   18.34
   3   1 -37   -2.89   20.83
  -4   3 -37   12.27    9.44
  -4   3 -37    0.04    5.74
   1  -4 -37   23.75   14.67
  -1   4  40   62.95   26.36
   1  -4 -40   26.94   17.34
  -4   3 -40   48.45   19.07
  -4   3 -40   20.76   12.64
  -3  -1  40   60.00   23.12
   3   1 -40   38.33   20.70
  -1   4  40   16.57    6.86
  -3  -1  40   49.66   20.53
   3   1 -40   44.50   20.53
  -1   4  40   22.53    8.05
   1  -4 -40   57.19   23.43
   3   1 -43  802.95   77.71
  -3  -1  43  775.94   77.44
  -3  -1  43  949.32   88.67
  -1   4  43  609.57   35.73
   3   1 -43  864.02   90.00
  -1   4  43  852.73   93.19
  -4   3 -43  796.96   68.94
  -1   4  43  617.71   36.35
  -4   3 -43  780.12   69.04
   1  -4 -43  773.27   82.02
   1  -4 -43  850.07   85.51
  -3  -1  46   41.64   21.14
   3   1 -46   35.70   20.77
  -1   4  46   36.45    8.88
   1  -4 -46   36.70   15.54
  -1   4  46   40.45    8.59
   1  -4 -46   78.21   32.25
  -4   3 -46   53.96   18.47
   3   1 -46   59.22   22.47
  -4   3 -46   48.26   18.49
  -3  -1  46   55.63   21.82
  -1   4  46   77.21   32.42
   1  -4 -46   65.24   27.37
  -3  -1  49   10.16   19.37
  -4   3 -49  -13.80   13.25
  -3  -1  49   11.70   12.76
   3   1 -49    5.07   12.08
  -1   4  49    3.92    3.90
  -4   3 -49    1.60   10.19
  -1   4  49    1.47    1.84
   3   1 -49  -12.54   20.26
   1  -4 -49  -19.09   22.16
  -1   4  49   18.67   18.42
  -1   4  49   21.24   18.50
   1  -4 -52  389.19   64.80
  -4   3 -52  461.49   59.80
  -3  -1  52  460.72   65.44
  -4   3 -52  466.63   57.32
   3   1 -52  390.64   58.46
   3   1 -52  442.96   70.71
  -1   4  52  413.86   70.57
  -3  -1  52  423.08   65.69
  -3  -1  55   79.63   26.16
   1  -4 -55   68.24   29.56
  -1   4  55   99.59   39.13
   3   1 -55   88.84   26.94
  -4   3 -55  109.13   28.66
   3   1 -55   89.76   32.67
  -4   3 -55  123.17   32.26
  -3  -1  55  120.70   36.17
   1  -4 -58  273.28   56.31
  -1   4  58  355.74   72.88
  -4   3 -58  353.02   52.43
  -3  -1  58  292.02   58.39
   3   1 -58  279.03   52.57
  -4   3 -58  329.34   53.32
  -3  -1  58  374.44   62.46
   3   1 -58  368.52   68.67
   3   1 -61  495.12   69.42
  -3  -1  61  519.53   79.42
   3   1 -61  522.40   85.11
  -1   4  61  504.88   84.94
  -4   3 -61  470.84   61.50
   1  -4 -61  388.04   70.74
  -3  -1  61  490.21   72.63
  -3  -1  64   91.96   30.36
  -4   3 -64   59.41   20.82
  -1   4  64  118.41   45.22
  -3  -1  64   83.72   34.47
   1  -4 -64   65.81   25.28
   3   1 -64  132.25   44.95
  -1   4  67   25.42   21.74
   3   1 -67   59.60   31.11
  -4   3 -67   -6.07   18.65
  -3  -1  67   45.43   31.69
  -3  -1  67   28.33   17.87
   1  -4 -67  -20.46   30.70
   3   1 -70  190.23   54.72
   1  -4 -70  208.29   56.58
  -3  -1  70  186.92   44.55
  -4   3 -70  160.86   37.55
  -1   4  70  208.66   61.53
  -3  -1  70  210.30   54.77
  -3  -1  73  312.88   67.42
  -1   4  73  331.44   78.47
  -3  -1  73  323.12   61.67
   3   1 -73  284.57   71.46
   1  -4 -73  231.61   58.50
  -4   3 -73  431.24   60.60
   1  -4 -76   -9.24   25.45
  -3  -1  76  -28.36   26.73
  -1   4  76   31.24   32.58
   3   1 -76  -34.75   29.70
  -3  -1  76  -26.93   22.75
   3   1 -79   61.56   32.79
   1  -4 -79   80.49   39.61
  -3  -1  79   85.69   39.08
  -1   4  79   70.47   40.03
  -3  -1  79  106.55   35.88
  -3  -1  82   -3.57   15.97
   1  -4 -82  -35.81   37.31
   3   1 -82   18.26   21.56
  -3  -1  85   15.89   11.50
   1  -4 -85  -31.44   41.53
   3   1 -85  -10.67   26.01
  -3  -1  88  100.74   38.02
   1  -4 -88   99.75   48.69
   3   1 -88   96.02   48.37
   1  -4 -91   22.63   26.36
   3   1 -91  -23.57   33.29
  -3  -1  91   -9.96   12.14
   3   1 -94   25.40   31.60
   1  -4 -94   -3.85   27.73
   3   1 -97   91.75   59.80
   1  -4 -97   65.34   43.46
   1  -4-100  213.01   70.88
   3   1-100  182.64   67.16
   1  -4-103   49.68   48.12
   3   1-103   29.59   37.41
  -2  -2-105  -46.72   58.08
  -2  -2-102   45.92   24.14
   4  -2-102   14.95   29.60
   4  -2 -99   16.34   25.95
  -4   2  99   76.17   48.85
  -2  -2 -99  -47.39   53.30
  -4   2  96  180.40   64.86
   4  -2 -96  125.97   57.31
  -2  -2 -96  138.02   57.81
  -2  -2 -93  196.47   72.42
  -4   2  93  207.41   71.35
   4  -2 -93  190.05   65.50
  -4   2  90   -2.80   24.52
  -2  -2 -90   34.28   33.29
   4  -2 -90  -23.47   23.01
   4  -2 -87   15.94   29.20
  -2  -2 -87   59.30   34.56
  -4   2  87   46.56   35.68
   4  -2 -84   13.71   26.02
  -4   2  84   -3.44   20.51
  -2  -2 -84  -23.12   35.34
  -4   2  84   24.45   18.21
  -4   2  81   -6.90   14.13
  -2  -2 -81  -24.52   26.49
   4  -2 -81  -49.54   41.70
  -4   2  81  -24.43   31.42
  -4   2  78   31.89   22.63
   4  -2 -78   29.54   33.42
  -2  -2 -78    1.37   23.49
  -4   2  78  -10.96   17.68
   4  -2 -75  136.28   36.75
  -4   2  75  128.69   37.50
   4  -2 -75   69.91   33.07
  -4   2  75   95.95   43.99
  -4   2  72   70.95   33.43
  -4   2  72   98.15   27.27
   4  -2 -72   97.93   31.39
   4  -2 -72   83.56   40.92
  -4   2  69  319.23   73.04
  -4   2  69  324.28   54.44
   2  -4  69  337.32   56.26
  -2   4 -69  392.44   64.64
   4  -2 -69  328.86   55.26
   4  -2 -69  307.29   73.51
   2   2  66  190.81   52.54
   2  -4  66  221.60   43.83
   4  -2 -66  221.53   44.65
  -2   4 -66  259.48   51.94
  -4   2  66  229.66   59.45
   4  -2 -66  188.08   51.14
  -4   2  66  266.25   46.89
   2  -4  63   42.99   20.36
  -2   4 -63   15.74   18.85
  -4   2  63   10.95   18.02
  -4   2  63   14.80   18.39
   4  -2 -63    8.54   10.46
   2   2  63   24.33   21.55
   4  -2 -63  -50.66   31.96
   2  -4  60  735.12   77.32
   4  -2 -60  760.72   79.72
  -2   4 -60  712.05   88.99
  -2   4 -60  870.30   91.16
   2   2  60  755.69   97.38
   4  -2 -60  696.02   97.94
  -4   2  60  784.05   82.93
  -4   2  60  712.78   99.21
  -4   2  57   55.85   25.15
  -2   4 -57   23.19   14.04
   4  -2 -57   57.43   26.74
  -4   2  57   36.66   27.01
  -2   4 -57   15.18   14.87
   2  -4  57   27.99   17.82
   4  -2 -57   39.75   17.72
   2   2  57   -2.01   12.41
  -2   4 -57   42.14   29.59
  -2   4 -54  663.66   76.24
   4  -2 -54  623.65   69.54
  -4   2  54  625.92   70.72
   2  -4  54  613.97   68.44
   4  -2 -54  579.52   86.16
  -2   4 -54  561.44   63.67
  -4   2  54  561.48   83.19
  -2   4 -54  599.44   76.64
   2   2  54  499.81   76.66
  -4   2  51  488.96   76.71
  -2   4 -51  586.88   73.55
   2  -4  51  639.72   69.94
  -2   4 -51  735.83   78.38
   4  -2 -51  617.38   87.30
  -2   4 -51  575.78   62.17
   2   2  51  558.36   78.10
  -4   2  51  644.44   69.94
   4  -2 -51  662.41   71.11
  -2   4 -48 1103.33   82.32
   4  -2 -48 1272.87   95.77
  -4   2  48 1093.28  107.49
  -2   4 -48 1307.05  102.32
   2  -4  48 1131.27   89.76
  -2   4 -48 1124.00   97.96
  -4   2  48 1193.01   93.86
   2   2  48 1111.84  106.43
  -2   4 -45  147.51   34.43
  -4   2  45  117.33   28.77
   4  -2 -45  154.69   32.99
  -4   2  45   89.02   30.73
  -2   4 -45  115.15   29.17
   2  -4  45  103.61   26.83
   2  -4  42  282.12   43.43
  -4   2  42  301.13   54.41
  -2   4 -42  305.46   48.66
  -4   2  42  310.70   46.88
   4  -2 -42  347.13   47.74
  -2   4 -42  370.93   51.96
   4  -2 -39  205.46   38.34
  -4   2  39  165.97   39.67
  -2   4 -39  156.38   35.49
   2  -4  39  187.56   36.16
  -4   2  39  206.51   38.36
  -4   2  39  183.85   45.54
  -2   4 -36 1374.48   97.88
   4  -2 -36 1363.84   93.04
  -4   2  36 1316.22   91.13
  -4   2  36 1200.87  106.38
   2  -4  36 1322.05   90.59
  -2  -2 -33  259.27   19.32
   4  -2 -33  445.75   52.26
   2  -4  33  429.14   51.23
  -2   4 -33  441.05   54.33
  -4   2  33  414.42   60.49
  -4   2  33  383.65   48.48
  -2  -2 -30   98.26   30.13
  -2  -2 -30   39.33    8.99
   4  -2 -30   63.56   20.43
  -4   2  30   42.00   15.65
  -2   4 -30   77.49   24.27
   2  -4  30   76.13   22.54
  -4   2  30   47.17   19.07
   2   2  30   68.90   11.69
  -4   2  27 1430.66  105.77
   2   2  27 1405.18   54.11
  -4   2  27 1654.15   97.55
   4  -2 -27 1685.65   98.51
   2  -4  27 1677.82   97.17
  -2   4 -27 1687.26  100.92
  -2  -2 -27 1461.25  103.80
  -2  -2 -27 1395.09   54.39
  -4   2  24 1260.62   95.75
   4  -2 -24 1448.64   90.09
   2   2  24 1149.08   51.42
  -2   4 -24 1380.47   88.69
  -2  -2 -24 1305.28   56.08
  -2  -2 -24 1303.03   93.16
  -4   2  24 1415.86   88.99
   2  -4  24 1447.90   88.99
  -2  -2 -21 1636.73  100.65
  -4   2  21 1669.17   95.02
   2   2  21 1362.75   59.03
   2  -4  21 1682.52   94.33
  -4   2  21 1562.17  102.14
   4  -2 -21 1701.55   96.41
  -2  -2 -21 1529.87   63.77
  -2  -2 -18 3329.52  136.83
  -2  -2 -18 3202.02   96.06
   2   2  18 3143.11   93.48
   2  -4  18 3624.08  135.41
  -4   2  18 3567.72  135.84
  -4   2  18 3223.22  141.42
  -4   2  15  259.39   39.14
   2  -4  15  290.77   38.96
   2   2  15  285.48   29.53
  -2  -2 -15  271.53   28.73
  -2  -2 -15  291.71   38.52
  -4   2  15  276.55   37.87
   2   2  12  383.80   35.97
   2  -4  12  281.68   37.47
  -2  -2 -12  342.96   35.52
  -4   2  12  284.33   38.56
   2  -4   9  122.04   24.76
  -2  -2  -9  138.00   23.30
   2   2   9  100.95   18.51
  -4   2   9  101.06   23.30
  -2  -2  -6  363.25   37.41
  -4   2   6  364.39   41.07
  -4   2   3  101.17   21.58
  -2  -2  -3  109.24   21.93
  -4   2   0  111.91   22.27
  -2  -2   0  112.14   22.51
  -2  -2   3   37.38   13.15
  -4   2  -3   30.80   12.47
  -2   4   3   28.03    7.90
  -2   4   6  218.19   23.43
   2   2  -6  214.32   19.78
  -2  -2   6  223.33   32.87
  -2   4   9  941.14   52.13
  -2  -2   9  831.65   64.43
   2   2  -9  937.42   47.77
  -2   4  12  191.29   26.27
   2   2 -12  112.08   19.42
  -2  -2  12  129.23   28.73
   2  -4 -12  182.86   27.06
  -2   4  15 1151.74   65.46
   2  -4 -15 1055.33   63.74
  -2   4  15 1037.83   66.26
  -2  -2  15 1011.29   75.61
   2   2 -15 1070.69   61.81
  -2  -2  18  463.43   53.55
   2  -4 -18  392.94   43.73
   4  -2  18  641.86   50.02
  -2   4  18  512.35   51.95
  -2   4  18  548.26   49.73
   2   2 -18  388.14   41.17
  -2   4  21 4051.79  143.94
   2  -4 -21 3935.54  134.99
  -2  -2  21 3603.63   98.64
  -2   4  21 3918.68  150.63
  -2   4  21 3727.76  130.28
   2   2 -21 3832.95  133.63
   4  -2  21 3623.88  120.13
  -2  -2  21 3708.77  150.67
   2  -4 -24 1036.32   73.39
  -2   4  24 1182.57   86.64
  -2  -2  24  999.34   56.93
  -2  -2  24 1089.96   83.60
   4  -2  24 1042.42   67.32
  -2   4  24 1151.61   79.68
  -2   4  24 1069.43   73.05
   2   2 -24  972.55   71.44
  -2  -2  27 1422.62   97.86
   2  -4 -27 1426.54   90.24
   4  -2  27 1275.06   77.36
  -2  -2  27 1275.67   68.96
   2  -4 -27 1732.03  106.45
  -2   4  27 1544.80  103.52
  -2   4  27 1616.80   99.24
   2   2 -27 1336.53   89.53
   2   2 -27 1302.39   87.10
  -2   4  27 1437.26   89.26
   2  -4 -30  593.20   60.50
  -2  -2  30  563.09   48.95
   2   2 -30  590.98   60.85
  -2   4  30  628.99   64.20
   4  -2  30  567.89   53.95
   2  -4 -30  635.11   67.02
   2   2 -30  574.63   60.02
  -2  -2  30  631.22   66.97
  -2   4  30  657.55   70.36
  -2  -2  33   25.51   12.23
   4  -2  33   25.59   13.12
   2  -4 -33   43.77   21.85
   2  -4 -33   36.28   20.78
  -2  -2  33   26.68   14.66
   2   2 -33   -6.73   13.82
  -2   4  33   65.69   25.61
  -2   4  33   66.47   25.54
   2   2 -33   43.69   18.05
  -2   4  36  284.60   55.78
   4  -2  36  196.58   35.25
  -2  -2  36  224.15   36.00
  -2   4  36  304.25   33.51
   2   2 -36  260.71   43.21
   2  -4 -36  242.55   43.93
   2  -4 -36  303.52   52.12
   2   2 -36  203.52   39.55
  -2  -2  36  287.28   49.60
   2   2 -39 1643.22  115.27
  -2  -2  39 1803.72  119.19
  -2  -2  39 1671.40   98.82
  -4   2 -39 1758.92  104.36
   2  -4 -39 1771.52  115.99
  -4   2 -39 1711.33   88.31
   2   2 -39 1836.92  114.21
  -2   4  39 1750.63   77.92
   2  -4 -39 1848.81  126.19
   4  -2  39 1671.01  103.34
  -2   4  39 1881.54  131.53
  -2  -2  42  110.64   26.77
   2   2 -42  136.01   33.97
   2   2 -42  146.41   32.63
   4  -2  42  153.56   32.92
  -4   2 -42  144.30   30.51
   2  -4 -42  148.72   35.31
   2  -4 -42  161.65   38.53
  -4   2 -42  125.36   24.25
  -2   4  42  199.28   46.56
  -2   4  42  160.37   23.41
  -2  -2  42  150.73   35.23
  -2   4  45   46.02   22.61
   2   2 -45   52.42   19.93
  -2  -2  45   89.97   27.25
  -4   2 -45   29.54   13.73
   2  -4 -45   56.74   23.36
   4  -2  45   33.45   17.07
   2   2 -45   42.49   21.26
   2  -4 -45   14.52    8.41
  -2  -2  45   18.79   12.29
  -2   4  45   29.16    9.54
  -4   2 -45   36.81   17.30
  -2  -2  48  658.73   71.58
  -2   4  48  786.23   95.31
  -4   2 -48  723.46   74.32
  -4   2 -48  714.19   60.97
   4  -2  48  678.77   74.47
   2  -4 -48  746.92   87.83
   2   2 -48  697.72   84.16
   2   2 -48  761.12   78.61
  -2  -2  48  699.55   79.17
  -2   4  48  684.86   48.12
   2  -4 -51  535.53   76.35
  -4   2 -51  576.29   55.85
  -2  -2  51  556.67   72.14
  -4   2 -51  572.81   68.72
  -2   4  51  552.91   83.07
  -2  -2  51  532.89   67.61
   2   2 -51  550.27   68.02
   2   2 -51  509.52   74.33
  -2   4  51  561.28   42.62
  -2   4  54  371.63   68.67
  -2   4  54  332.83   32.94
  -2  -2  54  346.49   57.45
   2   2 -54  321.76   62.10
   2   2 -54  346.74   55.60
   2  -4 -54  346.57   61.99
  -4   2 -54  380.22   46.18
  -2  -2  54  298.70   53.16
  -4   2 -54  358.20   55.73
  -2  -2  57  295.43   53.35
   2   2 -57  411.27   72.10
  -2   4  57  380.99   71.34
   2   2 -57  402.15   60.68
   2  -4 -57  409.77   70.15
  -2   4  57  344.92   32.19
  -4   2 -57  409.86   49.02
  -2  -2  57  311.36   56.31
   2   2 -60  579.27   73.25
  -4   2 -60  587.08   60.07
  -2   4  60  633.85   93.76
   2  -4 -60  574.13   85.56
  -2  -2  60  535.12   75.17
  -2  -2  60  505.95   73.55
  -2   4  60  528.31   39.16
   2   2 -60  564.60   85.17
   2  -4 -63  -16.09   20.96
  -2   4  63  -23.65   27.58
  -2  -2  63   19.55   21.09
  -4   2 -63  -25.59   17.21
   2   2 -63  -25.80   27.75
  -2   4  63    8.58    6.66
  -2  -2  63   -1.04   19.97
  -2  -2  66   22.91   21.15
   2  -4 -66   62.02   30.12
  -4   2 -66   23.28   12.16
   2   2 -66   22.91   15.36
  -2   4  66   47.65   11.44
  -2   4  69  809.26  115.04
   2   2 -69  738.99  106.66
   2  -4 -69  654.01   99.09
  -2  -2  69  762.38   94.37
  -4   2 -69  833.46   72.31
  -2   4  72   20.71   14.32
  -4   2 -72   14.92   12.81
  -2  -2  72  -11.59   20.31
   2  -4 -72   -2.06   22.35
   2   2 -72  -14.18   25.10
  -2  -2  75  225.93   52.98
  -2   4  75  128.81   49.27
   2  -4 -75  107.29   35.81
  -4   2 -75  121.17   27.80
   2   2 -75  149.01   51.16
   2  -4 -78  -53.67   38.65
   2   2 -78  -20.54   23.88
  -2   4  78   47.13   31.05
  -2  -2  78  -22.22   27.73
  -2  -2  81   14.74   13.80
  -2   4  81   16.24   22.31
   2   2 -81   27.94   17.79
   2  -4 -81  -21.08   30.41
  -2  -2  84   60.34   27.95
  -2   4  84   50.60   29.56
   2  -4 -84    8.81   25.02
   2   2 -84   49.85   33.14
  -2   4  87   81.00   43.86
  -2  -2  87   64.27   31.46
   2   2 -87   44.36   27.91
   2  -4 -87   46.29   26.97
   2   2 -90   -2.63   27.64
  -2  -2  90   19.95   21.76
   2  -4 -90  -22.29   33.47
  -2   4  90    3.69   23.35
   2   2 -93  -22.67   28.27
   2  -4 -93  -31.14   36.67
   2  -4 -96  297.68   78.49
   2   2 -96  313.73   90.67
   2   2 -99   -6.62   24.64
   2  -4 -99   -0.75   30.53
   2  -4-102   27.67   28.46
   2   2-102   55.28   39.23
   2  -4-105    9.08   36.94
  -1  -3-103  -42.22   54.14
   4  -1-100  167.16   67.34
  -1  -3-100  102.98   52.98
  -1  -3 -97  147.24   60.24
   4  -1 -97  157.67   63.85
  -4   1  97  210.88   73.27
  -1  -3 -94   33.83   28.69
  -4   1  94   31.00   40.47
   4  -1 -94   57.93   32.42
  -1  -3 -91   -8.76   18.08
  -4   1  91   26.65   34.09
   4  -1 -91  -31.24   39.91
  -4   1  88   31.65   29.90
  -1  -3 -88    7.83   17.46
  -4   1  88   27.93   17.58
   4  -1 -88  -30.28   31.65
  -1  -3 -85   33.61   28.67
  -4   1  85  -10.14   29.83
  -4   1  85   71.60   32.06
   4  -1 -85  -51.84   40.52
  -4   1  82   26.14   22.55
  -4   1  82   -6.80   22.44
  -1  -3 -82  -40.78   36.12
   4  -1 -82   -2.96   16.31
  -4   1  79   91.23   37.24
   4  -1 -79   36.56   32.40
  -4   1  79   52.02   32.49
  -1  -3 -79   -3.04   18.84
   4  -1 -76  -15.10   18.46
  -4   1  76   12.15   18.66
  -1  -3 -76   -7.02   21.29
  -4   1  76   39.21   23.70
  -4   1  73  292.49   56.14
   4  -1 -73  263.20   67.92
  -1  -3 -73  269.24   62.24
  -3   4 -73  323.06   59.50
  -4   1  73  277.02   66.62
  -4   1  70   67.97   34.78
  -4   1  70   50.61   23.99
   4  -1 -70   76.05   30.74
  -3   4 -70   52.80   25.37
  -1  -3 -70   46.67   19.07
   4  -1 -70  117.42   43.70
  -4   1  67   30.74   12.55
  -1  -3 -67   19.06   21.53
  -3   4 -67   49.35   24.55
   4  -1 -67   31.95   15.96
   4  -1 -67   47.92   24.38
  -4   1  64  304.63   66.02
  -4   1  64  336.60   55.40
   1   3  64  291.07   64.69
  -1  -3 -64  255.37   56.94
   4  -1 -64  372.94   73.91
   4  -1 -64  287.73   53.38
  -3   4 -64  303.94   54.42
  -4   1  61  206.71   45.74
  -1  -3 -61  127.00   39.20
  -3   4 -61  203.07   45.31
   1   3  61  196.11   53.24
   4  -1 -61  178.77   42.02
   4  -1 -61  129.85   45.27
  -4   1  61  179.96   49.14
  -3   4 -58  601.94   68.49
  -4   1  58  579.27   74.21
   4  -1 -58  720.32   80.93
  -4   1  58  579.67   85.84
   4  -1 -58  555.40   86.83
  -1  -3 -58  594.59   82.77
  -3   4 -58  725.37   80.76
   1   3  58  605.05   86.39
  -4   1  55   87.18   38.07
  -4   1  55   95.81   30.92
  -3   4 -55   83.67   32.76
  -3   4 -55   77.69   23.34
  -1  -3 -55   82.29   29.63
  -3   4 -55   96.69   28.71
   4  -1 -55   83.54   28.15
   4  -1 -55   58.86   29.79
   1   3  55   83.13   31.50
   1   3  52  369.33   63.04
  -4   1  52  311.16   59.69
  -3   4 -52  380.30   57.00
  -4   1  52  382.39   60.33
  -3   4 -52  363.03   50.02
   4  -1 -52  303.34   61.38
   4  -1 -52  375.05   56.15
  -3   4 -52  391.58   67.46
  -1  -3 -52  300.06   53.30
  -3   4 -49   21.15   14.67
  -3   4 -49   16.69   13.46
   4  -1 -49   45.12   27.61
  -3   4 -49   29.42   13.77
  -1  -3 -49   11.95    9.17
  -4   1  49   37.28   22.74
   4  -1 -49   47.41   21.37
   1   3  49   13.58   16.89
  -4   1  49   55.75   27.41
  -3   4 -46  124.62   27.29
  -4   1  46  117.36   34.87
  -4   1  46  146.77   34.08
  -1  -3 -46  150.53   39.93
   4  -1 -46  122.69   30.55
  -3   4 -46  119.15   30.23
  -1  -3 -46   91.83   27.66
   4  -1 -43   81.44   27.59
  -3   4 -43   59.78   21.15
  -4   1  43   81.11   27.80
  -3   4 -43   70.09   19.83
  -1  -3 -43   34.06   22.43
  -1  -3 -43   43.52   20.15
  -4   1  43   46.70   24.55
  -1  -3 -40  475.87   58.46
  -4   1  40  409.40   58.03
   4  -1 -40  497.80   59.90
  -3   4 -40  471.50   47.77
  -3   4 -40  488.55   58.02
  -1  -3 -40  441.10   65.46
  -4   1  40  548.11   63.19
  -1  -3 -37  173.13   40.82
  -3   4 -37  130.98   28.53
   4  -1 -37  134.91   29.92
  -4   1  37  122.19   30.66
  -3   4 -37  161.34   26.88
  -1  -3 -37   87.18   23.90
  -4   1  37  166.45   34.44
  -3   4 -34  335.63   35.89
  -1  -3 -34  285.93   41.06
   4  -1 -34  305.80   44.85
  -3   4 -34  333.61   46.08
  -4   1  34  288.37   50.82
  -1  -3 -34  300.04   49.19
  -4   1  34  338.95   48.11
  -4   1  31 1991.85  115.15
  -1  -3 -31 1895.84  101.67
  -1  -3 -31 1909.07  122.71
  -3   4 -31 1988.99   82.65
  -3   4 -31 2166.55  114.82
  -4   1  31 1987.95  129.88
   1   3  31 1619.69   52.50
   4  -1 -31 2095.60  115.85
  -1  -3 -28  412.13   55.65
   4  -1 -28  430.47   52.58
   1   3  28  384.05   27.71
  -3   4 -28  463.83   51.79
  -4   1  28  382.55   55.57
  -1  -3 -28  358.26   26.65
  -4   1  28  386.65   50.05
  -1  -3 -28  436.65   45.35
  -3   4 -28  413.10   35.05
   4  -1 -25 2329.57  120.13
   1   3  25 2162.48   71.05
  -1  -3 -25 2141.86  118.94
  -4   1  25 2199.39  115.67
  -3   4 -25 2467.55  117.61
  -4   1  25 2099.54  123.54
  -1  -3 -25 2145.74   94.38
  -1  -3 -25 2161.54   70.99
  -3   4 -25 2283.86   76.91
  -1  -3 -22 1482.42   62.90
  -1  -3 -22 1429.08   71.32
  -3   4 -22 1372.66   54.14
  -1  -3 -22 1538.76   97.18
  -3   4 -22 1555.20   91.68
  -4   1  22 1496.08  101.18
  -4   1  22 1489.99   94.09
   1   3  22 1495.19   63.01
  -1  -3 -19 2996.61   94.85
  -3   4 -19 3006.62   71.75
   1   3  19 2966.11   92.56
  -4   1  19 2800.96  132.10
  -1  -3 -19 2938.54  125.91
  -1  -3 -19 3102.35   95.03
  -4   1  19 3091.87  132.68
  -3   4 -16   79.03   10.08
  -4   1  16  112.81   25.93
  -1  -3 -16  118.32   25.26
  -4   1  16   77.84   21.51
  -1  -3 -16   88.81   14.86
  -1  -3 -16   82.38   17.09
   1   3  16  117.03   19.56
  -1  -3 -13  216.40   19.43
  -1  -3 -13  295.35   36.50
   1   3  13  284.19   31.54
  -1  -3 -13  312.88   34.00
  -4   1  13  273.27   38.62
  -4   1  13  278.94   39.16
   1   3  10 1739.03   78.57
  -4   1  10 1706.45   93.80
  -1  -3 -10 1728.07   80.40
  -1  -3 -10 1704.45   80.75
  -1  -3  -7  139.24   21.64
   1   3   7  130.53   22.24
  -4   1   7  141.41   25.75
  -1  -3  -7  146.88   24.57
  -4   1   4  215.78   32.07
  -1  -3  -4  189.90   22.16
  -1  -3  -4  216.52   30.83
  -1  -3  -1   27.34   11.82
  -1  -3  -1    7.90    4.60
  -4   1   1   19.91   10.52
  -1  -3   2  314.09   22.18
  -1  -3   2  367.42   41.25
  -4   1  -2  337.78   39.54
  -4   1  -5   69.53   17.34
   3  -4  -5   74.70   12.09
  -1  -3   5   78.18   19.89
  -4   1  -8  263.83   34.38
   3  -4  -8  235.64   23.73
  -1  -3   8  243.22   35.48
   3  -4 -11  107.79   17.82
  -4   1 -11  108.60   22.17
  -1  -3  11   77.11   21.83
   3  -4 -14  579.30   44.74
  -4   1 -14  596.44   50.75
  -1  -3  14  600.64   59.35
  -3   4  17 3827.78  142.29
  -4   1 -17 3503.03  120.16
  -1  -3  17 3881.37  151.58
   3  -4 -17 3779.78  119.88
  -4   1 -20  361.24   39.66
  -1  -3  20  210.71   39.05
  -3   4  20  327.43   46.72
   3  -4 -20  272.72   35.65
  -4   1 -23  346.97   37.60
  -3   4  23  418.55   49.79
   4  -1  23  369.27   44.36
  -1  -3  23  473.00   55.35
   3  -4 -23  408.20   43.75
  -1  -3  26  333.70   48.36
   3  -4 -26  321.47   40.94
  -4   1 -26  278.96   33.17
   4  -1  26  290.53   40.74
  -3   4  26  348.63   47.75
   1   3 -29  437.91   53.78
   4  -1  29  426.47   51.13
  -3   4  29  519.25   61.50
   3  -4 -29  528.45   56.68
  -4   1 -29  443.12   41.63
  -1  -3  29  519.90   60.93
  -3   4  29  501.19   59.11
  -3   4  32  779.67   77.46
   3  -4 -32  723.02   67.08
  -3   4  32  706.20   56.11
   1   3 -32  702.70   68.60
  -3   4  32  769.55   77.87
   4  -1  32  664.88   65.09
   3  -4 -32  794.70   80.77
  -1  -3  32  675.18   71.25
  -1  -3  35  630.96   70.20
   1   3 -35  654.16   67.66
   4  -1  35  543.84   61.11
  -3   4  35  635.33   72.64
   3  -4 -35  696.96   76.77
   3  -4 -35  634.39   65.35
  -3   4  35  648.36   54.44
  -3   4  35  700.30   75.68
   4  -1  38  102.80   27.80
   1   3 -38  145.23   33.88
  -3   4  38  142.84   36.23
   3  -4 -38  105.50   28.99
  -1  -3  38  173.48   37.96
   3  -4 -38  131.09   36.84
  -3   4  38  134.55   26.08
  -3   4  38  141.94   34.76
  -3   4  41  261.57   51.30
  -1  -3  41  231.53   44.23
   4  -1  41  187.59   39.88
   3  -4 -41  261.59   50.53
  -3   4  41  240.19   48.05
   3  -4 -41  251.05   44.69
   1   3 -41  284.75   46.58
  -3   4  41  232.66   33.05
   1   3 -44 1227.43   99.20
  -3   4  44 1406.95  120.16
   4  -1  44 1123.37   96.52
   3  -4 -44 1353.73  118.44
  -3   4  44 1205.81   75.44
  -4   1 -44 1088.64   65.13
  -1  -3  44 1202.90  103.54
   3  -4 -44 1213.48  101.95
   4  -1  47  514.74   67.25
   3  -4 -47  633.28   76.01
  -3   4  47  644.20   54.99
  -4   1 -47  563.53   47.17
   3  -4 -47  784.85   92.04
  -3   4  47  646.17   85.36
  -1  -3  47  619.61   75.86
   1   3 -47  668.08   73.91
   1   3 -50  533.51   67.29
  -3   4  50  539.13   80.03
  -1  -3  50  569.06   73.90
  -4   1 -50  504.65   45.29
   3  -4 -50  587.04   83.08
   4  -1  50  491.17   67.46
  -3   4  50  601.59   54.53
   3  -4 -53    5.36   17.35
  -3   4  53   29.73   13.36
   4  -1  53   28.97   13.96
   1   3 -53    3.69    9.94
  -1  -3  53   49.32   24.75
  -4   1 -53   15.42    7.71
  -3   4  53   18.31   12.50
  -3   4  56 1394.67   82.65
  -1  -3  56 1314.49  114.80
   1   3 -56 1230.49  106.62
   3  -4 -56 1304.62  127.85
   4  -1  56 1144.86  109.36
  -4   1 -56 1290.21   74.68
  -3   4  56 1316.79  132.16
   4  -1  59   22.33   19.82
  -3   4  59   19.17   17.27
   3  -4 -59  -27.44   25.32
   1   3 -59   -7.61   15.40
  -3   4  59   -6.98    8.06
  -4   1 -59   -5.31    8.84
  -1  -3  59   -9.90   17.41
  -3   4  62  239.06   34.89
  -1  -3  62  184.31   44.53
   3  -4 -62  136.43   43.39
  -4   1 -62  132.98   22.12
  -3   4  62  152.14   50.01
  -3   4  65  959.29  121.15
   3  -4 -65 1035.05  122.72
  -4   1 -65 1047.26   64.95
  -3   4  65 1096.84   73.24
  -4   1 -65  900.91   54.16
  -1  -3  65 1043.68  106.61
   3  -4 -68   53.03   32.84
  -1  -3  68   73.78   29.32
  -3   4  68   -4.16   13.22
  -4   1 -68   36.39   13.53
  -4   1 -68   27.90   10.14
  -3   4  68   31.75   16.21
  -4   1 -71   -2.59    6.00
  -4   1 -71    7.30    3.98
  -3   4  71   31.30   24.65
  -3   4  71    9.49    8.23
  -1  -3  71   15.87   13.56
   3  -4 -71   40.84   28.59
   3  -4 -74  -21.72   21.43
  -1  -3  74  -27.22   24.88
   1   3 -74  -17.20   24.03
  -3   4  74    7.31    8.39
  -3   4  74   14.86   25.31
  -4   1 -74    1.18    3.47
  -4   1 -74    7.08    5.22
  -3   4  77   26.05   10.46
   1   3 -77   -0.85   22.02
  -1  -3  77   17.92   22.55
   3  -4 -77   26.59   18.08
  -3   4  77   43.40   28.12
  -3   4  80    7.20   21.49
   1   3 -80  -15.88   20.48
  -1  -3  80  -16.62   21.13
   3  -4 -80   31.99   29.75
  -1  -3  83  209.94   51.24
  -3   4  83  208.98   65.54
   3  -4 -83  185.96   59.29
   1   3 -83  167.00   57.24
   3  -4 -86  -47.72   36.85
  -1  -3  86   15.49   21.52
  -3   4  86   -4.45   19.91
   1   3 -86   50.37   39.21
  -1  -3  89   13.81   21.88
   3  -4 -89   38.88   29.93
  -3   4  89   52.21   39.37
   1   3 -89   66.16   39.17
  -3   4  92  289.57   83.68
  -1  -3  92  245.86   55.90
   1   3 -92  339.52   88.36
   3  -4 -92  212.47   70.83
   1   3 -95   89.51   46.30
   3  -4 -95    0.45   26.02
  -3   4  95   21.81   28.07
   3  -4 -98  -23.63   35.01
   1   3 -98   -2.41   26.03
  -3   4  98   30.10   41.10
   1   3-101  -77.28   63.78
   3  -4-101    8.75   33.06
   0  -4-104  179.66   69.16
   0  -4-101   32.13   36.23
   4   0-101  -12.18   35.32
   4   0 -98  138.11   62.49
   0  -4 -98  127.34   54.88
   4   0 -95   -9.80   29.76
   0  -4 -95  -10.26   28.09
   0  -4 -92   77.43   42.41
   4   0 -92   27.66   31.32
  -4   0  92   16.34   20.60
  -4   0  89   51.87   32.93
   0  -4 -89  -37.83   43.07
   4   0 -89   19.88   29.87
  -4   0  89   31.17   27.12
   4   0 -86  -24.34   27.83
  -4   0  86   -1.38   24.87
   0  -4 -86  -10.77   34.84
  -4   0  86   26.33   23.28
  -4   0  83   62.13   33.03
  -4   0  83   37.38   25.05
   0  -4 -83   53.92   29.64
   4   0 -83   23.29   26.12
   4   0 -80   16.35   20.17
  -4   0  80    0.42   17.28
   0  -4 -80  -50.89   39.34
  -4   0  80   -6.46   13.36
  -4   0  77  120.07   41.02
   0  -4 -77   53.05   25.49
   4   0 -77  127.23   48.44
  -4   0  77   54.33   26.36
  -4   0  74   70.15   32.91
   4   0 -74   47.94   27.95
  -4   0  74   61.23   36.15
  -4   4 -74   67.45   24.03
   0  -4 -74  -10.37   21.11
  -4   4 -71  241.56   50.74
   4   0 -71  288.38   67.54
  -4   0  71  246.08   60.35
  -4   0  71  232.57   55.11
   0  -4 -71  191.37   50.33
  -4   4 -68   -0.67   13.29
   4   0 -68   16.50   14.67
  -4   0  68   10.19   14.07
   0  -4 -68   10.81   14.03
  -4   0  68   37.63   23.52
   0  -4 -65  631.84   92.27
  -4   0  65  705.89   88.94
   4   0 -65  662.24  100.55
  -4   0  65  742.17  102.08
  -4   4 -65  746.47   84.89
  -4   0  62  477.06   79.84
  -4   4 -62  457.30   65.56
   0   4  62  433.09   78.69
   0   4  62  503.21   88.52
   4   0 -62  444.59   79.66
   0  -4 -62  420.50   73.02
  -4   0  62  472.15   72.35
   0  -4 -59   30.45   19.61
  -4   0  59   50.37   34.42
   4   0 -59   -3.06   15.59
   0   4  59   11.67   18.33
   0   4  59   45.43   24.15
   4   0 -59   21.62   13.14
  -4   4 -59  -20.15   21.81
  -4   4 -59   17.37   12.97
  -4   0  59   -7.94   15.64
   0   4  56  123.33   38.73
   0   4  56  135.18   42.22
   4   0 -56   95.03   33.39
   0  -4 -56  104.74   28.63
  -4   4 -56   72.17   21.84
   4   0 -56   75.25   26.02
  -4   0  56  101.77   37.17
  -4   4 -56   89.29   27.37
  -4   0  56  109.47   34.48
   0   4  53   32.49   25.46
  -4   4 -53  -13.61   10.35
   0   4  53  -22.19   22.82
  -4   0  53    6.39   16.18
  -4   0  53   -1.06   10.62
   4   0 -53   -1.05   13.91
   0  -4 -53    5.47   12.20
   4   0 -53   -2.76   17.27
  -4   4 -53  -12.50   13.71
  -4   4 -50   -3.36   14.08
  -4   0  50   24.13   18.65
   0  -4 -50   -2.69   18.18
   4   0 -50   17.75   14.52
   0   4  50   23.92   21.48
  -4   0  50   12.60   15.07
  -4   4 -50   -6.21   14.88
   0   4  50   -3.30   23.03
   4   0 -50   -4.84   15.48
   0   4  47  116.42   35.99
   0  -4 -47   66.52   25.10
  -4   0  47  112.22   35.92
  -4   4 -47  122.91   31.77
   0   4  47  110.27   35.25
   4   0 -47  100.36   33.90
   4   0 -47  102.29   30.42
  -4   0  47  100.24   30.58
  -4   4 -47  130.04   28.95
  -4   4 -44  152.30   30.15
   0  -4 -44  128.76   40.21
   4   0 -44  148.75   39.02
   0   4  44  176.48   45.13
  -4   0  44  155.79   37.66
  -4   0  44  175.74   39.53
   4   0 -44  167.20   36.69
   0  -4 -44  178.94   42.37
  -4   4 -44  155.03   34.13
   0  -4 -44  138.17   33.86
   0   4  41   45.99   26.38
  -4   0  41   -5.00    9.40
   0  -4 -41   10.11   10.76
   0   4  41   15.86    5.18
  -4   4 -41  -10.13   16.03
   0  -4 -41  -31.22   22.02
  -4   0  41   12.98   17.48
   4   0 -41   29.46   17.79
   4   0 -41   12.65    9.48
   0  -4 -41   19.29   21.72
   0  -4 -38  589.31   76.87
  -4   4 -38  513.04   58.18
  -4   0  38  444.74   61.08
   0  -4 -38  522.64   60.71
   0   4  38  516.07   68.92
  -4   4 -38  456.60   46.83
   4   0 -38  476.92   66.00
  -4   0  38  471.71   59.32
   0   4  38  375.16   26.78
   4   0 -38  453.73   59.63
   0   4  35  884.23   44.76
  -4   0  35  970.33   87.90
   0   4  35 1013.47   93.95
   0  -4 -35 1026.22   96.36
  -4   4 -35  983.85   79.26
   4   0 -35  961.19   90.84
   0  -4 -35  933.83   78.26
  -4   4 -35  983.03   65.09
   4   0 -35  961.49   83.78
   4   0 -32   12.15   13.82
   0  -4 -32   -0.01    9.94
   0   4  32   17.83   14.85
  -4   4 -32   19.16    9.86
  -4   4 -32   22.11   13.90
   0   4  32   12.39    6.20
   0  -4 -32   28.17   16.52
  -4   0  32    9.60   10.30
   4   0 -32   20.06   13.92
   4   0 -29 2092.50  119.69
   0  -4 -29 2295.65  133.67
  -4   0  29 2133.30  125.19
  -4   0  29 2130.28  130.89
  -4   4 -29 2236.92   86.50
   0   4  29 2051.71   75.18
   4   0 -29 2158.01  127.68
   0   4  29 2466.49  135.76
   0  -4 -29 2188.61  109.43
  -4   4 -29 2232.51  115.30
  -4   0  26  156.51   36.37
  -4   4 -26   21.10    8.87
   0   4  26   86.77   27.98
   0   4  26   65.02   15.43
  -4   0  26   64.65   28.34
   0  -4 -26  102.77   28.53
  -4   4 -26   20.62   14.49
   0  -4 -26   35.88   16.11
   4   0 -26   50.48   22.51
   4   0 -26   39.62   21.08
  -4   4 -23 4227.59  101.63
   0  -4 -23 4218.71  166.93
  -4   0  23 4027.93  166.63
  -4   4 -23 4210.65  153.52
   0   4  23 3981.38  113.69
   4   0 -23 4072.00  159.93
  -4   0  23 4227.65  169.03
   0   4  23 4354.26  165.44
   0  -4 -23 4103.67  133.74
   0  -4 -20   44.70   12.03
   0   4  20   48.63   20.42
   0  -4 -20   52.89   20.98
  -4   0  20   17.53    9.63
   0   4  20   59.19   15.39
   4   0 -20   10.15   11.90
  -4   0  20   46.91   18.62
   0  -4 -20   37.14   14.55
  -4   0  17 1228.98   84.86
   0  -4 -17 1212.88   81.50
   0   4  17 1232.72   67.15
   0  -4 -17 1235.14   67.09
   0   4  17 1212.76   79.37
  -4   0  17 1303.27   90.56
   0   4  14  838.71   62.33
   0   4  14  797.58   45.95
   0  -4 -14  853.69   57.54
  -4   0  14  780.97   64.57
   0   4  14  844.55   57.91
  -4   0  14  845.50   71.53
   0  -4 -14  877.59   67.18
  -4   0  11  171.09   31.69
   0   4  11  196.62   28.19
   0  -4 -11  203.83   28.11
   0   4  11  180.68   27.25
   0   4  11  186.29   19.35
  -4   0  11  180.99   30.45
   0   4   8  162.01   25.75
   0  -4  -8  124.72   23.54
  -4   0   8  148.44   29.48
   0   4   8  127.78   23.16
   0   4   8  128.04   15.03
  -4   0   8  123.48   25.07
  -4   0   5    2.43    5.63
   0   4   5    0.15    4.20
   0  -4  -5   -3.21    4.78
   0  -4  -2  116.44   23.58
   0   4   2   94.46   16.11
  -4   0   2  104.74   23.57
  -4   0  -1  115.39   25.47
   0   4  -1   66.90   12.14
   0  -4   1   91.97   22.82
  -4   0  -4  537.78   51.31
   0   4  -4  436.23   26.28
   0  -4   4  476.30   49.31
  -4   0  -7   60.17   19.77
   0  -4   7   60.19   19.80
   0  -4  10  960.91   73.55
  -4   0 -10  972.15   66.42
   4   0  10  942.14   66.81
   4   0  13 1433.39   80.37
  -4   0 -13 1356.27   77.12
   0  -4  13 1519.45   94.43
  -4   0 -16 1000.55   65.61
   0  -4  16  824.87   72.58
   4   0  16 1036.54   68.25
   0  -4  19   59.12   20.09
  -4   0 -19   51.36   15.61
  -4   4  19  111.72   31.51
   0  -4  22  187.13   35.20
  -4   4  22  230.03   40.98
   4  -4 -22  220.23   33.15
   0   4 -22  108.36   13.65
  -4   0 -22  208.44   28.78
   0  -4  25 1239.45   92.34
  -4   0 -25 1108.37   65.35
   4  -4 -25 1313.49   82.68
   0   4 -25  951.92   45.13
  -4   4  25 1249.48   94.32
  -4   4  25 1316.11   83.98
   4   0  25 1048.94   85.21
  -4   4  28    0.05   12.33
   4   0  28   34.67   22.86
   0   4 -28    2.09    5.18
  -4   4  28    6.42   10.14
   4  -4 -28    4.24    7.43
   0  -4  28    8.50    9.81
  -4   0 -28    6.51    6.77
   0   4 -31   11.36    7.53
   0   4 -31   19.29   14.81
   0  -4  31   30.03   14.98
  -4   4  31    6.36    9.89
  -4   4  31   20.40   14.03
   4  -4 -31   22.54   14.80
  -4   0 -31   22.14    7.60
   4   0  31   19.02   13.84
   4   0  34   18.93   14.13
   0   4 -34   10.74    5.93
   0   4 -34   19.16   13.32
  -4   0 -34   29.16   10.27
  -4   4  34   21.12   13.69
   0  -4  34    7.90    8.62
  -4   4  34   -3.43   16.26
   4  -4 -34   22.50    8.29
   4  -4 -37  134.20   33.19
   0   4 -37  106.99   22.03
   0   4 -37  139.15   33.76
   4   0  37   75.19   25.73
  -4   4  37  153.02   30.55
  -4   4  37  157.72   40.35
   4  -4 -37  148.78   42.02
   0  -4  37  117.09   31.90
  -4   4  37   88.08   27.27
  -4   0 -37   90.54   17.69
   4  -4 -40  412.15   56.83
   0   4 -40  418.32   44.90
  -4   0 -40  413.26   36.44
  -4   4  40  440.84   65.89
  -4   4  40  509.13   54.67
   4  -4 -40  531.03   73.69
   0  -4  40  459.32   62.33
   4   0  40  422.11   60.11
   0   4 -40  499.73   62.76
  -4   4  40  382.36   60.32
   0   4 -43   24.71   16.04
   0   4 -43   31.43   21.14
  -4   4  43   41.19   19.11
  -4   4  43   -4.63   12.42
   4   0  43  -24.33   20.42
  -4   4  43   24.15   14.59
   4  -4 -43   17.44   16.28
   0  -4  43   37.84   18.31
  -4   0 -43    5.06    6.26
   4  -4 -43    7.88    8.97
  -4   4  46  229.67   50.94
   0  -4  46  367.27   58.78
   4  -4 -46  398.18   68.65
   0   4 -46  303.79   49.71
  -4   4  46  349.07   47.33
   4   0  46  222.30   45.89
  -4   0 -46  257.23   27.76
   4  -4 -46  350.57   56.02
   0   4 -46  256.77   38.70
   0   4 -49   51.26   20.34
  -4   0 -49   51.20   12.46
   0   4 -49   59.27   24.19
   4  -4 -49   94.39   37.32
  -4   0 -49   64.07   13.66
  -4   4  49   40.21   20.24
   4   0  49   74.52   30.11
  -4   4  49   65.84   21.03
   0  -4  49   65.13   24.21
  -4   4  52 2367.00  122.15
   4  -4 -52 2379.00  172.44
  -4   4  52 1961.62  155.29
   4   0  52 1965.90  144.26
  -4   0 -52 1638.57   68.23
   0  -4  52 2200.36  144.27
   0   4 -52 1888.70  115.34
  -4   0 -52 1671.65   65.51
   0   4 -52 2106.35  140.52
  -4   0 -55   14.42    7.82
  -4   4  55   40.63   29.32
  -4   4  55    3.16    9.50
   0   4 -55   24.25   18.19
   0   4 -55   27.62   18.60
   4   0  55   17.37   13.38
   0  -4  55   41.41   22.96
   4  -4 -55  -12.99   19.03
  -4   0 -55    1.48    4.07
  -4   4  58  353.78   49.40
   0  -4  58  330.24   57.76
  -4   4  58  308.31   67.14
   4  -4 -58  432.91   78.56
  -4   0 -58  222.27   20.28
   4   0  58  276.37   58.41
   0   4 -58  294.78   49.41
  -4   0 -58  198.56   20.88
  -4   4  61  288.40   65.90
   4  -4 -61  347.06   71.91
   0  -4  61  299.43   55.09
  -4   4  61  366.38   49.98
   4   0  61  246.43   54.63
   0   4 -61  268.28   49.83
  -4   4  64  354.30   74.63
   0  -4  64  361.53   63.25
   4   0  64  306.86   64.92
  -4   4  64  387.60   52.14
   0   4 -64  318.04   55.67
   4  -4 -64  333.96   72.29
  -4   4  67    1.08   14.79
   4  -4 -67  -22.11   17.00
   0   4 -67   32.94   23.16
   0  -4  67  -41.27   25.21
  -4   4  67   -3.34   11.02
   4   0  67   26.20   24.06
   0  -4  70  134.14   38.03
   4  -4 -70  233.05   64.96
  -4   4  70  205.40   38.31
  -4   4  70  126.21   41.82
   4  -4 -73   99.16   42.52
  -4   4  73  101.40   27.09
   0  -4  73   94.42   33.26
  -4   4  73  107.71   47.65
   4  -4 -76   24.67   23.33
  -4   4  76   -3.66   14.38
   0  -4  76  -15.56   18.32
  -4   4  76    4.21    6.98
  -4   4  79  104.89   50.98
   0  -4  79  127.56   40.80
   4  -4 -79   97.46   45.54
  -4   4  79  165.42   33.79
  -4   4  82   19.30   28.26
   4  -4 -82  -11.42   27.99
   0  -4  82   -1.84   12.40
  -4   4  85   13.76   22.92
   0  -4  85   69.09   32.40
   4  -4 -85   52.47   35.86
  -4   4  88  150.68   57.70
   4  -4 -88   82.82   44.68
   0  -4  88  100.03   35.88
  -4   4  91  108.15   55.31
   0   4 -91  143.26   55.38
   4  -4 -91  110.33   58.47
   0  -4  91  117.51   41.05
  -4   4  94  -42.50   37.19
   0   4 -94  -16.38   35.44
   4  -4 -94  -13.32   20.78
   4  -4 -97  -28.12   20.99
   0   4 -97  -48.06   40.95
  -4   4  97   11.84   22.34
  -4   4 100  201.46   72.98
   0   4-100  199.74   72.82
   4  -4-100  263.71   81.05
  -4   4 103    3.58   37.45
  -5   4 102 -103.79   58.77
  -4  -1-102  -48.59   61.48
   5  -4 -99  103.90   59.10
  -4  -1 -99    8.45   40.96
  -5   4  99   45.52   48.05
   5  -4 -96  349.74   95.16
  -5   4  96  334.22   93.49
  -5   4  93   29.26   32.39
   5  -4 -93   38.06   27.86
   1  -5  93   49.56   23.13
   5  -4 -90   44.91   38.61
   1  -5  90   15.20   23.91
  -5   4  90   -1.38   23.66
   5  -4 -87  222.32   74.31
  -5   4  87  143.47   54.37
   1  -5  87  128.90   40.46
   1  -5  84   57.31   28.29
  -5   4  84  -11.28   29.71
   5  -4 -81   64.69   45.84
  -5   4  81   17.26   13.52
   1  -5  81   61.65   27.85
  -5   4  81   -9.49   22.02
  -5   4  78  -13.28   13.92
   1  -5  78   28.45   24.09
  -5   4  78    8.13   15.91
   5  -4 -78   38.41   37.13
   4   1  75  180.77   57.76
   1  -5  75  156.21   44.29
  -5   4  75  135.16   52.87
   5  -4 -75  262.22   70.18
  -5   4  75  188.26   43.28
   5  -4 -72   76.38   42.72
  -5   4  72   47.41   20.21
   4   1  72  103.02   43.55
   1  -5  72   64.27   30.56
   1  -5  69   86.51   32.76
   4   1  69  105.39   42.67
  -5   4  69  108.55   46.23
  -5   4  69   91.91   32.23
   5  -4 -69  163.28   56.59
  -5   4  66  326.86   72.91
   4   1  66  245.06   60.89
   5  -4 -66  306.36   73.18
   1  -5  66  302.84   57.26
  -1   5 -66  252.76   50.98
  -5   4  66  260.61   48.72
  -1   5 -63    3.11   10.69
  -5   4  63   14.22   13.08
  -5   4  63   14.46   27.77
   1  -5  63   34.40   21.11
   5  -4 -63   53.53   36.55
   4   1  63  -17.57   24.72
  -5   4  60  526.83   67.41
  -1   5 -60  391.36   58.57
   5  -4 -60  518.70   90.62
   1  -5  60  448.54   68.51
  -5   4  60  447.50   80.97
   4   1  60  471.59   79.15
   5  -4 -57   46.14   38.87
   4   1  57  -20.18   22.39
  -5   4  57   12.65    9.02
  -1   5 -57   15.81   14.51
   1  -5  57   12.70   14.73
  -5   4  57   26.90   28.88
  -5   4  54  460.09   78.04
   1  -5  54  444.83   67.53
   5  -4 -54  554.56   89.47
   4   1  54  448.98   76.36
  -5   4  54  468.03   61.18
  -1   5 -54  442.57   59.23
  -1   5 -51  164.30   33.63
  -4  -1 -51  121.89   14.37
   4   1  51  171.01   45.32
   1  -5  51  208.96   46.25
  -5   4  51  249.97   44.31
   5  -4 -51  240.95   56.12
  -4  -1 -51   91.35   12.52
  -5   4  51  150.29   45.92
   5  -4 -48 1890.27  156.42
  -1   5 -48 1529.91   98.75
  -5   4  48 1719.47  139.63
  -1   5 -48 1815.72  133.76
   4   1  48 1537.20  129.35
  -4  -1 -48 1303.87   55.48
  -5   4  48 1894.67  120.83
   1  -5  48 1779.83  130.35
  -1   5 -45  110.64   34.99
  -1   5 -45  126.19   27.62
  -4  -1 -45  126.46   19.43
   1  -5  45  152.47   37.45
  -5   4  45  145.44   43.14
  -5   4  45  114.79   28.80
   5  -4 -45  190.13   50.58
   4   1  45   93.91   29.83
  -1   5 -42   -6.62    8.53
  -5   4  42  -22.24   18.42
   1  -5  42   -6.19   12.81
  -4  -1 -42    8.06    4.49
   4   1  42   -8.89   18.06
  -1   5 -42    7.86   10.00
  -4  -1 -39   25.69   11.56
  -1   5 -39   25.65   13.28
  -5   4  39   24.30   14.59
   4   1  39   29.90   20.54
   1  -5  39   23.30   18.30
  -1   5 -39   25.29   10.86
  -4  -1 -39   13.95   16.53
  -5   4  39  -17.09   19.09
  -5   4  36  290.98   51.28
   1  -5  36  306.56   49.87
  -1   5 -36  269.28   48.52
  -5   4  36  331.10   48.21
  -4  -1 -36  251.48   29.72
   4   1  36  250.57   47.14
  -1   5 -36  219.39   31.01
   1  -5  33   87.86   26.31
  -5   4  33   20.45    9.64
  -1   5 -33   47.48   13.71
  -1   5 -33   45.43   19.83
   4   1  33   55.69   24.12
  -5   4  33   57.92   21.75
  -4  -1 -33   42.95   12.44
  -1   5 -30   52.03   13.35
   4   1  30   49.46   22.44
  -5   4  30   88.72   26.81
  -4  -1 -30   84.32   18.89
  -5   4  30   78.21   28.96
  -1   5 -30   52.61   18.46
   1  -5  30   57.42   21.87
  -5   4  27  175.01   39.83
  -4  -1 -27  153.07   25.10
  -5   4  27  136.80   30.24
   1  -5  27  126.88   32.47
  -5   4  24  325.25   47.58
   1  -5  24  214.16   40.80
  -5   4  24  277.67   49.70
  -4  -1 -24  370.81   41.18
  -4  -1 -21 1794.64   90.17
   1  -5  21 1859.96  114.57
  -5   4  21 1990.02  113.72
  -5   4  21 1987.77  125.02
   4   1  21 1689.85   87.96
  -5   4  18 1543.98  106.74
  -4  -1 -18 1385.17   81.02
  -5   4  18 1499.54   97.89
   4   1  18 1423.48   83.07
   1  -5  18 1480.13  100.85
  -4  -1 -15   90.95   22.07
  -5   4  15   59.25   21.31
   4   1  15   59.56   21.45
   1  -5  15   65.20   23.83
  -4  -1 -12  561.20   53.91
   4   1  12  555.57   53.87
   1  -5  12  588.85   61.33
  -4  -1  -9 1040.99   74.36
   4   1   9 1041.40   73.29
   1  -5   9  977.71   77.22
  -4  -1  -6  603.97   58.18
   1  -5   6  635.74   61.84
   4   1   6  635.22   58.88
   1  -5   3    0.13    8.54
  -4  -1  -3   38.28   18.35
   1  -5   0  970.61   73.46
  -4  -1   0  969.13   76.06
  -1   5   3  850.35   54.13
  -4  -1   3  857.12   73.06
   1  -5  -3  860.05   69.03
  -4  -1   3  832.78   56.13
  -4  -1   6   23.56   12.08
   1  -5  -6   37.12   16.05
  -1   5   6   29.30   12.34
  -4  -1   6   24.49   13.96
  -1   5   6   22.42   13.03
   1  -5  -9  235.94   34.01
  -1   5   9  227.72   31.84
  -4  -1   9  243.54   40.72
  -4  -1   9  236.91   32.92
  -1   5   9  263.01   37.22
   1  -5 -12   92.96   23.26
  -1   5  12   74.34   19.87
  -4  -1  12   57.29   18.18
  -1   5  12   47.05   13.07
  -4  -1  12   42.64   19.37
  -1   5  12   78.21   21.01
  -1   5  12   44.43   16.11
  -1   5  15  481.64   50.59
  -1   5  15  440.39   45.90
  -1   5  15  385.09   36.57
  -4  -1  15  446.67   49.70
   5  -4  15  424.55   29.32
  -4  -1  15  474.78   58.13
  -1   5  15  430.00   47.89
  -1   5  18  149.57   29.02
  -1   5  18  123.26   25.47
  -1   5  18  148.72   34.43
   5  -4  18  100.38   16.04
  -4  -1  18  118.18   30.92
  -1   5  18  103.54   26.57
  -4  -1  18  122.48   28.57
   4   1 -21 1398.16   88.86
  -1   5  21 1598.06  101.97
  -1   5  21 1467.84   80.52
  -4  -1  21 1380.25   94.19
   5  -4  21 1387.12   61.20
  -4  -1  21 1494.69  106.37
  -1   5  21 1513.66   81.22
  -1   5  21 1493.09   95.38
  -4  -1  24  112.85   27.27
  -4  -1  24  184.58   38.52
   5  -4  24  123.85   19.53
  -1   5  24  237.34   43.37
  -1   5  24  155.54   27.95
  -1   5  24  191.36   28.74
   4   1 -24  178.67   34.44
  -1   5  24  160.70   31.94
  -4  -1  27 1950.90  127.37
  -1   5  27 2220.00  129.55
   4   1 -27 1826.74  112.15
  -1   5  27 1940.36   87.99
   5  -4  27 1884.51   81.51
  -1   5  27 2012.54  104.33
  -1   5  27 1960.84  116.89
  -1   5  30  358.56   37.14
  -4  -1  30  412.77   61.05
  -1   5  30  341.69   52.99
   4   1 -30  385.03   54.45
  -1   5  30  314.93   47.69
   1  -5 -30  345.58   46.59
   5  -4  30  346.01   36.92
   4   1 -30  336.21   50.57
   4   1 -33  142.25   34.62
  -1   5  33  238.45   43.81
  -1   5  33  196.71   27.69
  -1   5  33  262.08   49.81
   1  -5 -33  286.85   46.56
  -5   4 -33  187.92   35.58
  -4  -1  33  168.84   39.26
   4   1 -33  185.76   39.78
   1  -5 -36  297.83   49.11
  -4  -1  36  260.88   48.43
  -5   4 -36  235.06   40.55
   4   1 -36  211.07   41.75
  -4  -1  36  214.13   38.37
   4   1 -36  214.80   43.15
  -1   5  36  292.11   49.79
  -1   5  36  311.20   54.16
  -1   5  36  240.01   28.51
  -1   5  39  675.09   82.50
  -4  -1  39  691.80   81.53
   1  -5 -39  583.12   69.54
   1  -5 -39  615.54   74.22
  -5   4 -39  630.04   65.91
   4   1 -39  598.87   71.62
  -1   5  39  605.42   43.55
  -1   5  39  609.26   74.84
  -4  -1  39  599.76   66.04
   4   1 -39  650.35   78.23
  -4  -1  42  141.33   33.74
  -1   5  42  196.77   44.69
   1  -5 -42  119.01   36.01
  -4  -1  42  153.42   40.79
  -5   4 -42  172.83   33.00
   4   1 -42  162.72   38.48
  -5   4 -42  126.48   30.88
  -1   5  42  151.15   21.64
   1  -5 -42  160.05   37.76
   4   1 -42  115.60   33.74
  -1   5  42  122.88   37.44
  -5   4 -45   12.57   12.69
  -5   4 -45   -3.91   10.28
  -1   5  45   12.79   11.90
   1  -5 -45    2.98   15.83
  -4  -1  45   -7.88   15.54
   4   1 -45   -7.84   15.96
  -1   5  45    8.36    6.02
   4   1 -45   -3.21   12.29
  -1   5  45    5.85   13.01
  -4  -1  45  -18.07   13.19
  -4  -1  48  279.24   54.08
  -5   4 -48  295.77   44.70
  -1   5  48  344.54   64.66
  -1   5  48  204.16   21.88
   4   1 -48  255.17   54.86
   4   1 -48  194.43   44.63
   1  -5 -48  282.22   52.31
  -5   4 -48  265.93   45.34
  -1   5  48  318.83   58.79
  -4  -1  48  248.12   47.75
  -1   5  48  200.65   22.21
  -1   5  51  170.96   47.33
   4   1 -51  115.81   35.72
  -1   5  51   73.48   11.68
  -5   4 -51  119.15   31.67
  -1   5  51   66.58   10.67
  -1   5  51  139.06   40.40
  -4  -1  51  153.91   42.54
  -5   4 -51  135.54   32.90
   1  -5 -51  128.13   36.20
  -4  -1  51  158.88   40.52
  -1   5  54  228.44   55.08
  -4  -1  54  234.41   51.22
  -4  -1  54  200.43   47.34
   4   1 -54  223.12   52.15
  -5   4 -54  273.40   49.85
  -5   4 -54  248.24   45.30
   1  -5 -54  240.07   52.52
  -1   5  54  296.30   60.96
  -1   5  57  129.56   44.66
  -4  -1  57   31.14   22.48
  -5   4 -57   89.42   27.41
   4   1 -57   67.92   31.65
  -4  -1  57   87.73   31.74
   1  -5 -57   64.47   27.06
  -5   4 -57   61.74   25.20
  -1   5  57   75.50   34.26
  -4  -1  60   70.49   34.99
  -5   4 -60   65.85   24.62
   4   1 -60   45.22   20.49
  -5   4 -60    4.68   15.25
  -1   5  60   29.95   22.74
   1  -5 -60   51.86   25.05
  -4  -1  60   85.63   34.78
  -4  -1  63   41.41   25.97
   1  -5 -63   11.85   19.82
   4   1 -63   44.90   33.70
  -1   5  63   36.71   25.10
  -4  -1  63  111.22   42.31
  -5   4 -63  -32.84   26.25
  -1   5  66  528.87   94.15
   1  -5 -66  304.32   63.30
  -4  -1  66  421.49   72.41
  -4  -1  66  302.22   64.35
   4   1 -66  306.74   68.06
  -5   4 -66  368.00   63.09
  -5   4 -69  392.11   64.32
  -1   5  69  341.25   78.47
  -4  -1  69  346.92   70.26
  -4  -1  69  385.51   72.23
   1  -5 -69  333.10   68.68
   4   1 -69  349.16   75.26
  -5   4 -72  -53.28   27.37
  -4  -1  72   19.05   15.23
  -4  -1  72  -15.34   23.71
  -1   5  72  -24.25   25.53
   4   1 -72  -60.90   34.00
   1  -5 -72  -36.64   35.50
  -4  -1  75  310.58   74.15
  -1   5  75  211.14   63.38
  -4  -1  75  198.80   54.96
   4   1 -75   90.90   39.32
   1  -5 -75  193.77   55.16
  -1   5  78   36.06   35.75
  -4  -1  78   19.25   15.92
  -4  -1  78  -10.01   19.07
   4   1 -78  -37.95   31.86
   1  -5 -78   30.12   26.67
  -4  -1  81  -24.77   33.03
  -4  -1  81   12.83   17.63
   4   1 -81  -23.97   37.65
   1  -5 -81  -28.04   31.39
  -4  -1  84  -33.72   25.38
   1  -5 -84  -34.34   34.57
  -4  -1  84    5.62   21.92
   4   1 -84  -25.71   32.51
  -4  -1  87  109.93   40.68
  -4  -1  87   99.77   45.45
   4   1 -87   15.37   20.13
   1  -5 -87   94.53   46.15
  -4  -1  90   85.56   34.99
   1  -5 -90   59.49   33.83
   4   1 -90  -24.06   32.90
   1  -5 -93  -40.77   39.83
   4   1 -93   30.22   35.75
  -4  -1  93   29.07   24.76
   4   1 -96  251.76   78.54
   1  -5 -96  256.19   73.47
   4   1 -99   78.99   48.00
   1  -5 -99    6.98   32.11
   1  -5-102   26.25   30.12
  -3  -2-103  -19.01   48.13
  -5   3 103   64.89   44.92
  -5   3 100  222.30   79.91
  -3  -2-100  125.88   64.24
   5  -3-100  288.67   86.61
  -3  -2 -97  -10.92   33.89
   5  -3 -97   93.81   56.03
  -5   3  97   58.53   46.50
  -3  -2 -94   12.66   31.30
  -5   3  94  -43.93   43.42
   5  -3 -94  -19.09   32.73
  -5   3  91   59.65   39.63
  -3  -2 -91    5.09   27.05
   5  -3 -91   80.58   39.17
  -5   3  88  107.24   55.75
  -3  -2 -88   61.60   41.43
   5  -3 -88  151.99   57.85
   5  -3 -85   62.80   42.93
  -5   3  85   60.37   25.38
  -3  -2 -85   63.33   49.54
  -5   3  85   89.15   46.33
   5  -3 -82   76.40   39.49
  -5   3  82   47.35   34.98
  -5   3  82    8.72   12.26
  -5   3  79   52.42   35.75
  -5   3  79  146.50   37.87
   5  -3 -79  129.82   52.77
  -5   3  76   20.10   14.05
   2  -5  76   53.23   26.85
   5  -3 -76   58.71   35.39
  -5   3  76   -2.17   14.33
   2  -5  73  213.28   49.07
  -5   3  73  188.72   59.76
   3   2  73  197.78   59.91
   5  -3 -73  178.82   57.33
  -5   3  73  203.73   46.97
  -5   3  70  190.12   42.32
   3   2  70  180.79   54.06
  -5   3  70  150.38   50.81
   2  -5  70  197.31   45.37
   5  -3 -70  238.80   63.50
  -5   3  67   24.43   23.16
   3   2  67   29.08   21.47
   5  -3 -67    8.62   21.39
  -5   3  67   -3.72   11.05
   2  -5  67   -5.54   12.61
  -2   5 -64  624.04   83.05
  -5   3  64  687.80  102.71
   3   2  64  720.08  102.42
  -5   3  64  578.47   73.40
   2  -5  64  716.71   85.08
   5  -3 -64  636.24  102.04
   3   2  61   35.12   27.16
  -2   5 -61   68.22   28.49
   5  -3 -61   70.33   42.20
  -5   3  61   94.75   33.96
  -5   3  61   89.01   41.20
   2  -5  61   17.07   12.44
  -2   5 -58  444.52   65.79
   5  -3 -58  584.40   91.89
  -5   3  58  565.23   71.01
  -5   3  58  464.55   80.64
   3   2  58  486.66   81.18
  -2   5 -58  448.74   59.06
   2  -5  58  450.85   66.16
   5  -3 -55  343.77   70.65
   2  -5  55  316.66   54.46
  -5   3  55  294.82   62.72
   3   2  55  298.43   62.18
  -5   3  55  306.83   53.02
  -2   5 -55  296.23   52.61
  -2   5 -52  879.48   86.30
  -5   3  52  860.63  103.42
  -5   3  52 1007.97   93.42
   3   2  52  924.96  104.88
   5  -3 -52 1033.89  118.17
   2  -5  52  963.59   93.15
  -2   5 -52 1135.91  106.03
   5  -3 -49  164.55   48.68
   2  -5  49  119.28   31.78
   3   2  49  103.72   34.97
  -2   5 -49  121.53   31.08
  -5   3  49  104.67   36.23
  -5   3  49  110.10   28.63
  -2   5 -49  185.09   41.75
   3   2  46   40.64   19.61
   2  -5  46   38.79   19.87
  -2   5 -46   54.56   22.29
   5  -3 -46  102.30   37.51
  -5   3  46   26.18   18.26
  -2   5 -46   42.06   18.43
  -5   3  46   63.21   22.00
  -2   5 -43  278.66   50.71
  -5   3  43  237.04   44.58
  -2   5 -43  174.16   37.38
   2  -5  43  232.98   43.07
  -3  -2 -43  214.84   54.47
   3   2  43  188.43   44.42
  -2   5 -40  738.88   69.05
  -3  -2 -40  815.94   97.26
  -2   5 -40  902.59   87.81
   3   2  40  789.15   87.83
  -5   3  40  911.29  101.09
  -5   3  40  987.24   87.43
  -3  -2 -40  623.95   35.88
   2  -5  40  857.54   82.24
  -5   3  37   45.27   18.94
  -3  -2 -37   62.77   25.76
  -3  -2 -37   76.28   13.95
  -5   3  37   47.73   23.59
  -2   5 -37   83.27   25.49
   2  -5  37   75.04   24.84
   2  -5  34  217.56   40.91
  -5   3  34  218.53   39.60
  -3  -2 -34  243.78   49.50
  -2   5 -34  296.01   49.59
  -5   3  34  203.54   43.89
  -3  -2 -34  250.76   26.38
  -3  -2 -31  231.08   47.33
  -5   3  31  251.48   42.65
  -2   5 -31  282.16   47.73
  -3  -2 -31  226.10   25.99
   3   2  31  186.73   23.59
  -5   3  31  243.73   47.77
   2  -5  31  320.58   48.78
  -5   3  28  879.33   89.15
  -3  -2 -28  916.04   55.64
  -3  -2 -28  949.98   92.39
  -5   3  28 1009.37   82.42
  -2   5 -28 1020.66   88.70
   2  -5  28 1019.71   84.73
   3   2  28  856.08   53.72
   2  -5  25 1649.41  105.39
  -3  -2 -25 1496.20   73.59
   3   2  25 1467.26   72.30
  -5   3  25 1724.67  106.62
  -5   3  25 1478.17  109.43
  -3  -2 -25 1632.27  116.52
  -3  -2 -22 1685.60   80.65
  -5   3  22 1711.61  106.90
   2  -5  22 1799.44  109.19
   3   2  22 1576.39   76.55
  -5   3  22 1641.47  113.38
  -5   3  19  344.60   47.86
  -3  -2 -19  307.59   35.86
   2  -5  19  323.24   46.04
   3   2  19  259.67   32.04
  -5   3  19  331.43   50.23
  -5   3  16  492.46   58.70
  -5   3  16  440.63   59.02
   2  -5  16  501.76   57.61
  -3  -2 -16  600.84   52.77
   3   2  16  588.58   51.58
  -3  -2 -13  725.55   58.10
  -5   3  13  715.94   67.08
   2  -5  13  834.16   71.05
   3   2  13  683.57   54.71
   3   2  10 1068.76   69.74
  -5   3  10 1116.41   81.60
   2  -5  10 1174.97   83.34
  -3  -2 -10 1091.89   72.68
  -3  -2  -7  400.90   45.42
   2  -5   7  373.25   45.61
  -5   3   7  348.38   45.40
   3   2   7  379.30   42.65
   3   2   4   95.55   23.31
   2  -5   4  106.24   25.29
  -3  -2  -4  122.89   27.06
  -5   3   4  100.09   25.23
  -3  -2  -1  809.36   67.29
  -5   3   1  821.82   69.68
  -3  -2  -1  638.73   35.25
  -3  -2   2   29.07   14.48
  -3  -2   2   -5.03    7.23
  -3  -2   5   40.05   17.49
  -2   5   5   30.10   10.58
  -3  -2   5   37.30    9.75
  -2   5   8  241.60   34.91
  -3  -2   8  164.40   22.31
  -3  -2   8  188.55   34.95
  -2   5   8  231.54   28.80
  -3  -2  11  330.19   46.01
  -2   5  11  359.83   37.80
  -2   5  11  362.33   42.93
  -3  -2  14  365.74   49.87
  -2   5  14  369.55   41.43
  -2   5  14  360.32   44.16
   3   2 -14  290.07   33.35
  -2   5  14  309.37   37.01
  -3  -2  17 3162.81  148.56
  -2   5  17 3094.13  132.85
   3   2 -17 3217.78  117.47
  -2   5  17 3273.56  123.14
  -2   5  17 2921.34  116.19
  -2   5  17 3213.68  123.90
  -3  -2  20  172.69   37.53
  -2   5  20  194.67   33.35
  -2   5  20  211.24   40.99
  -2   5  20  182.96   33.60
  -2   5  20  153.24   30.94
   5  -3  20  207.40   30.31
   3   2 -20  160.83   29.56
  -2   5  23 1804.18  110.64
  -3  -2  23 1667.58  111.96
   3   2 -23 1574.49   93.79
  -2   5  23 1746.62   97.90
  -2   5  23 1719.11   98.22
  -2   5  23 1738.64   86.93
   2  -5 -23 1790.14  102.15
   5  -3  23 1638.24   81.72
  -2   5  26  419.79   50.56
  -3  -2  26  372.43   55.80
  -2   5  26  467.65   60.44
   5  -3  26  447.67   45.04
  -2   5  26  433.89   43.11
  -2   5  26  432.99   50.89
   3   2 -26  346.86   46.42
   2  -5 -26  414.71   51.37
  -2   5  29  433.36   52.71
  -2   5  29  450.18   60.97
  -3  -2  29  266.30   34.65
   3   2 -29  309.84   45.85
   2  -5 -29  322.60   46.27
   5  -3  29  304.55   38.48
  -3  -2  29  350.99   53.07
  -2   5  29  315.82   35.91
  -2   5  29  355.27   48.85
  -3  -2  32 1100.04   74.34
   3   2 -32 1120.65   93.11
   3   2 -32 1083.25   88.89
  -2   5  32 1208.93   70.30
  -2   5  32 1195.44   92.22
  -2   5  32 1376.77  108.79
  -2   5  32 1452.90  100.60
  -3  -2  32 1164.14   99.73
   5  -3  32 1100.43   76.28
   2  -5 -32 1291.45   96.68
  -3  -2  35 1464.19   90.21
  -2   5  35 1730.60  125.22
  -2   5  35 1615.34  110.58
   3   2 -35 1447.31  106.40
  -2   5  35 1757.64  114.73
   5  -3  35 1403.67   89.45
  -3  -2  35 1443.50  112.30
  -2   5  35 1579.11   78.64
   2  -5 -35 1537.71  109.38
   3   2 -35 1470.86  107.59
   2  -5 -35 1698.32  116.88
  -2   5  38  117.65   20.74
   5  -3  38  101.96   25.82
  -3  -2  38   88.60   24.87
  -2   5  38  111.29   34.24
  -2   5  38   80.87   24.51
  -3  -2  38   92.39   28.35
   3   2 -38  106.68   29.07
   2  -5 -38  120.92   32.04
   3   2 -38  142.68   35.02
   2  -5 -38  124.25   34.94
   2  -5 -41   26.85   13.81
   3   2 -41   38.18   18.20
   2  -5 -41   23.40   16.43
  -3  -2  41   35.95   16.05
  -2   5  41   45.56   24.95
  -5   3 -41   31.15   15.43
  -2   5  41   25.32    9.72
  -2   5  41   36.90   20.11
   5  -3  41   16.06   12.98
   3   2 -41   29.29   15.34
  -3  -2  41   32.99   15.50
  -2   5  44   77.89   16.91
  -2   5  44  129.56   36.20
  -2   5  44  119.21   21.31
   2  -5 -44  172.55   43.06
  -3  -2  44  117.70   33.32
   2  -5 -44   81.09   29.03
  -3  -2  44  107.05   29.10
   3   2 -44  111.81   34.62
   5  -3  44  134.94   30.88
   3   2 -44  130.99   34.61
  -2   5  44  119.10   34.49
  -5   3 -44   89.66   23.51
   3   2 -47  553.15   70.97
  -2   5  47  568.87   45.65
  -2   5  47  627.15   45.57
   3   2 -47  534.19   73.72
  -5   3 -47  543.42   60.07
  -2   5  47  557.46   79.52
   2  -5 -47  701.43   84.88
   5  -3  47  619.18   68.59
  -3  -2  47  556.10   66.34
  -3  -2  47  521.48   73.04
  -3  -2  50  414.24   65.33
   2  -5 -50  447.60   69.62
  -2   5  50  364.78   35.08
  -2   5  50  397.84   35.28
  -5   3 -50  387.78   51.21
  -2   5  50  531.58   80.25
  -3  -2  50  397.49   57.82
   3   2 -50  413.84   62.30
   3   2 -50  399.71   67.93
  -2   5  53  222.44   52.58
  -5   3 -53  152.80   31.89
  -2   5  53  164.44   21.94
   3   2 -53  118.78   38.86
   2  -5 -53  208.39   50.53
  -3  -2  53  153.99   38.19
  -3  -2  53  204.33   49.02
  -2   5  53  110.06   18.35
  -5   3 -56  411.69   56.32
  -3  -2  56  274.88   56.37
  -2   5  56  278.62   27.35
  -2   5  56  284.19   28.65
  -3  -2  56  335.20   57.22
   2  -5 -56  401.58   69.15
  -5   3 -56  325.08   55.12
   3   2 -56  376.90   68.19
  -2   5  56  355.14   68.84
  -5   3 -59  -35.61   21.97
  -3  -2  59  -16.68   16.39
  -3  -2  59  -17.47   17.54
  -2   5  59   35.35   23.14
  -2   5  59    6.46    4.38
   2  -5 -59  -14.48   21.90
  -2   5  59    5.63    3.44
   3   2 -59    6.55   19.53
  -3  -2  62  173.41   44.90
  -2   5  62  139.64   17.80
  -3  -2  62  269.51   56.27
   3   2 -62  181.89   51.37
  -2   5  62  112.47   14.98
  -2   5  62  182.74   51.75
   2  -5 -62  261.93   59.26
  -5   3 -62  219.56   42.59
  -3  -2  65  634.22   88.02
  -5   3 -65  794.84   83.71
  -2   5  65  624.11   99.26
   3   2 -65  684.74  101.90
   2  -5 -65  716.17  100.76
  -3  -2  65  760.27   98.83
  -2   5  68   -4.51   15.67
  -3  -2  68  -27.94   25.16
  -5   3 -68    2.31   12.59
   2  -5 -68   -2.45   21.85
  -3  -2  68   -7.28   20.96
   3   2 -68   28.50   26.14
  -5   3 -71   16.63   12.16
  -3  -2  71   83.41   37.48
   3   2 -71   85.68   37.40
  -3  -2  71   65.35   32.23
   2  -5 -71   83.16   39.53
  -2   5  71   22.02   23.15
  -3  -2  74   63.87   28.94
   2  -5 -74   54.67   38.38
   3   2 -74   91.94   39.16
  -2   5  74   84.20   50.84
  -3  -2  77   55.46   32.70
  -2   5  77   70.70   37.62
   2  -5 -77   57.83   30.41
   3   2 -77   68.55   37.40
   3   2 -80   23.82   20.99
  -2   5  80  -14.17   28.17
   2  -5 -80   -5.73   21.62
   2  -5 -83  175.99   62.12
  -2   5  83  140.11   54.37
   3   2 -83  120.06   51.06
  -3  -2  83  112.87   44.21
  -3  -2  86   38.13   32.73
  -2   5  86   14.52   25.58
   3   2 -86   39.89   25.68
   2  -5 -86   16.82   17.27
   2  -5 -89   12.91   19.99
   3   2 -89   -3.44   24.39
  -3  -2  89   13.81   13.78
  -2   5  89  -31.48   35.28
   3   2 -92  218.19   72.85
  -3  -2  92  293.12   66.07
   2  -5 -92  178.81   62.15
   2  -5 -95    8.12   21.93
   3   2 -95  -19.48   29.84
   3   2 -98    7.60   34.02
   2  -5 -98   62.26   36.91
   3   2-101   97.01   53.30
   2  -5-101   22.45   39.49
  -5   2 101   69.00   51.07
  -2  -3-101   12.54   30.02
  -5   2  98   73.64   48.11
  -2  -3 -98    4.72   21.10
   5  -2 -98  107.24   58.09
  -5   2  95   65.71   43.27
   5  -2 -95   25.09   27.21
  -2  -3 -95   -9.10   37.04
  -5   2  92   61.99   41.57
  -2  -3 -92   77.69   43.77
   5  -2 -92  137.77   61.94
  -5   2  89   70.81   37.84
  -2  -3 -89  111.22   56.16
   5  -2 -89  204.51   65.63
   5  -2 -86   68.30   43.30
  -2  -3 -86   -5.57   19.07
  -5   2  86   98.81   37.98
  -5   2  86   75.22   45.30
   5  -2 -83   80.81   38.53
  -2  -3 -83   30.54   22.60
  -5   2  83   86.78   34.94
  -5   2  83   52.90   39.78
  -5   2  80   -4.20   17.82
  -5   2  80   16.82   26.40
  -2  -3 -80  -36.33   32.16
   5  -2 -80  -19.94   27.64
  -5   2  77   17.79   10.98
  -2  -3 -77    5.40   24.48
   5  -2 -77   22.58   26.23
  -5   2  77   36.35   20.72
   5  -2 -74   14.72   26.75
  -5   2  74  -35.40   27.26
  -5   2  74  -10.40   11.07
  -2  -3 -74  -41.44   37.32
   5  -2 -71   96.41   41.80
  -5   2  71  130.38   49.97
  -5   2  71  111.67   37.09
   2   3  71   93.11   40.16
  -2  -3 -71   91.52   41.74
   5  -2 -68  140.86   47.88
  -2  -3 -68  135.51   44.71
   2   3  68  125.86   42.81
  -5   2  68  183.19   43.02
  -5   2  68  135.01   46.97
  -2  -3 -65  290.22   63.30
   2   3  65  275.18   63.18
  -5   2  65  335.02   70.42
  -5   2  65  394.31   67.35
   5  -2 -65  365.12   77.94
  -5   2  62  306.91   69.51
   5  -2 -62  371.08   61.94
   2   3  62  333.29   70.06
  -5   2  62  348.14   59.97
   5  -2 -62  371.30   76.55
  -2  -3 -62  355.24   70.15
  -3   5 -59   -4.64   14.10
  -3   5 -59   42.87   27.65
  -5   2  59   19.07   13.69
   5  -2 -59    5.25   11.66
  -2  -3 -59   -5.70   21.68
   2   3  59    6.22   11.65
  -3   5 -59   32.53   15.36
   5  -2 -59   31.28   20.75
  -5   2  59  -10.97   19.18
  -5   2  56  360.73   57.97
   5  -2 -56  405.24   61.49
  -3   5 -56  320.12   47.66
  -5   2  56  381.85   69.12
   5  -2 -56  407.57   75.07
   2   3  56  325.14   64.18
  -3   5 -56  358.41   63.92
  -3   5 -56  362.14   61.57
  -3   5 -53   -8.23   19.49
  -5   2  53   51.02   25.68
   2   3  53   19.31   18.21
   5  -2 -53   25.33   16.83
  -3   5 -53   34.84   16.78
  -3   5 -53   10.17   16.32
  -5   2  53   14.72   13.44
   5  -2 -53   32.31   21.15
   2   3  50  308.12   60.05
   5  -2 -50  425.64   62.07
  -3   5 -50  346.11   58.91
  -5   2  50  297.15   53.01
  -5   2  50  257.14   54.70
   5  -2 -50  357.61   68.66
  -3   5 -50  421.56   63.71
  -3   5 -50  354.59   46.55
  -5   2  47  220.09   44.36
  -5   2  47  168.01   42.22
   2   3  47  151.97   41.35
   5  -2 -47  227.86   45.01
  -3   5 -47  206.55   35.00
  -3   5 -47  222.57   45.38
   5  -2 -47  243.71   55.20
  -5   2  44  263.37   51.61
  -3   5 -44  315.57   52.54
  -3   5 -44  340.14   43.02
   2   3  44  303.52   55.95
   5  -2 -44  431.02   72.31
   5  -2 -44  331.33   52.49
  -5   2  44  336.22   54.02
  -5   2  41   38.09   19.97
  -2  -3 -41    7.36   17.21
   5  -2 -41   10.51   15.62
  -3   5 -41    3.99    6.45
  -5   2  41   -2.88   17.99
  -3   5 -41   -9.41   14.81
  -5   2  38  362.50   63.87
  -2  -3 -38  346.34   59.52
  -3   5 -38  367.29   54.65
  -2  -3 -38  227.01   19.48
   5  -2 -38  465.99   60.67
  -5   2  38  358.23   53.44
  -3   5 -38  350.96   38.90
   2   3  38  201.47   17.51
  -2  -3 -35  307.59   57.59
   5  -2 -35  276.49   46.94
   2   3  35  239.16   23.24
  -2  -3 -35  197.87   21.23
  -3   5 -35  325.73   51.59
  -5   2  35  279.80   47.99
  -5   2  35  242.91   51.06
  -2  -3 -32 1608.42  120.20
   5  -2 -32 1875.39  118.92
   2   3  32 1461.15   60.64
  -2  -3 -32 1556.94   64.68
  -3   5 -32 1836.97  116.83
  -5   2  32 1647.13  111.02
  -5   2  32 1463.60  117.57
   5  -2 -29 1044.99   87.94
  -2  -3 -29  964.63   89.20
   2   3  29  911.64   50.72
  -5   2  29  939.35   91.78
  -5   2  29 1102.50   90.60
  -2  -3 -29 1001.74   55.88
  -3   5 -29 1041.22   86.38
  -2  -3 -26  502.36   41.55
   5  -2 -26  505.51   60.58
   2   3  26  427.60   36.42
  -2  -3 -26  470.68   59.24
  -5   2  26  461.13   62.51
  -5   2  26  513.41   60.81
  -3   5 -26  499.44   59.17
  -2  -3 -23 1524.73  102.40
  -2  -3 -23 1650.08   77.32
   2   3  23 1518.74   71.57
  -5   2  23 1650.34  106.58
   5  -2 -23 1797.11  111.14
  -5   2  23 1470.75  106.90
  -2  -3 -20  211.88   42.10
   2   3  20  191.54   28.17
  -5   2  20  198.72   40.03
  -2  -3 -20  220.71   32.12
  -5   2  20  128.63   31.71
  -2  -3 -17 1015.77   77.24
   2   3  17 1057.03   65.09
  -5   2  17 1026.33   81.57
  -5   2  17 1014.38   85.73
  -2  -3 -17 1035.21   65.88
  -5   2  14 2179.24  116.25
  -2  -3 -14 2106.73  104.46
  -5   2  14 2044.33  116.27
  -2  -3 -14 2231.63   98.39
   2   3  14 2176.35   94.98
  -2  -3 -11   68.30   19.62
  -5   2  11   36.89   16.20
   2   3  11   71.10   19.91
  -2  -3 -11   90.80   22.50
  -2  -3  -8   31.15   11.72
  -2  -3  -8   31.49   14.18
   2   3   8   36.74   14.91
  -5   2   8   54.76   17.66
  -5   2   5   82.01   22.99
  -2  -3  -5   61.73   15.98
  -2  -3  -5   69.18   20.21
   2   3   5   68.92   18.89
  -2  -3  -2  110.20   19.27
  -5   2   2  116.99   27.70
  -3   5  -2  127.68   14.97
  -2  -3  -2  118.31   25.36
  -2  -3   1  838.43   68.97
  -3   5   1  896.08   41.26
  -5   2  -1  805.15   68.77
  -5   2  -4  414.82   48.97
  -2  -3   4  407.15   49.74
  -3   5   4  465.64   32.26
  -5   2  -7  191.84   33.21
  -3   5   7  203.99   23.18
   2   3  -7  156.78   17.05
  -2  -3   7  176.22   33.68
  -3   5  10  593.74   42.75
   2   3 -10  569.13   38.07
  -5   2 -10  551.88   55.14
  -2  -3  10  600.03   62.10
  -2  -3  13 1986.44  115.07
   2   3 -13 2157.30   82.59
   3  -5 -13 2164.64   90.71
  -5   2 -13 1878.80   99.73
  -3   5  13 2272.69   89.00
  -3   5  16  551.86   47.79
  -2  -3  16  435.37   56.85
   3  -5 -16  558.46   50.51
   2   3 -16  447.41   41.58
  -3   5  16  526.51   55.95
  -5   2 -16  522.02   53.83
  -3   5  19  650.99   53.31
   2   3 -19  603.49   50.86
  -2  -3  19  409.54   25.57
  -3   5  19  598.35   58.59
   3  -5 -19  663.22   55.37
  -2  -3  19  650.97   68.89
  -5   2 -19  585.57   56.14
  -3   5  22  567.17   60.28
  -2  -3  22  532.10   64.42
   3  -5 -22  550.22   54.37
   2   3 -22  434.96   46.73
  -3   5  22  526.41   51.88
  -2  -3  25 1453.04  106.81
   5  -2  25 1390.69   87.65
  -3   5  25 1497.68   98.96
   2   3 -25 1279.04   84.08
  -2  -3  25 1137.41   53.09
   3  -5 -25 1370.74   87.99
   3  -5 -28  869.22   73.03
  -2  -3  28  703.66   45.43
   2   3 -28  677.09   65.25
   5  -2  28  782.18   67.58
  -2  -3  28  896.02   85.87
  -3   5  28  851.29   76.13
  -3   5  28  902.29   83.58
   5  -2  31  618.75   61.87
   2   3 -31  672.82   71.19
  -3   5  31  628.64   67.73
  -2  -3  31  549.59   43.45
  -3   5  31  732.83   77.27
   2   3 -31  579.84   61.82
   3  -5 -31  625.38   64.95
  -2  -3  31  677.52   76.20
   3  -5 -34   23.68   12.63
   2   3 -34   39.15   18.39
  -3   5  34   17.25   11.76
   5  -2  34   10.79    9.24
  -2  -3  34   30.49   12.94
  -3   5  34   17.78   10.95
   2   3 -34    2.15   15.85
  -2  -3  37   48.56   14.58
   2   3 -37   14.92    8.65
  -2  -3  37   70.86   29.60
   5  -2  37   29.63   15.88
   3  -5 -37   27.89   15.83
  -3   5  37   36.86   18.95
  -3   5  37   35.28   19.66
   2   3 -37   66.62   24.33
   3  -5 -37   43.84   26.11
  -2  -3  40  121.88   36.13
   3  -5 -40  103.19   31.79
  -3   5  40   61.69   17.71
  -3   5  40   83.37   31.82
  -2  -3  40   55.85   20.26
   2   3 -40   72.37   27.45
   5  -2  40   75.71   26.23
   3  -5 -40  125.33   39.49
  -3   5  40  110.12   33.98
   2   3 -40   61.58   23.94
  -2  -3  43 1046.07   77.65
   3  -5 -43 1238.41  112.71
  -3   5  43 1344.55  119.15
   2   3 -43 1179.23  100.34
   2   3 -43 1111.72  100.33
  -2  -3  43 1125.20  105.22
   3  -5 -43 1184.31  102.26
  -3   5  43 1150.85   75.62
  -3   5  43 1221.20  109.17
   5  -2  43 1065.23   91.94
   2   3 -46  302.38   52.31
  -3   5  46  328.67   61.24
   3  -5 -46  314.38   60.96
  -3   5  46  269.70   37.65
  -5   2 -46  275.86   38.88
   3  -5 -46  258.23   50.27
   2   3 -46  244.46   48.32
   5  -2  46  277.28   48.51
  -2  -3  46  252.78   40.74
  -2  -3  46  285.97   54.36
  -3   5  49    3.93   14.82
  -3   5  49   17.60   11.21
  -2  -3  49  -17.33   21.45
   3  -5 -49   33.64   25.04
  -5   2 -49   -4.03   11.25
   5  -2  49    5.38   11.99
   2   3 -49   -8.63   17.37
   2   3 -52  891.43  100.35
  -3   5  52 1043.92  114.46
  -2  -3  52 1011.30  105.63
   5  -2  52  930.83   93.95
  -5   2 -52  957.38   74.36
  -3   5  52 1024.42   69.94
   3  -5 -52 1123.86  117.36
   3  -5 -55  218.54   51.79
  -5   2 -55  168.55   32.08
   2   3 -55  151.04   42.94
  -2  -3  55  184.49   44.23
   5  -2  55  196.08   45.64
  -3   5  55  195.04   52.86
  -3   5  55  176.63   28.69
  -5   2 -58  122.69   26.66
  -3   5  58  165.77   28.38
   5  -2  58  147.30   39.60
  -3   5  58  103.57   37.21
   3  -5 -58  138.57   44.25
  -2  -3  58  148.80   44.50
   2   3 -58  163.79   47.45
  -3   5  61  525.74   48.40
  -3   5  61  551.58   91.04
  -2  -3  61  493.35   78.19
   3  -5 -61  554.19   88.46
   2   3 -61  449.87   77.72
  -5   2 -61  531.70   58.52
  -5   2 -64  138.84   32.35
  -3   5  64  139.39   24.71
   3  -5 -64  150.38   54.05
  -2  -3  64  110.96   36.01
   2   3 -64   58.81   28.69
  -3   5  64  131.86   47.63
  -3   5  67  -31.95   24.67
  -2  -3  67  -15.57   27.64
   3  -5 -67   10.77   14.99
  -5   2 -67  -23.77   19.50
  -3   5  67   11.59    9.31
   2   3 -67  -57.33   35.78
   3  -5 -70   39.89   35.38
  -5   2 -70   -6.89   12.35
  -3   5  70   44.44   26.66
  -3   5  70   12.92    7.57
  -2  -3  70   53.95   25.98
   2   3 -70   43.06   28.21
   3  -5 -73  346.81   77.31
   2   3 -73  311.90   73.20
  -3   5  73  298.56   70.20
  -3   5  73  186.82   23.80
  -2  -3  73  370.88   70.59
  -2  -3  76  -21.88   26.21
   2   3 -76   13.41   17.21
   3  -5 -76   16.49   22.57
  -3   5  76   54.53   33.30
   3  -5 -79  183.51   57.92
  -3   5  79  224.05   67.46
  -2  -3  79  229.16   57.57
   2   3 -79  187.26   60.84
   3  -5 -82   62.30   35.17
  -3   5  82   13.22   22.78
  -2  -3  82   63.88   33.50
   2   3 -82   39.33   29.84
  -2  -3  85    1.25   15.70
  -3   5  85   45.05   29.17
   3  -5 -85   51.27   35.20
   2   3 -85   -6.40   23.07
  -3   5  88  130.93   57.49
  -2  -3  88  121.83   44.00
   3  -5 -88  193.71   61.37
   2   3 -88  117.20   47.85
   3  -5 -91   74.40   43.17
  -3   5  91   46.02   33.88
   2   3 -91  108.28   52.60
  -2  -3  91  100.42   39.20
  -2  -3  94  -23.22   27.39
   3  -5 -94  -42.64   31.13
   2   3 -94   13.62   22.31
  -3   5  94  -13.56   33.35
  -3   5  97   93.93   60.18
   2   3 -97   -5.77   20.61
   3  -5 -97   48.81   44.91
   2   3-100  246.90   81.73
   3  -5-100  250.37   83.33
   3  -5-103  106.07   59.05
  -5   1 102   67.97   49.44
  -1  -4-102   19.72   33.71
  -1  -4 -99   39.76   21.93
   5  -1 -99    0.05   25.66
  -5   1  96  183.67   68.19
   5  -1 -96  108.64   52.37
  -1  -4 -96  131.93   52.59
   5  -1 -93   89.41   47.85
  -1  -4 -93   79.78   38.43
  -5   1  93   97.09   49.19
  -5   1  90   27.19   24.98
   5  -1 -90   -2.65   19.90
  -1  -4 -90   -7.40   39.19
  -5   1  90  -20.61   32.63
   5  -1 -87  -38.86   27.15
  -5   1  87   32.80   23.07
  -1  -4 -87  -24.19   31.46
  -5   1  87   18.28   25.31
  -5   1  84   10.87   18.30
  -5   1  84  -24.80   30.49
   5  -1 -84  -22.11   23.51
  -1  -4 -84   -5.20   32.97
   5  -1 -81  -40.47   38.15
  -1  -4 -81  -48.39   37.61
  -5   1  81   -8.85   21.79
  -5   1  78   48.25   27.75
  -5   1  78   25.95   28.37
  -1  -4 -78  -11.94   30.79
   5  -1 -78   33.43   33.69
  -5   1  75  316.84   74.61
  -5   1  75  270.43   59.72
  -1  -4 -75  260.87   64.94
   5  -1 -75  230.67   71.36
   5  -1 -72  -34.27   29.08
  -5   1  72   34.66   23.67
  -1  -4 -72   25.81   17.27
  -5   1  72  -38.33   30.63
  -5   1  69  573.70   83.20
   1   4  69  658.12  101.29
  -1  -4 -69  453.25   80.58
   5  -1 -69  632.41  103.78
  -5   1  69  524.68   90.34
  -5   1  66  152.78   46.32
  -5   1  66  217.60   52.32
  -1  -4 -66  177.15   50.56
   1   4  66  254.74   62.56
   5  -1 -66  162.00   51.89
  -5   1  63   74.10   31.43
  -1  -4 -63  102.62   34.22
  -5   1  63  190.24   56.00
   5  -1 -63   99.29   36.71
   1   4  63   91.10   42.43
  -1  -4 -60  291.78   56.40
   5  -1 -60  262.54   60.26
  -5   1  60  276.56   61.23
  -5   1  60  262.69   53.49
   1   4  60  254.62   60.06
  -4   5 -60  253.50   45.76
  -4   5 -60  332.62   59.50
   5  -1 -57   47.78   33.21
  -4   5 -57  -13.50   20.77
  -5   1  57    5.63   12.96
  -5   1  57   40.54   25.17
  -4   5 -57   13.01   11.78
   1   4  57    2.82   15.60
  -1  -4 -57    9.30   13.55
  -1  -4 -54  285.35   53.81
  -5   1  54  384.79   67.94
  -4   5 -54  461.68   67.37
  -5   1  54  408.39   67.82
   1   4  54  364.76   67.07
  -4   5 -54  370.20   52.04
   5  -1 -54  379.14   70.66
  -4   5 -51   16.44   12.58
  -5   1  51   23.04   18.66
  -4   5 -51    4.50   10.99
   5  -1 -51   15.88   15.94
   1   4  51    5.43   12.22
  -5   1  51   21.57   20.94
  -1  -4 -51   22.48   14.95
   5  -1 -51   25.37   20.14
  -4   5 -48  214.35   36.28
   1   4  48  247.71   52.28
  -4   5 -48  233.85   44.65
  -5   1  48  268.31   54.05
   5  -1 -48  306.75   54.15
  -5   1  48  269.64   50.18
  -1  -4 -48  220.94   45.52
   5  -1 -48  238.60   56.26
  -5   1  45   93.86   33.69
   5  -1 -45   77.81   32.40
  -4   5 -45   44.12   18.34
  -1  -4 -45   50.08   16.26
  -5   1  45   86.01   30.64
   5  -1 -45   82.80   28.42
   1   4  45   67.19   29.34
  -4   5 -45   67.71   19.00
  -4   5 -42  302.85   51.46
  -5   1  42  349.13   57.26
  -1  -4 -42  324.08   61.93
   5  -1 -42  369.01   64.17
  -4   5 -42  309.90   39.40
  -1  -4 -42  289.65   46.80
   5  -1 -42  325.18   53.07
   5  -1 -39  115.09   35.15
  -4   5 -39  120.90   32.32
  -1  -4 -39  130.39   39.40
  -4   5 -39  103.76   23.07
  -1  -4 -39  124.27   29.46
   1   4  39   72.67   11.69
  -5   1  39   61.28   25.29
  -5   1  39  128.04   35.08
   5  -1 -39  120.40   37.55
  -4   5 -36  379.85   39.32
   5  -1 -36  418.00   59.82
   5  -1 -36  440.73   67.53
   1   4  36  333.53   27.93
  -1  -4 -36  370.73   48.60
  -4   5 -36  406.54   56.95
  -5   1  36  409.92   60.16
  -1  -4 -36  395.86   61.43
  -5   1  36  344.06   59.40
  -1  -4 -33 1033.97   76.41
   5  -1 -33 1140.03  102.45
   1   4  33 1043.03   53.19
  -5   1  33 1109.37   96.81
  -1  -4 -33 1057.35   96.49
  -4   5 -33 1143.13   64.47
  -4   5 -33 1228.24   95.42
   5  -1 -33 1065.59   93.17
  -5   1  33 1009.90   99.25
  -4   5 -30   37.90   12.11
  -1  -4 -30   33.57   10.62
  -5   1  30   93.25   28.79
   1   4  30   39.64   11.83
  -1  -4 -30   25.90   13.08
  -1  -4 -30   33.02   20.21
   5  -1 -30   56.87   24.33
  -4   5 -30   22.05   12.55
  -5   1  30   26.48   15.30
   5  -1 -30   38.91   21.92
  -1  -4 -27 1842.43   80.29
  -1  -4 -27 1840.29  118.43
  -4   5 -27 1866.72  113.88
  -5   1  27 1709.94  120.55
   1   4  27 1724.92   77.28
  -5   1  27 1827.80  117.75
   5  -1 -27 1891.78  120.72
  -4   5 -27 1863.49   69.95
  -1  -4 -27 1703.84   88.18
  -1  -4 -24   88.84   19.16
  -4   5 -24   96.47   25.47
  -5   1  24   88.97   27.94
  -1  -4 -24   87.64   18.25
   1   4  24  106.92   19.90
  -1  -4 -24  131.25   31.73
  -4   5 -24   98.73   14.53
  -5   1  24  139.16   33.82
  -5   1  21  618.62   69.07
  -4   5 -21  604.85   62.68
  -1  -4 -21  610.76   63.05
   1   4  21  618.32   49.37
  -1  -4 -21  660.49   51.88
  -4   5 -21  522.30   29.47
  -5   1  21  630.84   67.78
  -1  -4 -21  563.09   42.14
   1   4  18 1235.30   71.54
  -5   1  18 1236.49   93.10
  -1  -4 -18 1195.26   84.18
  -1  -4 -18 1183.47   71.60
  -5   1  18 1158.34   90.01
  -1  -4 -18 1178.86   55.62
   1   4  15  226.21   31.60
  -5   1  15  251.60   40.91
  -1  -4 -15  219.87   31.47
  -5   1  15  254.51   42.83
  -1  -4 -15  242.92   36.60
  -1  -4 -12  223.84   32.54
  -1  -4 -12  251.16   35.48
  -5   1  12  249.08   41.84
   1   4  12  253.29   34.09
  -5   1  12  260.79   40.69
  -1  -4  -9   16.02    9.27
  -1  -4  -9   50.93   16.50
   1   4   9   43.67   15.81
  -5   1   9   32.25   15.69
  -1  -4  -6  202.50   33.12
  -5   1   6  196.74   35.92
  -1  -4  -6  211.40   27.99
   1   4   6  208.12   32.32
  -5   1   3  944.65   76.52
  -1  -4  -3  972.95   54.89
   1   4   3  944.12   72.26
  -1  -4  -3 1036.94   77.12
  -1  -4   0 1605.05   63.43
  -5   1   0 1570.04   96.39
  -1  -4   0 1612.03   98.21
  -1  -4   3   38.72   18.29
  -5   1  -3   50.30   20.85
   4  -5  -3    6.17    5.05
   4  -5  -6 1044.07   48.51
  -1  -4   6 1068.70   83.00
  -5   1  -6 1027.81   75.63
  -1  -4   9  344.36   48.41
   4  -5  -9  294.22   28.58
  -5   1  -9  287.20   40.94
   4  -5 -12 1191.36   62.79
  -5   1 -12 1007.43   74.55
  -1  -4  12 1016.20   84.77
  -5   1 -15   44.80   18.77
   4  -5 -15   62.21   17.08
  -1  -4  15   60.05   22.46
  -5   1 -18  267.39   38.08
  -1  -4  18  299.16   46.59
   4  -5 -18  309.51   36.89
  -4   5  18  257.55   41.75
   4  -5 -21 2620.49  112.11
  -4   5  21 2622.33  133.45
  -1  -4  21 2578.87  142.10
  -5   1 -21 2433.73  114.04
  -1  -4  24  149.47   36.53
   4  -5 -24  205.08   35.29
  -5   1 -24  318.23   41.09
  -4   5  24  329.00   52.81
   5  -1  27  121.72   28.65
   4  -5 -27  138.87   29.70
  -5   1 -27  125.46   24.90
  -4   5  27  171.56   35.89
  -1  -4  27  137.82   34.59
  -5   1 -30   18.76   11.87
   4  -5 -30   10.23    9.22
  -1  -4  30    6.67   11.74
  -4   5  30    7.71   10.37
   5  -1  30   12.61   14.42
   5  -1  33   12.57   13.75
  -5   1 -33   16.73    9.86
  -4   5  33   17.98    9.08
   1   4 -33   15.34   13.30
   4  -5 -33    1.89    7.90
  -1  -4  33   44.28   21.79
  -4   5  33   16.79   14.02
  -5   1 -36   34.43   15.00
   5  -1  36    8.17   10.80
   1   4 -36   39.26   17.39
  -4   5  36   23.47   16.47
   4  -5 -36    6.35   13.59
  -4   5  36   -0.12   16.06
  -4   5  36   22.67   13.95
  -1  -4  36   31.90   20.48
  -4   5  39  258.72   49.61
  -4   5  39  247.11   47.90
   1   4 -39  218.91   44.00
   5  -1  39  244.55   45.56
  -1  -4  39  259.00   50.09
  -5   1 -39  259.37   35.25
  -4   5  39  270.77   40.10
   4  -5 -39  275.24   47.04
  -5   1 -42   60.50   17.63
  -4   5  42   22.00   13.59
   1   4 -42   54.68   19.81
  -4   5  42   49.92   21.17
   5  -1  42   33.70   15.10
   4  -5 -42   29.46   16.32
  -4   5  42   53.72   18.61
  -1  -4  42   29.40   17.05
  -5   1 -45  191.18   30.21
   4  -5 -45  301.24   60.40
   1   4 -45  211.49   45.11
  -4   5  45  192.65   45.07
  -4   5  45  192.83   35.76
   4  -5 -45  169.99   38.20
  -1  -4  45  201.02   48.32
   5  -1  45  126.10   35.61
  -5   1 -48 1678.15   88.40
  -4   5  48 1947.09  108.81
   5  -1  48 1675.03  128.37
  -4   5  48 1821.76  146.37
   4  -5 -48 2023.85  157.01
  -1  -4  48 1842.25  140.60
  -5   1 -51  150.13   26.40
   4  -5 -51  253.19   60.40
  -4   5  51  190.20   33.72
   5  -1  51  151.65   41.54
  -4   5  51  205.91   50.08
  -1  -4  51  147.49   40.96
  -5   1 -51  135.30   24.56
   5  -1  54  420.97   68.35
   4  -5 -54  522.01   83.77
  -4   5  54  391.55   71.54
  -5   1 -54  449.30   45.95
  -1  -4  54  401.37   67.36
  -5   1 -54  385.82   41.30
  -4   5  54  460.49   53.75
   5  -1  57  166.02   42.40
  -4   5  57  179.71   48.55
  -4   5  57  239.03   38.95
  -5   1 -57  212.48   31.12
   4  -5 -57  300.89   66.78
  -5   1 -57  226.88   31.38
  -1  -4  57  298.37   59.47
  -4   5  60  312.55   68.81
  -5   1 -60  267.86   36.67
  -4   5  60  296.02   43.69
   5  -1  60  282.19   58.41
  -5   1 -60  277.71   34.25
  -1  -4  60  299.90   61.28
   4  -5 -60  337.40   70.99
  -4   5  63    4.12   13.47
  -5   1 -63   -4.60    9.59
   5  -1  63   18.81   19.22
  -5   1 -63   -6.63    7.83
  -1  -4  63  -21.31   23.62
  -4   5  63   -9.15    8.71
   4  -5 -63   33.28   30.64
   5  -1  66   42.28   25.01
  -5   1 -66   31.30   11.40
   4  -5 -66   35.87   27.60
  -5   1 -66   36.84   12.70
  -4   5  66   27.95   17.48
  -1  -4  66   75.07   29.34
  -4   5  66   39.39   18.41
  -5   1 -69  313.40   31.80
  -4   5  69  470.27   52.90
  -5   1 -69  333.10   36.82
  -4   5  69  438.42   86.08
   4  -5 -69  540.13   95.21
  -1  -4  69  400.78   75.27
   4  -5 -72   17.10   23.12
  -4   5  72   32.53   24.88
  -1  -4  72   19.87   23.41
  -5   1 -72   21.31    8.64
  -4   5  72   21.52    8.01
   4  -5 -75  187.70   58.67
  -4   5  75  153.13   53.58
  -4   5  75  141.47   28.28
   1   4 -75  104.66   43.37
  -1  -4  75  168.15   48.98
   1   4 -78   -1.83   25.04
  -1  -4  78  -39.25   26.69
  -4   5  78   29.89   25.57
   4  -5 -78   29.78   32.77
  -4   5  81  -43.56   33.89
   1   4 -81    2.06   27.83
  -1  -4  81  -15.96   17.61
   4  -5 -81   47.82   33.82
   4  -5 -84   -0.94   18.92
   1   4 -84   13.51   20.12
  -1  -4  84   13.72   18.74
  -4   5  84   27.50   21.12
  -4   5  87  328.14   86.12
  -1  -4  87  221.21   57.33
   1   4 -87  293.99   79.91
   4  -5 -87  320.43   82.61
  -1  -4  90   10.74   17.07
  -4   5  90  -24.49   37.23
   4  -5 -90   -6.91   32.09
   1   4 -90  -53.60   41.56
  -4   5  93  -25.47   29.10
   1   4 -93   38.94   35.00
   4  -5 -93   40.72   40.39
  -1  -4  93   38.27   28.59
   1   4 -96  370.37   96.63
  -4   5  96  422.40  106.16
   4  -5 -96  370.28   93.71
   4  -5 -99   86.76   59.28
   1   4 -99  -24.97   37.44
  -4   5  99  -11.24   36.51
   0  -5-100  128.39   50.19
   5   0 -97   -2.23   22.25
  -5   0  97   12.72   27.85
   0  -5 -97   -1.36   26.65
   5   0 -94   -3.31   20.70
  -5   0  94   -6.13   26.38
   0  -5 -94  -13.43   35.75
   5   0 -91   13.24   35.84
  -5   0  91   77.89   43.48
  -5   0  91   22.23   17.69
   0  -5 -91   21.87   24.31
   5   0 -88    0.61   21.22
  -5   0  88   -0.56   21.82
   0  -5 -88  -22.58   28.65
  -5   0  88   69.84   48.86
  -5   0  85  -40.88   40.03
   0  -5 -85   17.45   27.37
  -5   0  85    1.49   18.11
   5   0 -85   24.82   17.41
  -5   0  82    7.36   13.80
   5   0 -82   16.12   21.82
   0  -5 -82  -26.42   33.11
  -5   0  82  -16.86   28.11
   5   0 -79  312.61   76.61
  -5   0  79  238.76   65.56
  -5   0  79  165.26   51.79
   0  -5 -79  309.76   73.16
  -5   0  76   24.38   20.00
  -5   0  76   13.07   26.19
   5   0 -76   38.27   22.20
   0  -5 -76  -13.46   21.63
  -5   0  73  371.04   73.08
   5   0 -73  313.88   74.12
   0  -5 -73  236.94   61.33
  -5   0  73  219.21   57.92
  -5   0  70  266.57   62.16
   5   0 -70  262.98   66.20
  -5   0  70  282.08   67.24
   0  -5 -70  260.31   62.25
  -5   0  67  330.69   65.94
   0  -5 -67  206.19   53.71
  -5   0  67  329.02   72.21
   0   5  67  275.92   67.18
   5   0 -67  353.08   78.30
  -5   0  64   38.96   32.25
  -5   0  64   10.75   16.26
   0   5  64   47.33   29.12
   5   0 -64   43.67   25.47
   0  -5 -64   -8.34   27.12
  -5   0  61  155.90   45.11
   0  -5 -61   93.32   38.57
   0   5  61  155.75   50.65
  -5   5 -61  102.58   33.35
   0   5  61  126.49   47.96
   5   0 -61  164.99   52.19
  -5   5 -61  110.70   33.55
  -5   0  61  235.54   57.54
   0   5  58  141.21   40.20
  -5   0  58  219.58   51.57
  -5   0  58  176.39   47.67
  -5   5 -58  165.23   36.32
   0  -5 -58  160.57   42.94
  -5   5 -58  142.73   39.36
   5   0 -58  228.95   57.84
   0   5  58  208.87   53.72
   5   0 -55   31.14   29.12
   0   5  55   -2.99   16.77
  -5   5 -55    7.98    8.42
  -5   0  55   10.96   21.60
  -5   5 -55   11.59   14.43
  -5   0  55   20.26   21.21
   0   5  55   13.59   20.90
   0  -5 -55    4.50   20.99
   0   5  52   41.32   24.29
   0   5  52   37.48   26.61
  -5   0  52   46.25   27.90
  -5   5 -52   38.13   14.11
   5   0 -52   53.11   27.69
   0  -5 -52   20.88   14.24
  -5   5 -52   47.27   22.96
  -5   0  52   31.20   19.32
   5   0 -49   -9.23   18.59
   0   5  49    0.88   11.00
   0   5  49   17.13   11.07
  -5   0  49   13.65   17.87
  -5   0  49  -12.73   14.61
  -5   5 -49    0.44   15.67
   0  -5 -49  -41.88   25.93
  -5   5 -49    8.81    9.00
   0   5  46  -16.20   15.52
   0   5  46    4.23    3.51
  -5   5 -46    1.53   11.10
  -5   0  46   -1.83   11.95
   5   0 -46  -32.68   23.10
  -5   5 -46   11.83    8.74
  -5   0  46  -29.56   22.50
   0   5  46   -8.07   15.78
   0  -5 -46  -11.41   19.28
   0   5  43   62.25   22.99
   5   0 -43   54.52   19.81
   0   5  43   96.42   32.47
   0   5  43   61.73   12.40
  -5   0  43  100.36   34.52
   0  -5 -43   56.96   21.25
  -5   5 -43   73.46   26.85
   5   0 -43   98.90   34.43
  -5   0  43   73.93   28.51
  -5   5 -43   58.18   19.35
  -5   0  40   10.96   14.13
   5   0 -40   26.95   17.98
   0   5  40   42.55   10.97
  -5   5 -40   25.55   12.07
   0   5  40   44.00   22.13
   5   0 -40   57.92   27.55
  -5   5 -40   -4.04   17.23
   0   5  40   18.44   17.56
   0  -5 -40   45.06   24.82
   0  -5 -40   36.28   18.52
   5   0 -37  247.00   49.25
  -5   0  37  191.11   42.85
  -5   5 -37  215.85   41.35
   0  -5 -37  221.57   40.26
  -5   5 -37  222.49   31.30
   0  -5 -37  252.53   51.81
   0   5  37  278.56   53.18
   0   5  37  218.99   26.32
   0   5  37  199.91   44.22
   5   0 -37  174.49   41.18
   0   5  34  217.12   43.61
  -5   5 -34  224.05   41.14
   0  -5 -34  229.39   38.40
   0   5  34  197.90   26.29
  -5   5 -34  196.41   27.61
  -5   0  34  215.97   44.67
   0   5  34  197.43   43.23
   5   0 -34  208.44   43.64
  -5   0  34  193.68   44.53
   5   0 -34  270.89   49.93
   0  -5 -34  237.75   47.01
   0   5  31 1046.07   94.83
  -5   0  31  912.73   91.72
   0   5  31  950.83   59.78
   5   0 -31  952.47   89.23
  -5   0  31  899.37   89.68
  -5   5 -31  998.70   85.77
   0   5  31  957.51   90.68
   5   0 -31  906.52   86.79
   0  -5 -31  946.23   74.46
   0  -5 -31  988.73   94.40
   5   0 -28    0.48    9.72
   0   5  28    2.67    7.79
   0  -5 -28   11.63   11.29
   0  -5 -28   23.08   12.70
   0   5  28    8.52    6.08
   0   5  28    6.59    8.74
  -5   5 -28   -3.82   12.28
  -5   0  28   24.72   14.73
  -5   0  28   12.21   11.34
   0   5  25  537.24   62.82
   0  -5 -25  562.73   65.09
  -5   0  25  620.48   71.18
  -5   5 -25  545.07   60.90
   0  -5 -25  576.88   50.68
  -5   0  25  596.31   70.91
   0   5  25  535.82   63.36
   0   5  25  571.66   48.57
   0   5  22   34.96   16.76
   0   5  22   24.51   14.93
  -5   0  22   65.03   26.80
   0  -5 -22   50.50   26.80
   0  -5 -22   36.07   15.45
   0   5  22   62.01   23.32
  -5   0  22    9.22   11.77
   0   5  19  830.82   70.97
  -5   0  19  778.67   74.32
   0  -5 -19  814.59   62.76
   0   5  19  767.60   72.30
  -5   0  19  806.63   79.96
   0   5  19  750.00   59.44
   0   5  16   82.46   21.32
   0  -5 -16   74.02   23.40
  -5   0  16   90.63   29.73
   0   5  16   79.84   24.61
  -5   0  16   53.41   21.22
   0   5  13  769.66   61.79
   0  -5 -13  769.85   63.47
   0   5  13  787.35   44.08
  -5   0  13  744.84   67.69
   0   5  13  762.96   62.93
  -5   0  13  821.93   77.93
   0   5  10  175.56   27.84
   0   5  10  169.43   29.95
  -5   0  10  130.73   31.42
  -5   0  10  138.32   29.12
   0  -5 -10  128.98   27.24
   0   5  10  119.23   15.54
   0   5   7   57.35   10.10
   0   5   7   70.42   21.58
  -5   0   7   79.70   25.31
   0   5   7   55.22   16.45
   0  -5  -7   63.89   20.55
   0   5   4 1380.95   70.36
   0  -5  -4 1399.38   91.34
  -5   0   4 1481.38   99.46
   0   5   4 1487.69   93.65
   0  -5  -1   42.20   17.81
  -5   0   1   51.48   21.06
   5  -5   1   17.92    5.44
   0   5   1   37.81   11.48
   0   5  -2  767.05   42.58
   0  -5   2  804.57   71.73
   5  -5  -2  745.24   36.88
  -5   0  -2  773.18   70.21
   0   5  -5  176.74   18.37
   5  -5  -5  240.39   23.46
   5   0   5  247.57   40.17
   0  -5   5  210.71   37.77
  -5   0  -5  253.10   40.90
   5  -5  -8  594.31   40.99
   5   0   8  573.68   60.53
   0  -5   8  577.25   63.17
  -5   0  -8  584.86   59.67
  -5   0 -11   48.44   22.43
   5   0  11   36.22   22.17
   5  -5 -11   29.30   11.49
   0  -5  11   12.27   11.84
   5   0  14  333.36   44.37
   5  -5 -14  377.99   38.03
   0  -5  14  386.37   53.77
  -5   0 -14  367.70   47.16
  -5   0 -17 2213.45  111.25
   5  -5 -17 2568.34  106.89
   0  -5  17 2388.05  134.74
   5   0  17 2244.32  113.43
  -5   5  20  359.30   58.59
   5  -5 -20  313.65   43.78
   0  -5  20  329.27   52.68
  -5   0 -20  473.32   51.65
   0  -5  23   62.83   23.49
   5  -5 -23   35.60   14.57
  -5   0 -23   19.83    9.48
  -5   5  23   88.36   30.84
   0   5 -26    5.51    3.92
   5  -5 -26    0.83    6.33
  -5   5  26    7.06    8.76
  -5   0 -26   25.27   14.29
  -5   5  26   23.44   21.69
   0  -5  26  -11.80   17.17
  -5   5  29   27.02   16.45
  -5   0 -29   33.53   15.02
   0   5 -29   20.22    6.88
   5   0  29   27.29   15.83
   5  -5 -29   49.28   16.82
  -5   5  29   18.82   11.55
   0  -5  29   61.51   25.13
   5   0  32   39.39   22.51
   0   5 -32   10.14    6.81
   5  -5 -32   15.13   16.61
   0   5 -32    0.29    9.47
  -5   5  32   14.39   12.96
   0  -5  32   22.17   17.42
  -5   5  32   17.76   12.19
  -5   0 -32   20.50   10.68
   0   5 -35   55.78   14.10
  -5   5  35   79.01   25.44
   5   0  35   42.22   18.97
  -5   0 -35   57.11   17.35
  -5   5  35   51.63   22.25
   5  -5 -35   54.26   18.44
   0   5 -35   49.76   21.87
   0  -5  35   42.21   20.69
   0   5 -38   10.06   11.43
   0   5 -38   25.33   12.11
   5   0  38    6.14   12.22
  -5   5  38   -4.87   12.53
  -5   0 -38    6.99    8.49
   5  -5 -38   20.06   12.41
  -5   5  38  -13.68   21.86
   0  -5  38   -5.28   10.22
  -5   5  41   79.09   25.02
   0   5 -41   66.50   28.67
   0   5 -41   76.43   18.89
   0  -5  41   62.74   25.79
  -5   0 -41   58.98   18.07
   5  -5 -41   92.92   30.52
   5   0  41   37.24   20.44
   0  -5  44  857.63   93.48
   0   5 -44  699.75   57.16
  -5   5  44  823.03   95.19
  -5   5  44  937.37   82.91
   5   0  44  727.56   86.71
   5  -5 -44  797.05   86.13
  -5   0 -44  760.54   57.52
  -5   5  47   62.78   21.58
   5   0  47   46.10   25.16
   0   5 -47   60.54   18.63
  -5   5  47   52.34   27.33
  -5   0 -47   52.69   15.03
   0  -5  47   99.11   34.63
  -5   5  50  326.64   49.48
   5   0  50  343.87   61.19
  -5   0 -50  294.52   34.01
   0   5 -50  330.62   44.86
  -5   5  50  304.49   59.01
   0  -5  50  320.99   60.48
  -5   5  53   14.16   20.99
  -5   0 -53    2.03    5.91
   0   5 -53   29.23   18.14
  -5   0 -53   19.60   10.65
   0  -5  53    6.22   15.59
  -5   5  53   -7.45   10.51
   5   0  53    1.83   16.49
   0   5 -56  345.88   48.72
  -5   5  56  395.93   55.03
   0  -5  56  372.73   66.28
  -5   0 -56  289.92   32.23
  -5   0 -56  277.84   30.45
   5   0  56  389.55   71.54
  -5   5  56  362.67   69.80
   5  -5 -56  561.93   91.35
  -5   5  59   12.23   12.70
  -5   0 -59    6.45    5.98
  -5   5  59    5.23   20.25
   5  -5 -59   40.04   33.89
   0   5 -59    0.41   13.57
   5   0  59  -14.13   22.05
  -5   0 -59    2.81    4.97
   0  -5  59    5.36   10.58
   5   0  62   78.26   33.39
   0   5 -62   83.90   29.06
  -5   5  62   66.50   24.11
   5  -5 -62   60.63   34.44
  -5   0 -62   50.11   11.61
  -5   0 -62   40.10   11.16
   0  -5  62   34.24   17.50
  -5   5  62   92.27   40.72
  -5   5  65   71.36   35.54
   5  -5 -65   84.21   38.24
  -5   5  65   57.94   23.88
   0   5 -65   90.48   29.71
   0  -5  65   46.57   25.47
   5   0  65   71.35   33.21
  -5   5  68    4.03   11.16
  -5   5  68   -2.95   15.49
   5  -5 -68   23.87   24.80
   5   0  68  -13.89   16.00
   0  -5  68   20.71   14.15
   5  -5 -71  121.23   50.28
   0  -5  71   88.15   33.03
  -5   5  71   -3.79   18.20
   5   0  71   87.00   35.38
  -5   5  71  149.99   34.45
   5  -5 -74   44.25   36.34
   0  -5  74   55.50   26.42
   5   0  74   30.73   24.00
  -5   5  74   48.86   21.56
  -5   5  74   34.66   17.38
  -5   5  77   11.06   28.93
   5  -5 -77   54.23   41.74
  -5   5  77   26.92   19.77
   0  -5  77  -17.89   21.74
   0  -5  80   -9.46   15.08
   5  -5 -80   70.24   45.86
  -5   5  80   47.31   33.36
  -5   5  83  391.01   93.11
   0  -5  83  384.69   75.56
   5  -5 -83  524.82  106.83
  -5   5  86    4.50   21.07
   0  -5  86   15.07   14.24
   5  -5 -86   15.61   27.35
   0  -5  89   -5.77   16.96
  -5   5  89  -67.97   52.80
   5  -5 -92  259.76   83.30
  -5   5  92  198.70   70.74
   0   5 -92  245.66   83.40
   0  -5  92  217.35   59.65
   5  -5 -95  154.34   69.62
  -5   5  95   53.43   36.37
   0  -5  95   44.72   29.66
   0   5 -95   74.15   42.81
   5  -5 -98   42.67   41.76
  -5   5  98   -3.91   30.05
   0   5 -98   21.47   25.11
  -6   5  97    0.32   17.99
   6  -5 -97  102.43   64.22
   1  -6  94   -3.30   14.46
  -6   5  94   40.24   41.20
   6  -5 -91  130.87   63.63
   1  -6  91   86.37   33.41
  -6   5  91   96.13   55.32
  -6   5  88  157.46   64.71
   6  -5 -88  315.15   93.08
   1  -6  88  299.87   69.98
  -6   5  85    6.43   29.21
   6  -5 -85   53.06   41.40
   1  -6  85    4.39   14.90
   5   1  82  -16.45   17.63
   1  -6  82  -16.65   14.40
  -6   5  82   11.97   19.51
  -6   5  79  317.62   78.93
   5   1  79  427.93   88.17
  -6   5  79  496.16   71.72
   6  -5 -79  615.42  115.60
   1  -6  79  532.66   89.42
  -6   5  76  -41.72   33.89
  -6   5  76   34.53   19.63
   5   1  76   20.77   25.40
   6  -5 -76   69.14   41.27
   1  -6  73   10.44   16.38
   6  -5 -73   43.79   37.51
  -6   5  73   15.76   17.43
  -6   5  73   -5.13   17.37
   5   1  73    0.41   17.99
  -6   5  70  370.67   85.87
   5   1  70  234.93   62.89
   1  -6  70  264.64   59.95
   6  -5 -70  359.94   81.23
  -6   5  70  308.88   56.07
   6  -5 -67   65.56   44.72
   5   1  67   41.72   24.81
  -6   5  67   34.96   24.12
   1  -6  67   33.00   22.61
  -6   5  67   20.64   23.64
  -1   6 -67   24.28   18.76
  -6   5  64   77.99   24.43
   1  -6  64   46.45   28.10
  -6   5  64   85.38   37.36
  -1   6 -64   91.18   28.27
   5   1  64   87.79   36.13
  -6   5  61   26.92   15.00
  -1   6 -61   40.45   21.99
  -6   5  61   13.30   15.85
   5   1  61  -14.77   21.08
   1  -6  61    5.02   11.66
  -5  -1 -58   85.26   13.14
  -1   6 -58  196.21   37.56
  -6   5  58  222.25   46.26
  -6   5  58  172.59   53.37
   5   1  58  178.35   51.85
   1  -6  58  255.29   56.25
  -5  -1 -58  125.87   15.66
  -1   6 -55   84.44   24.03
  -6   5  55   73.65   31.10
  -5  -1 -55   84.21   16.25
  -5  -1 -55   51.19   12.52
  -6   5  55  120.39   32.74
   1  -6  55   64.84   30.79
   5   1  55   94.03   37.88
  -5  -1 -52  559.41   44.58
  -6   5  52  555.22   84.73
  -6   5  52  786.99   84.82
   1  -6  52  720.78   91.53
  -1   6 -52  548.02   59.97
   5   1  52  624.97   90.31
   5   1  49   19.92   17.18
  -6   5  49   52.84   17.26
   1  -6  49   59.02   25.21
  -6   5  49   45.81   29.12
  -1   6 -49   54.75   20.74
  -5  -1 -49   49.84   15.68
   5   1  46   12.29   14.47
  -1   6 -46    9.73    7.59
   1  -6  46    1.65   10.03
  -5  -1 -46    4.55    6.60
  -6   5  46  -24.30   23.02
  -6   5  43  147.81   36.95
  -1   6 -43   54.46   16.13
   1  -6  43  106.83   35.94
  -5  -1 -43  117.85   26.06
   5   1  43  145.31   43.96
  -1   6 -40  409.41   41.27
  -6   5  40  580.73   70.15
  -5  -1 -40  428.72   45.21
   1  -6  40  506.65   71.68
   5   1  40  432.63   67.67
  -1   6 -37    4.26    8.95
   5   1  37    1.09   16.43
  -5  -1 -37    3.03    6.85
   1  -6  37    8.84   12.01
  -6   5  37   10.81   14.92
  -1   6 -34   41.67   12.58
   5   1  34   87.74   33.39
  -6   5  34   96.31   30.29
  -5  -1 -34   76.96   21.72
   1  -6  34   83.23   29.96
  -5  -1 -31  399.16   46.20
  -1   6 -31  346.94   32.21
   1  -6  31  451.30   65.12
  -6   5  31  461.44   68.81
  -1   6 -31  440.20   64.69
  -6   5  31  478.76   63.04
  -6   5  28   92.25   32.53
  -5  -1 -28   96.54   23.42
  -6   5  28   65.56   26.88
  -1   6 -28   25.06    8.99
   1  -6  28   90.83   30.66
  -6   5  25  657.55   79.56
  -5  -1 -25  586.26   59.13
   1  -6  25  603.31   74.49
  -6   5  25  640.99   71.81
   5   1  25  520.46   54.03
  -6   5  22  190.76   43.27
  -6   5  22  139.52   32.10
   5   1  22  142.11   30.26
   1  -6  22  139.63   36.05
  -5  -1 -22  182.38   34.07
  -5  -1 -19  130.99   31.28
   5   1  19   70.19   25.48
   1  -6  19   61.13   25.91
  -6   5  19   79.36   29.21
  -5  -1 -16  299.71   45.16
   5   1  16  221.83   38.75
   1  -6  16  286.05   50.11
  -5  -1 -13 1587.39  101.88
   5   1  13 1575.00  102.11
   1  -6  13 1527.66  110.22
   5   1  10  311.58   46.82
   1  -6  10  321.50   49.36
  -5  -1 -10  340.74   48.67
  -5  -1  -7   72.75   25.38
   5   1   7   35.40   19.39
   1  -6   7   58.07   22.04
  -5  -1  -4 1921.04  117.08
  -1   6  -4 1756.80   73.44
   1  -6   4 1857.08  114.98
   5   1   4 1949.16  115.20
  -1   6  -1  834.61   54.23
   1  -6   1  808.63   76.06
  -5  -1  -1  862.52   79.86
  -1   6   2  134.41   32.12
  -1   6   2  118.64   21.53
   1  -6  -2  153.07   32.83
  -5  -1   2  120.16   32.12
  -1   6   5  145.69   33.21
  -1   6   5  104.45   21.98
  -5  -1   5   77.14   20.12
   1  -6  -5  126.54   30.76
  -5  -1   5  105.12   30.93
  -5  -1   8  933.09   70.61
  -1   6   8  934.35   68.00
  -5  -1   8  905.37   84.80
   1  -6  -8  954.04   78.27
  -1   6   8 1052.09   84.62
   1  -6 -11   33.23   16.05
  -1   6  11   12.11    8.35
  -1   6  11   12.73   13.29
  -1   6  11   25.41   14.28
  -5  -1  11   26.12   11.03
  -5  -1  11   -1.17    9.32
  -1   6  14   84.13   27.05
  -1   6  14   80.33   24.24
  -5  -1  14   69.91   23.12
   1  -6 -14   68.86   21.39
  -1   6  14   60.82   20.53
   6  -5  14   48.00    9.57
  -5  -1  14  125.09   35.45
  -1   6  14   52.22   13.25
  -5  -1  17 1180.54  100.41
  -1   6  17 1117.15   66.64
  -5  -1  17 1093.34   85.31
  -1   6  17 1111.08   85.76
  -1   6  17 1332.07   92.53
   6  -5  17  989.44   44.04
  -1   6  17 1231.57   86.55
  -1   6  20   65.12   23.63
  -1   6  20   50.28   21.06
  -1   6  20   69.66   25.95
  -5  -1  20   51.33   27.06
   6  -5  20   17.50    6.23
  -5  -1  20   28.15   16.34
  -1   6  20   28.24   13.68
  -1   6  23  448.58   58.12
  -1   6  23  462.42   58.56
  -5  -1  23  450.24   65.32
  -5  -1  23  409.02   56.80
  -1   6  23  382.23   43.07
   6  -5  23  411.83   32.73
  -1   6  23  433.23   50.08
  -1   6  26   11.79   11.52
  -1   6  26    4.56    7.68
  -5  -1  26   -0.26    9.25
  -5  -1  26   39.34   21.64
  -1   6  26   23.31   18.77
  -1   6  26   23.30   11.87
  -1   6  29   92.99   27.47
  -5  -1  29  146.79   36.63
  -1   6  29  127.76   34.25
   5   1 -29  125.93   32.85
   5   1 -29  150.80   35.22
  -1   6  29  138.68   28.10
   5   1 -32   46.17   24.80
  -1   6  32   20.57   16.75
  -5  -1  32   18.47   10.30
  -1   6  32    8.87    9.08
   5   1 -32   26.48   18.07
  -1   6  32   30.82   15.48
  -1   6  35  959.39   97.20
  -5  -1  35  820.75   93.82
   5   1 -35  731.38   81.64
  -6   5 -35  721.04   76.63
  -1   6  35  807.89   62.03
  -1   6  35  773.51   84.68
  -1   6  38  242.85   52.75
  -1   6  38  279.18   34.47
  -5  -1  38  320.44   61.24
  -6   5 -38  266.43   46.84
  -1   6  38  233.19   46.01
   5   1 -38  258.94   49.99
  -1   6  41  -11.97    9.77
   1  -6 -41   27.41   25.18
  -1   6  41    2.49   15.84
  -5  -1  41    1.37   14.61
  -6   5 -41    2.30    9.61
  -5  -1  41  -14.10   13.07
  -1   6  41  -22.47   19.18
   5   1 -41    8.35   11.82
  -5  -1  44  500.81   75.51
  -1   6  44  423.42   70.42
  -1   6  44  394.08   63.25
  -5  -1  44  422.58   60.73
  -6   5 -44  432.45   61.28
  -1   6  44  443.38   40.04
   5   1 -44  474.65   71.89
   1  -6 -44  472.12   66.57
  -1   6  47   14.08    9.64
  -1   6  47   17.19   25.85
  -5  -1  47    3.52   15.28
  -5  -1  47   22.69   19.27
  -6   5 -47    6.75    8.87
   5   1 -47   -6.93   13.98
   1  -6 -47   57.11   26.74
  -1   6  47   19.27   17.82
   5   1 -50   60.72   26.44
  -1   6  50   46.86   27.06
  -5  -1  50   52.64   30.33
  -5  -1  50   39.78   17.07
  -6   5 -50   37.86   16.68
  -1   6  50   37.75    9.81
  -1   6  50   59.43   27.65
   1  -6 -50   69.18   21.65
   5   1 -53   34.21   21.24
  -1   6  53    4.71    4.09
  -1   6  53   32.87   25.65
  -1   6  53   10.75    6.56
   1  -6 -53   27.29   15.55
  -5  -1  53   22.14   21.12
  -1   6  53   14.61   15.67
  -5  -1  53   28.40   22.74
  -6   5 -53   -5.90   16.85
  -1   6  56   93.56   37.32
   5   1 -56   56.82   28.40
  -5  -1  56   63.34   27.03
  -1   6  56   45.04    8.43
  -1   6  56   34.54    7.35
  -1   6  56   54.90   30.39
  -6   5 -56   66.55   25.12
  -5  -1  56   42.28   24.59
   1  -6 -56   87.95   34.45
  -1   6  59   79.89   41.07
  -5  -1  59  121.11   43.02
  -5  -1  59  117.49   45.95
  -6   5 -59   14.78   16.86
  -1   6  59   80.82   34.39
   1  -6 -59   98.56   38.90
   5   1 -59   71.50   39.41
  -5  -1  62  655.80   96.07
  -1   6  62  760.20  110.68
  -5  -1  62  669.19   92.70
  -1   6  62  695.48   99.73
   5   1 -62  534.58   89.99
   1  -6 -62  641.95   92.17
   1  -6 -65  155.58   43.15
  -1   6  65  179.98   57.29
  -5  -1  65  222.77   54.52
   5   1 -65  196.71   60.82
  -5  -1  65  200.35   56.53
  -5  -1  68  -28.09   24.01
  -5  -1  68   40.64   29.00
   1  -6 -68    1.80   20.01
   5   1 -68  -20.20   21.62
  -1   6  68   -0.68   19.98
  -1   6  71  264.34   73.16
  -5  -1  71  226.29   58.73
  -5  -1  71  254.76   65.55
   5   1 -71  208.62   60.02
   1  -6 -71  166.54   47.07
  -1   6  74  148.72   51.87
   1  -6 -74  115.92   42.58
   5   1 -74  144.45   52.69
  -5  -1  74  128.85   46.93
  -5  -1  74  139.26   49.06
  -5  -1  77   49.55   33.30
  -5  -1  77   45.93   22.90
  -1   6  77   36.95   25.04
   5   1 -77   20.42   22.63
   1  -6 -77   41.24   19.26
   1  -6 -80   18.19   25.12
  -5  -1  80   29.78   38.80
  -5  -1  80   34.40   31.54
   5   1 -80   72.19   40.04
  -5  -1  83  264.70   69.35
  -5  -1  83  318.59   72.15
   1  -6 -83  272.11   75.46
   5   1 -83  191.36   63.97
   5   1 -86  -13.77   26.33
  -5  -1  86  -37.83   36.23
  -5  -1  86   29.16   26.49
   1  -6 -86   30.55   33.14
   1  -6 -89  -44.39   37.88
  -5  -1  89   -0.38   15.81
  -5  -1  89  -19.33   23.96
   5   1 -89  -35.59   29.55
   1  -6 -92  138.68   50.53
  -5  -1  92   87.28   47.61
  -5  -1  92  127.99   48.93
   5   1 -92  145.98   59.25
   1  -6 -95    5.95   21.29
   5   1 -95  -53.06   47.20
   5   1 -98   32.39   36.08
   1  -6 -98  -86.72   52.77
  -6   4  98  -13.49   32.63
  -4  -2 -98  -21.64   61.02
  -6   4  95   67.47   44.21
   6  -4 -95   74.59   53.58
  -4  -2 -95  198.88   63.61
   6  -4 -92  248.07   82.02
  -6   4  92  224.99   72.00
  -4  -2 -92  150.15   62.85
  -6   4  89   23.15   30.85
  -4  -2 -89   -2.01   34.60
   6  -4 -89   22.75   36.32
  -6   4  86    4.35   21.97
   6  -4 -86   31.28   36.64
  -6   4  83  240.77   69.65
  -6   4  83  214.37   48.55
   6  -4 -83  280.33   79.81
  -6   4  80   -7.00   18.44
   6  -4 -80  114.89   52.20
   2  -6  80   52.17   28.62
  -6   4  80   16.29   18.26
   4   2  80  160.05   44.18
   6  -4 -77   37.90   35.68
  -6   4  77   59.35   40.74
   4   2  77   14.82   13.15
   2  -6  77   18.59   15.37
  -6   4  77   -5.28   10.31
  -6   4  74   -2.33   22.47
   2  -6  74   48.84   28.12
  -6   4  74    4.81   16.73
   4   2  74   56.92   35.45
   6  -4 -74   38.98   33.69
  -6   4  71   39.27   33.05
  -6   4  71   95.80   34.03
   2  -6  71   69.40   30.47
   4   2  71   75.53   38.60
   6  -4 -71  148.60   58.12
   6  -4 -68  277.03   70.96
   2  -6  68  317.48   66.11
   4   2  68  315.11   71.36
  -6   4  68  266.89   53.54
  -6   4  68  291.38   68.07
   6  -4 -65  137.89   53.75
  -2   6 -65   28.26   17.65
  -6   4  65   49.45   36.07
   2  -6  65   62.94   30.28
  -6   4  65   87.70   34.20
   4   2  65   49.65   32.16
  -2   6 -62  306.84   55.49
  -6   4  62  420.03   81.58
   6  -4 -62  335.75   75.65
   2  -6  62  409.05   67.90
  -6   4  62  394.59   64.31
   4   2  62  368.03   76.43
   6  -4 -59   45.20   38.38
  -6   4  59   22.29   15.44
  -2   6 -59   21.63   16.78
   2  -6  59   20.30   18.57
  -6   4  59    6.14   18.85
   4   2  59  -15.85   18.71
   6  -4 -56  315.27   74.42
  -2   6 -56  220.10   44.16
   4   2  56  222.94   54.62
   2  -6  56  273.53   57.22
  -6   4  56  229.54   48.69
  -6   4  56  194.55   53.95
  -2   6 -53   64.87   26.34
  -6   4  53   48.45   22.52
   2  -6  53   74.98   27.79
  -6   4  53   43.01   25.09
   4   2  53   32.93   21.92
  -4  -2 -50   -2.69    4.02
  -2   6 -50    6.87    9.41
   2  -6  50   -3.47   13.54
  -6   4  50   14.98    9.88
  -6   4  50   -4.59   20.51
   4   2  50  -22.04   25.92
  -4  -2 -47   63.02   13.80
  -2   6 -47   80.96   25.93
   2  -6  47   85.24   29.41
  -6   4  47   90.60   30.48
   4   2  47   55.15   27.89
   4   2  44  783.82   94.68
  -2   6 -44  880.08   76.77
   2  -6  44  913.30   94.94
  -4  -2 -44  918.02   54.39
  -6   4  44 1049.85   95.97
   4   2  41   25.25   23.05
  -6   4  41   11.94   10.28
  -2   6 -41    9.39    8.12
  -4  -2 -41   35.97   11.69
   2  -6  41   10.01   13.58
   2  -6  38   91.12   30.01
  -4  -2 -38   44.96   19.53
  -4  -2 -38  119.21   21.00
  -6   4  38  118.74   32.53
  -2   6 -38  103.73   33.09
   4   2  38   46.37   22.26
  -4  -2 -35  265.70   33.23
  -2   6 -35  335.87   56.95
  -6   4  35  304.52   51.29
   2  -6  35  370.39   58.31
   4   2  35  239.16   52.81
  -4  -2 -35  277.26   64.53
  -6   4  32   59.55   22.47
   4   2  32   19.14   18.99
  -4  -2 -32   37.93   29.10
  -4  -2 -32   48.26   18.07
  -6   4  32   44.57   27.80
   2  -6  32   31.70   18.32
  -2   6 -32   45.05   21.51
   4   2  32   34.17   13.19
  -4  -2 -29  407.55   43.95
  -6   4  29  437.91   60.16
   2  -6  29  444.29   61.32
  -2   6 -29  427.19   62.45
  -6   4  29  413.41   65.97
   4   2  29  373.70   41.40
   2  -6  26   60.71   23.80
  -4  -2 -26   55.53   18.81
  -6   4  26   44.38   23.51
   4   2  26   66.60   21.63
  -6   4  26   62.31   25.55
  -6   4  23  273.49   51.59
  -4  -2 -23  294.98   40.16
   4   2  23  332.75   41.86
   2  -6  23  332.69   52.18
  -6   4  23  329.35   51.47
  -6   4  20   46.32   24.67
   4   2  20  163.36   31.37
   2  -6  20   84.19   29.00
  -6   4  20   85.34   28.66
  -4  -2 -20  108.76   27.23
   4   2  17 1386.40   86.52
  -4  -2 -17 1401.57   89.33
   2  -6  17 1505.77  106.86
  -6   4  17 1341.93  101.25
   4   2  14 1143.29   80.84
  -6   4  14 1272.76   96.72
   2  -6  14 1201.51   94.29
  -4  -2 -14 1203.42   84.47
   2  -6  11   78.49   26.88
  -4  -2 -11  130.68   31.11
   4   2  11   86.17   25.43
  -6   4  11   62.43   24.37
  -6   4   8  516.63   61.58
  -4  -2  -8  577.26   60.87
   2  -6   8  570.04   63.73
   4   2   8  553.05   57.99
   4   2   5 1813.05  105.98
  -6   4   5 1884.02  116.11
   2  -6   5 1741.95  108.46
  -4  -2  -5 1872.16  111.01
   2  -6   2   41.82   18.75
   4   2   2   21.33   13.69
  -4  -2  -2   74.41   22.23
  -4  -2   1    9.05    8.74
   2  -6  -1    0.84    6.56
  -4  -2   1  -15.46   11.06
  -4  -2   4  543.17   63.19
  -4  -2   4  503.80   41.62
  -2   6   4  617.60   63.32
  -2   6   7  100.37   21.35
  -4  -2   7  104.01   29.32
  -2   6   7  138.46   29.97
  -4  -2   7  100.49   19.45
  -4  -2  10  106.90   30.88
  -2   6  10  140.17   30.08
  -2   6  10  122.53   24.74
  -4  -2  10   95.10   20.46
  -4  -2  13 1278.89  102.00
  -2   6  13 1383.02   89.17
  -2   6  13 1332.00   89.35
  -2   6  13 1347.25   83.31
  -2   6  13 1175.22   71.68
  -4  -2  13 1235.94   77.21
  -2   6  16   55.18   20.64
  -2   6  16   60.76   24.24
  -2   6  16   70.26   21.93
  -4  -2  16   68.24   27.30
  -2   6  16   32.26   14.04
  -2   6  19  556.61   61.62
  -2   6  19  518.16   55.11
   6  -4  19  513.89   43.36
  -2   6  19  506.68   53.23
  -4  -2  19  524.51   68.66
  -2   6  19  461.64   47.44
   4   2 -19  447.58   47.29
   4   2 -22  197.03   34.32
  -2   6  22  208.73   36.18
  -4  -2  22  216.55   46.31
   6  -4  22  172.49   26.13
  -2   6  22  246.34   44.11
  -2   6  22  189.91   35.44
  -2   6  22  171.60   31.27
  -4  -2  25  726.13   82.08
  -2   6  25  715.14   62.39
   4   2 -25  667.63   64.97
   6  -4  25  708.26   54.24
  -2   6  25  787.94   73.53
  -2   6  25  718.19   75.39
  -2   6  25  627.52   60.36
  -4  -2  28  470.33   66.90
  -2   6  28  484.91   64.52
   4   2 -28  456.01   55.95
  -2   6  28  441.71   48.14
  -2   6  28  403.55   54.90
  -2   6  28  432.39   53.13
   6  -4  28  412.75   43.06
   6  -4  31 1041.60   71.37
  -2   6  31 1098.30   74.09
  -2   6  31 1111.74   92.36
   4   2 -31  998.25   93.00
   4   2 -31 1009.77   87.16
  -4  -2  31 1066.90  101.89
  -2   6  31 1140.11  100.26
  -2   6  31 1120.12   87.80
  -2   6  34  265.46   51.07
  -4  -2  34  238.56   37.79
   4   2 -34  233.72   45.99
  -4  -2  34  299.07   55.16
  -2   6  34  263.33   35.52
   4   2 -34  204.87   41.66
   6  -4  34  212.77   32.78
  -2   6  34  222.79   42.98
  -2   6  34  208.86   37.80
   4   2 -37  -14.55   18.62
  -2   6  37   34.58   16.85
  -2   6  37  -10.67   13.87
  -2   6  37   15.45   10.23
  -4  -2  37    0.55    7.85
  -2   6  37   23.51    6.90
   6  -4  37   21.94   13.59
  -4  -2  37    7.41   12.32
   4   2 -37    7.00   12.77
  -2   6  40   82.35   29.57
   6  -4  40  102.71   25.43
  -4  -2  40  104.24   28.66
  -4  -2  40  112.09   36.84
   2  -6 -40  128.37   35.23
  -2   6  40   98.50   22.05
   4   2 -40   61.20   23.28
  -2   6  40  106.05   35.12
   4   2 -43  175.01   40.75
  -2   6  43  312.32   59.99
  -4  -2  43  160.87   35.75
  -4  -2  43  189.48   46.35
  -6   4 -43  255.63   45.34
  -2   6  43  212.70   31.43
   2  -6 -43  304.60   55.86
  -2   6  43  251.34   51.42
   6  -4  43  192.46   36.08
   4   2 -46   27.57   15.70
  -4  -2  46   64.19   27.61
  -6   4 -46   66.66   22.89
  -2   6  46   92.98   31.58
  -2   6  46   93.57   18.75
  -2   6  46   64.89   28.08
   2  -6 -46  145.91   44.36
  -4  -2  46   78.23   23.70
  -4  -2  49  174.88   46.81
  -6   4 -49  101.59   29.68
  -4  -2  49  102.47   31.21
   2  -6 -49  145.90   44.23
  -2   6  49  132.61   22.22
  -2   6  49   86.24   17.76
  -2   6  49  108.96   39.50
   4   2 -49  111.71   35.98
  -2   6  49  193.31   45.02
  -4  -2  52  361.24   67.90
  -2   6  52  382.25   74.96
  -4  -2  52  283.69   51.36
  -6   4 -52  302.77   51.33
  -2   6  52  318.34   34.22
  -2   6  52  282.49   32.72
   4   2 -52  340.79   65.11
   2  -6 -52  403.07   70.69
   2  -6 -55   14.36   23.53
  -2   6  55   -0.36    4.16
   4   2 -55  -14.39   22.57
  -2   6  55   27.77   23.00
  -4  -2  55   30.49   23.74
  -6   4 -55   -0.04    9.93
  -2   6  55    4.40    7.81
  -4  -2  55   -5.32   10.48
  -2   6  58  510.49   89.47
  -4  -2  58  401.14   66.00
  -4  -2  58  453.29   79.18
   2  -6 -58  537.22   83.15
  -6   4 -58  466.24   65.22
  -2   6  58  363.20   32.58
  -2   6  58  349.48   31.67
   4   2 -58  412.26   73.25
  -2   6  61  251.79   63.29
  -2   6  61  126.92   18.31
  -4  -2  61  212.63   58.03
  -2   6  61  111.29   15.99
   4   2 -61  131.98   42.66
   2  -6 -61  198.91   54.12
  -6   4 -61  196.23   43.71
  -4  -2  61  204.20   49.35
  -4  -2  64   11.38   23.11
  -4  -2  64   -3.29   21.47
  -2   6  64    4.49   19.42
  -6   4 -64    1.73   17.06
  -2   6  64    4.98    3.19
  -2   6  64    0.07    2.21
   2  -6 -64   24.79   24.90
  -4  -2  67   42.94   33.55
  -4  -2  67   23.11   22.46
  -2   6  67  -16.34   17.61
   4   2 -67   43.07   26.12
   2  -6 -67   -3.49   15.55
  -6   4 -67   -3.44   14.12
   2  -6 -70  175.18   50.75
   4   2 -70  221.46   61.97
  -4  -2  70  150.32   46.83
  -4  -2  70  195.54   50.44
  -2   6  70  236.97   67.31
  -6   4 -70  225.33   49.16
   2  -6 -73   76.43   44.07
   4   2 -73   73.81   38.75
  -4  -2  73   72.53   27.11
  -4  -2  73  118.76   40.11
  -2   6  73  169.79   58.92
  -4  -2  76   20.30   19.15
  -2   6  76   40.34   30.39
   4   2 -76  -25.33   27.37
   2  -6 -76   12.56   23.18
  -4  -2  76   -9.55   28.63
  -4  -2  79  394.43   84.69
  -4  -2  79  277.26   63.81
   2  -6 -79  275.61   71.86
  -2   6  79  305.04   81.37
   4   2 -79  307.98   78.49
  -2   6  82   56.62   28.63
   4   2 -82   80.68   44.02
  -4  -2  82   87.84   38.69
   2  -6 -82   53.00   35.18
   2  -6 -85   26.75   25.39
  -2   6  85   37.25   36.77
  -4  -2  85    9.25   23.18
   4   2 -85  -17.50   30.22
  -2   6  88   45.54   28.98
   2  -6 -88   70.85   44.05
  -4  -2  88   45.43   21.62
   4   2 -88   34.92   36.02
   4   2 -91   50.55   38.75
   2  -6 -91   52.73   37.23
  -4  -2  91   34.61   22.79
   2  -6 -94  -27.35   46.30
  -4  -2  94  -25.94   25.02
   4   2 -94  -69.64   46.34
   2  -6 -97    6.89   27.37
   4   2 -97   -5.11   28.82
   4   2-100  112.70   63.69
   2  -6-100  113.54   58.96
  -6   3  99   37.96   41.14
  -3  -3 -99   54.57   28.57
  -6   3  96  169.60   65.76
  -3  -3 -96   47.38   54.04
  -6   3  93  148.02   64.54
  -3  -3 -93   63.27   39.54
   6  -3 -93  246.74   80.14
  -3  -3 -90   16.69   31.25
  -6   3  90    3.56   30.20
   6  -3 -90   48.69   40.80
   6  -3 -87  137.84   60.96
  -3  -3 -87   -1.92   28.37
  -6   3  87   86.27   44.89
   6  -3 -84  120.00   58.10
  -6   3  84   59.08   32.39
  -3  -3 -84    9.34   22.49
  -6   3  84   60.55   37.78
  -6   3  81    3.75   22.29
  -6   3  81  -10.10   15.66
  -3  -3 -81  -56.17   44.65
   3   3  78   23.22   28.04
  -3  -3 -78  -17.88   27.07
  -6   3  78   -2.40   22.55
  -6   3  78   17.56   16.93
  -6   3  75  100.94   44.63
   3   3  75  134.99   49.56
  -6   3  75  201.13   52.59
   6  -3 -75  221.33   69.15
  -3  -3 -75  156.17   53.15
   6  -3 -72  122.44   51.14
  -6   3  72   66.83   35.73
  -6   3  72   88.02   33.14
   3   3  72   90.90   39.87
  -3  -3 -72   23.07   18.21
  -6   3  69  267.27   58.75
  -6   3  69  213.24   59.58
   6  -3 -69  228.16   67.72
   3   3  69  210.53   60.29
   6  -3 -66  212.01   62.95
  -6   3  66  220.06   57.58
  -6   3  66  166.16   43.02
   3   3  66  113.51   45.51
   6  -3 -63  207.46   62.38
  -6   3  63   77.17   30.70
  -6   3  63   85.00   37.63
   3   3  63  105.82   39.50
   6  -3 -60  464.88   87.14
  -6   3  60  433.45   67.96
  -3   6 -60  340.35   61.22
   3   3  60  431.30   79.08
  -3   6 -60  357.88   52.06
  -6   3  60  426.60   79.22
   6  -3 -57   73.61   41.26
  -3   6 -57   -3.11   16.66
  -6   3  57   32.48   26.96
  -3   6 -57    9.35   12.43
  -6   3  57   34.01   22.28
   3   3  57   40.12   27.85
   6  -3 -54  269.39   66.42
  -3   6 -54  206.89   45.69
  -6   3  54  188.86   54.79
   3   3  54  226.62   55.02
  -6   3  54  228.77   47.97
  -3   6 -54  215.96   39.03
   3   3  51  118.40   39.82
   6  -3 -51  177.02   53.68
  -3   6 -51  166.81   40.26
  -6   3  51  167.21   40.62
  -6   3  51  134.41   42.42
  -3   6 -51  134.07   30.03
   3  -6  48  605.46   77.01
   6  -3 -48  651.54   81.53
  -6   3  48  618.60   77.36
   3   3  48  577.78   85.05
  -6   3  45  321.38   55.91
   3  -6  45  271.52   50.97
  -3  -3 -45  149.18   15.72
   3   3  45  237.90   53.25
   6  -3 -45  376.58   59.66
  -3   6 -42   56.57   25.75
  -6   3  42   38.13   22.85
   3  -6  42   31.06   15.28
   3   3  42   58.70   27.94
  -3  -3 -42   46.48   11.14
   6  -3 -42   49.46   25.07
   3   3  39  156.19   43.54
  -3   6 -39  238.34   50.74
  -3  -3 -39  135.71   46.04
   3  -6  39  244.51   47.45
  -6   3  39  158.13   39.57
   3   3  39  148.24   22.42
  -3  -3 -39  118.49   19.68
  -3  -3 -36  558.34   80.07
  -3   6 -36  637.98   76.58
   3  -6  36  618.70   72.55
  -6   3  36  553.80   77.91
  -6   3  36  614.29   73.39
   3   3  36  473.82   39.48
  -3  -3 -36  600.08   46.64
  -3  -3 -33  186.54   43.44
   3   3  33  178.19   25.44
   3  -6  33  221.88   43.09
  -6   3  33  181.77   38.66
  -3   6 -33  239.57   47.27
  -3  -3 -33  206.18   28.08
  -6   3  33  160.56   41.17
  -3  -3 -30   48.38   16.63
  -6   3  30   29.30   18.53
  -3  -3 -30   65.44   32.56
  -6   3  30   48.74   29.10
  -3   6 -30   32.13   19.97
   3  -6  30   45.08   22.82
   3   3  30    2.28    6.12
   3   3  27  541.50   47.10
  -3  -3 -27  598.87   73.41
  -6   3  27  687.91   74.81
  -3   6 -27  677.77   74.92
  -3  -3 -27  578.85   50.78
  -6   3  27  542.00   72.03
  -3  -3 -24  141.32   41.40
  -6   3  24  133.36   36.52
  -6   3  24  112.26   35.48
   3   3  24  163.76   30.70
  -3  -3 -24  122.31   29.36
  -6   3  21 1349.56  101.88
   3   3  21 1259.41   77.14
  -6   3  21 1133.24  100.42
  -3  -3 -21 1260.86   99.00
  -3  -3 -21 1341.67   82.65
  -3  -3 -18 1788.57  113.55
   3   3  18 1765.87   93.07
  -3  -3 -18 1818.02   97.95
  -6   3  18 1739.38  115.00
  -6   3  18 1654.89  117.57
  -3  -3 -15   80.75   25.30
  -3  -3 -15   45.31   17.62
   3   3  15   50.87   17.91
  -6   3  15   40.21   18.21
  -6   3  12  348.67   51.35
  -3  -3 -12  365.08   45.35
   3   3  12  346.65   42.91
   3   3   9  155.51   30.33
  -6   3   9  196.49   38.68
  -3  -3  -9  174.00   31.28
   3   3   6   92.48   24.44
  -6   3   6   88.58   24.67
  -3  -3  -6  143.68   30.93
  -3  -3  -3  751.99   69.90
   3   3   3  739.49   68.52
  -6   3   3  776.80   74.17
  -3  -3   0  652.60   66.89
  -6   3   0  545.88   62.04
  -3   6   0  542.90   39.48
   3   3   0  652.77   64.57
  -3  -3   3  374.13   51.24
  -6   3  -3  352.23   49.14
  -3   6   3  397.38   35.00
  -3  -3   6  192.12   37.37
  -3   6   6  216.95   27.27
  -6   3  -6  145.09   31.12
  -3   6   9  127.50   21.81
  -3  -3   9  123.41   31.50
  -3   6   9  126.23   28.88
  -6   3  -9  113.57   28.00
  -3  -3  12  632.92   70.35
  -6   3 -12  617.85   64.26
  -3   6  12  716.44   67.04
  -3   6  12  720.14   55.05
   3   3 -12  688.89   45.90
  -3  -3  15  286.77   48.95
  -3   6  15  305.46   37.42
  -3   6  15  263.65   41.31
   3   3 -15  271.88   32.62
  -3   6  18  177.75   34.11
  -3   6  18  185.04   36.53
  -3   6  18  182.32   31.94
  -3  -3  18  207.65   43.55
   3   3 -18  168.82   27.33
  -3  -3  21 2017.36  132.69
  -3   6  21 2043.79  109.25
  -3   6  21 2024.26  104.76
   3   3 -21 1882.05   97.69
  -3   6  21 1911.32  108.01
   3  -6 -24   62.01   24.10
  -3  -3  24   31.80   23.90
  -3   6  24   94.80   34.99
  -3   6  24   81.79   28.35
   6  -3  24  101.57   27.02
  -3   6  24   44.12   24.31
  -3   6  24   68.41   27.51
  -3   6  27  695.21   66.10
  -3  -3  27  563.57   43.39
  -3   6  27  674.35   73.90
   3  -6 -27  738.17   70.48
  -3   6  27  713.21   63.50
   6  -3  27  643.48   60.23
   3   3 -27  593.07   60.26
  -3   6  27  705.62   69.38
  -3  -3  27  696.60   81.45
   3  -6 -30  118.92   29.47
  -3   6  30   97.50   23.80
  -3  -3  30   97.87   32.11
  -3  -3  30   48.60   13.84
  -3   6  30   84.87   24.52
  -3   6  30  108.59   30.84
   6  -3  30  107.41   26.23
   3   3 -30   75.27   22.13
  -3   6  33   46.92   20.29
   3   3 -33   27.77   11.91
  -3  -3  33   44.23   15.46
   3   3 -33   14.98   12.02
  -3   6  33   20.04   10.50
   6  -3  33   24.61   14.61
  -3   6  33   17.38    8.41
  -3  -3  33   30.88   24.57
   3  -6 -33   54.59   23.50
  -3   6  33   31.23   16.79
  -3   6  36   92.68   34.06
  -3   6  36   84.77   24.62
   6  -3  36   85.99   24.63
   3  -6 -36   81.71   25.25
   3   3 -36   56.13   22.65
  -3   6  36   73.06   26.32
  -3  -3  36   69.55   19.41
  -3  -3  36   68.76   31.98
   3   3 -36   50.66   22.20
  -3  -3  39  746.03   62.56
   6  -3  39  884.78   79.43
  -3   6  39 1036.89  104.19
  -3  -3  39  967.85  103.41
  -3   6  39  919.77   92.09
   3  -6 -39  931.66   92.21
   3   3 -39  803.43   83.51
  -3   6  42    7.82   11.95
   3   3 -42    0.41   17.19
   6  -3  42   16.54   16.87
  -3   6  42    1.65   12.44
  -3  -3  42   24.52   20.60
  -3  -3  42   12.22    9.71
  -3   6  45   20.65   10.10
  -3   6  45   28.11   22.32
  -3  -3  45   29.18   13.42
   6  -3  45    8.06    9.28
   3   3 -45   29.23   17.16
  -3  -3  48  542.98   61.22
  -3   6  48  760.52   95.11
   3  -6 -48  768.15   95.60
  -3  -3  48  640.28   87.75
  -3   6  48  661.37   57.82
  -6   3 -48  649.52   68.15
   6  -3  48  652.32   75.24
   3   3 -48  585.49   79.16
   3   3 -51  126.71   38.02
   3  -6 -51  174.95   49.19
  -3  -3  51  125.33   30.08
  -3  -3  51  112.00   38.85
  -3   6  51  152.35   26.86
  -3   6  51  140.77   42.79
  -6   3 -51  118.10   28.83
   6  -3  51  134.24   37.37
  -3   6  51   98.13   23.85
   3  -6 -54  170.75   48.03
  -3  -3  54   77.19   33.03
  -3   6  54  118.05   39.94
  -3   6  54  125.45   24.89
  -6   3 -54  142.26   33.12
   6  -3  54  164.45   41.23
  -3  -3  54  105.54   30.21
   3   3 -54  171.79   43.24
  -3   6  54  160.38   26.67
  -3   6  57   85.01   19.10
  -6   3 -57  121.86   31.63
  -3   6  57  122.63   43.45
  -3   6  57  113.09   22.53
   3   3 -57  187.00   50.47
  -3  -3  57  135.84   43.71
  -3  -3  57  151.58   39.24
   6  -3  57  105.38   32.22
   3  -6 -57  127.51   45.05
   3  -6 -60  167.60   47.35
  -3  -3  60  123.34   35.61
  -3  -3  60   99.17   39.29
  -3   6  60  138.07   24.13
  -3   6  60  202.02   53.05
  -3   6  60  107.41   22.47
  -6   3 -60   94.65   29.54
   3   3 -60  121.41   40.71
  -3  -3  63   20.76   13.07
  -3   6  63   -4.38    9.32
  -3   6  63   16.09   10.93
  -3   6  63   -9.28   29.24
  -6   3 -63   13.35   14.51
   3  -6 -63   51.26   30.55
   3   3 -63    3.40   14.22
  -3  -3  66  142.44   45.29
   3  -6 -66  119.46   46.61
  -3   6  66   39.07   27.35
  -3   6  66   78.23   16.90
  -6   3 -66  153.49   37.92
   3   3 -66   86.42   37.39
  -3   6  69  528.91   96.39
  -3   6  69  433.50   37.98
  -6   3 -69  623.18   75.13
  -3  -3  69  562.88   93.09
   3   3 -69  548.58   92.73
   3  -6 -69  575.94   96.22
  -3   6  72   32.78   30.02
   3  -6 -72  101.97   47.06
   3   3 -72   57.64   28.59
  -3  -3  72  -27.96   28.40
   3  -6 -75  214.17   64.39
  -3   6  75  178.39   60.52
   3   3 -75  146.18   50.67
  -3  -3  75  195.57   59.76
   3  -6 -78   73.41   47.05
   3   3 -78   47.32   29.83
  -3   6  78   36.92   25.91
  -3  -3  78   19.11   16.49
   3  -6 -81   -2.40   21.94
  -3   6  81  -10.50   17.90
   3   3 -81  -46.15   32.40
  -3  -3  81   15.34   27.40
   3   3 -84   11.78   18.85
  -3   6  84   35.64   33.94
  -3  -3  84   21.36   20.93
   3  -6 -84   26.32   35.23
  -3   6  87  170.75   60.37
   3  -6 -87  225.61   70.24
   3   3 -87  206.42   66.15
  -3  -3  87  182.20   53.64
   3  -6 -90   35.12   40.65
  -3   6  90  -10.39   33.26
   3   3 -90    4.81   24.91
  -3  -3  90  -24.53   23.44
   3  -6 -93   25.76   32.87
  -3  -3  93   16.36   19.52
   3   3 -93   36.90   30.81
   3  -6 -96  180.06   71.27
  -3   6  96  178.68   69.54
  -3  -3  96  227.82   63.36
   3   3 -96  206.38   69.98
   3  -6 -99   39.96   42.17
   3   3 -99  -94.27   61.57
  -6   2 100  145.66   63.96
  -2  -4-100   86.49   58.95
  -2  -4 -97   54.42   43.31
  -6   2  97  100.20   61.30
   6  -2 -97   95.38   59.21
   6  -2 -94   -1.58   24.68
  -6   2  94  -35.72   29.62
  -2  -4 -94  -15.24   37.82
  -6   2  91   67.85   44.88
  -2  -4 -91   41.92   39.85
   6  -2 -91  170.76   65.52
  -6   2  88   32.60   44.89
  -6   2  88   52.16   30.59
   6  -2 -88   55.25   43.24
  -2  -4 -88  -28.94   29.57
  -6   2  85   27.97   34.90
  -6   2  85   43.57   28.97
  -2  -4 -85  -27.35   26.58
   6  -2 -82  204.16   69.13
  -6   2  82   91.33   51.73
  -6   2  82  118.50   41.20
  -2  -4 -82   86.75   37.98
  -2  -4 -79  224.96   63.74
   6  -2 -79  197.53   66.25
  -6   2  79  157.31   54.53
  -6   2  79  160.10   48.85
   6  -2 -76   59.44   37.02
  -2  -4 -76   -3.85   22.48
  -6   2  76  -35.36   34.59
  -6   2  76   36.93   26.57
   2   4  76    9.58   22.45
   6  -2 -73  284.53   71.90
  -6   2  73  181.03   57.23
  -6   2  73  162.83   46.63
   2   4  73  204.85   59.38
  -2  -4 -73  124.70   41.12
  -6   2  70  -20.55   26.49
   2   4  70   31.85   30.44
   6  -2 -70   35.28   36.19
  -6   2  70    8.71   18.34
  -2  -4 -70   28.04   24.02
   6  -2 -67  363.19   80.05
  -6   2  67  355.42   76.59
  -6   2  67  381.58   68.97
   2   4  67  305.83   72.08
  -2  -4 -67  254.96   60.40
   6  -2 -64  183.06   55.70
  -6   2  64  181.74   53.05
  -6   2  64  131.72   37.96
   2   4  64  178.29   52.94
  -2  -4 -64  140.74   43.98
  -4   6 -61  181.83   37.86
  -6   2  61  187.85   51.40
  -6   2  61   97.68   43.34
   2   4  61  116.55   38.88
  -2  -4 -61  174.77   46.03
   6  -2 -61  250.14   65.32
  -4   6 -58  220.51   41.19
  -6   2  58  299.27   59.16
  -6   2  58  186.30   52.58
  -2  -4 -58  288.18   57.11
   2   4  58  227.40   57.10
   6  -2 -58  336.75   72.35
  -2  -4 -55   47.81   21.27
  -6   2  55   44.25   25.77
   2   4  55   18.99   12.74
  -4   6 -55   25.08   14.32
  -6   2  55   70.08   32.39
   6  -2 -55   78.26   39.80
  -4   6 -52  316.94   45.92
  -6   2  52  334.06   65.38
  -6   2  52  362.42   62.85
   2   4  52  363.53   70.99
  -2  -4 -52  307.93   56.16
   6  -2 -52  501.03   84.25
   2   4  49  294.37   60.00
  -6   2  49  224.41   53.62
  -4   6 -49  222.24   36.45
  -2  -4 -49  254.94   48.61
   6  -2 -49  329.10   70.25
  -6   2  49  256.33   53.52
  -6   2  46   -6.63   12.68
   6  -2 -46   17.79   27.26
   2   4  46   11.41    9.96
  -4   6 -46    9.44    5.99
  -2  -4 -46   -0.97   13.70
  -6   2  43   36.34   19.65
   6  -2 -43   57.12   26.07
   2   4  43   48.66   26.32
  -4   6 -43   40.74   15.12
  -2  -4 -43    6.30   11.84
   2   4  43   37.00    8.82
  -4   6 -43   19.45   17.26
   2   4  40  218.43   23.11
  -6   2  40  281.73   52.14
  -2  -4 -40  235.90   51.72
  -4   6 -40  314.24   54.82
  -2  -4 -40  222.71   24.63
   2   4  40  263.88   53.24
  -4   6 -40  270.49   34.60
   6  -2 -40  318.68   55.70
  -2  -4 -40  232.81   38.56
  -6   2  37  139.51   36.32
  -2  -4 -37  125.19   35.17
  -6   2  37  161.50   43.96
  -2  -4 -37  151.06   21.67
  -2  -4 -37  129.31   27.98
  -4   6 -37  151.49   24.38
  -4   6 -37  193.67   42.45
   6  -2 -37  185.64   42.52
   2   4  37  164.36   21.70
  -6   2  34   68.48   25.73
   2   4  34   87.06   16.82
  -2  -4 -34   79.91   29.44
  -6   2  34  131.81   34.46
  -2  -4 -34   72.97   21.13
  -4   6 -34   87.13   28.28
   6  -2 -34   68.20   25.48
  -2  -4 -34  104.33   18.99
  -4   6 -34   79.94   16.65
  -6   2  31  704.71   85.40
  -2  -4 -31  688.85   79.41
  -4   6 -31  806.51   83.14
   6  -2 -31  828.81   86.08
  -4   6 -31  712.57   46.51
  -2  -4 -31  805.01   57.93
  -6   2  31  733.57   80.54
  -2  -4 -31  668.39   57.41
   2   4  31  690.14   50.97
  -2  -4 -28  355.37   54.18
  -2  -4 -28  349.08   39.07
  -4   6 -28  382.28   56.61
   6  -2 -28  399.91   59.08
   2   4  28  322.42   36.32
  -4   6 -28  359.61   30.27
  -2  -4 -28  323.01   37.04
  -6   2  28  410.28   59.93
  -6   2  28  277.95   52.00
  -2  -4 -25  464.58   47.19
  -2  -4 -25  492.95   62.65
  -6   2  25  526.47   66.96
   6  -2 -25  547.91   68.00
   2   4  25  458.25   45.31
  -4   6 -25  557.64   66.58
  -4   6 -25  435.44   30.71
  -2  -4 -25  428.09   39.23
  -6   2  25  552.56   72.43
  -2  -4 -22  517.99   61.33
  -6   2  22  511.09   67.76
  -2  -4 -22  597.22   55.29
   2   4  22  576.33   52.03
  -4   6 -22  470.35   28.52
  -2  -4 -22  465.31   36.69
  -6   2  22  549.66   67.36
  -6   2  19  224.35   42.72
  -2  -4 -19  237.71   39.44
   2   4  19  252.85   35.71
  -4   6 -19  177.21   15.32
  -2  -4 -19  257.73   37.27
  -6   2  19  219.11   40.23
  -2  -4 -19  188.01   20.18
  -6   2  16  423.33   58.27
  -2  -4 -16  444.87   52.67
   2   4  16  431.45   48.19
  -2  -4 -16  481.15   52.59
  -6   2  16  363.23   54.25
  -2  -4 -16  259.48   19.56
  -2  -4 -13  169.73   32.78
  -2  -4 -13  160.53   29.98
  -6   2  13  157.77   36.48
   2   4  13  160.77   29.64
  -2  -4 -10  470.07   53.64
   2   4  10  496.15   53.71
  -2  -4 -10  459.58   47.78
  -6   2  10  454.12   58.55
   2   4   7  358.63   47.14
  -6   2   7  384.50   52.67
  -2  -4  -7  373.55   40.20
  -2  -4  -7  356.11   48.02
  -2  -4  -4  408.88   39.28
   2   4   4  471.63   55.27
  -6   2   4  395.84   53.96
  -2  -4  -4  456.69   54.80
  -2  -4  -1   25.74   13.85
   2   4   1   10.89   10.92
  -2  -4  -1    2.98    4.97
  -6   2   1   -4.26   12.76
  -2  -4   2  166.06   20.74
  -2  -4   2  166.31   33.36
  -6   2  -2  170.48   35.02
  -2  -4   5  345.72   26.63
  -6   2  -5  385.71   52.57
  -2  -4   5  506.39   62.13
  -6   2  -8 1732.05  110.11
   2   4  -8 1457.02   54.13
  -2  -4   8 1607.50  110.40
  -6   2 -11  141.03   36.66
  -2  -4  11  161.72   37.52
   2   4 -11   96.17   16.94
   4  -6 -14  401.97   40.98
  -2  -4  14  371.86   55.39
   2   4 -14  401.10   36.59
  -6   2 -14  406.71   52.81
  -6   2 -17 1795.47  110.01
   2   4 -17 1916.78   87.11
  -2  -4  17 1804.94  123.22
   4  -6 -17 1902.67   94.59
   4  -6 -20  277.24   39.40
  -6   2 -20  329.71   47.23
   2   4 -20  226.95   31.98
  -2  -4  20  295.45   52.31
  -4   6  20  263.92   43.62
   4  -6 -23  548.17   54.77
  -6   2 -23  534.74   58.56
   2   4 -23  421.76   47.01
  -2  -4  23  522.97   69.99
  -4   6  23  579.71   64.98
  -2  -4  26   59.36   25.28
  -6   2 -26   57.30   20.12
   2   4 -26   12.13    7.60
   4  -6 -26   30.50   17.99
  -4   6  26   49.77   21.98
   6  -2  29  359.41   50.67
  -4   6  29  370.56   52.37
   4  -6 -29  422.26   52.51
  -6   2 -29  307.97   43.55
  -2  -4  29  371.44   60.38
   2   4 -29  311.66   44.88
  -2  -4  32   38.92   24.16
  -6   2 -32   10.04   10.72
   6  -2  32   19.78   18.76
  -4   6  32   -3.02   11.47
  -4   6  32   35.61   21.89
   2   4 -32   24.83   12.30
   4  -6 -32   10.68   14.13
  -4   6  35  555.53   73.60
   2   4 -35  438.35   64.51
  -6   2 -35  422.74   50.07
  -2  -4  35  389.89   64.80
   2   4 -35  388.95   53.71
  -4   6  35  533.68   69.11
   6  -2  35  404.22   56.36
   4  -6 -35  487.34   61.71
   2   4 -38  -25.18   18.71
  -4   6  38   -0.08   19.90
   4  -6 -38  -22.92   15.31
   6  -2  38   15.41   12.60
  -4   6  38  -17.04   15.97
  -6   2 -38   30.02   15.71
  -2  -4  38   28.16   18.13
  -6   2 -41  102.72   24.93
  -4   6  41  177.15   44.62
   6  -2  41  134.35   34.57
   4  -6 -41  167.92   39.20
   2   4 -41  117.40   29.82
  -4   6  41  165.15   41.12
  -4   6  41  148.62   29.04
  -2  -4  41  131.18   38.34
  -4   6  44  634.54   83.58
  -4   6  44  590.27   60.68
  -6   2 -44  523.55   55.56
   6  -2  44  536.50   69.50
   4  -6 -44  637.14   76.92
  -2  -4  44  544.03   80.19
   2   4 -44  567.38   74.26
   2   4 -47  437.85   66.34
  -6   2 -47  458.62   52.27
  -2  -4  47  464.17   73.84
  -4   6  47  579.85   61.69
  -4   6  47  500.43   80.58
   6  -2  47  483.28   68.89
  -6   2 -50   38.10   16.73
  -4   6  50   78.12   31.92
  -2  -4  50   35.19   23.86
   6  -2  50    0.78   10.71
  -4   6  50   56.52   22.04
   2   4 -50   21.08   13.18
  -2  -4  53  153.86   41.92
  -6   2 -53  125.21   26.41
  -4   6  53  148.05   32.92
  -4   6  53  153.35   48.08
   6  -2  53  161.03   41.74
  -6   2 -53  158.71   32.19
   2   4 -53  120.71   37.45
   4  -6 -56  359.86   73.25
  -4   6  56  262.17   62.10
   6  -2  56  187.97   45.82
   2   4 -56  205.77   50.62
  -6   2 -56  202.57   35.81
  -4   6  56  234.29   38.74
  -6   2 -56  202.95   35.09
  -2  -4  56  213.71   56.36
   4  -6 -59   46.50   29.67
  -2  -4  59    5.47   15.50
  -4   6  59   15.02   24.25
  -6   2 -59   23.95   14.35
  -4   6  59   20.26   15.76
  -6   2 -59   57.62   20.42
   2   4 -59  -11.79   24.90
   6  -2  59    6.25   16.39
  -4   6  62   75.05   36.66
  -4   6  62   87.43   25.37
  -6   2 -62   71.64   20.83
   2   4 -62   57.38   27.50
  -6   2 -62   55.08   20.48
   6  -2  62   63.67   33.01
   4  -6 -62  115.25   47.35
  -2  -4  62   42.79   21.54
  -4   6  65  504.68   91.27
  -6   2 -65  635.96   68.16
  -4   6  65  519.55   55.75
   6  -2  65  518.50   82.76
   2   4 -65  440.39   81.02
   4  -6 -65  633.54  101.51
  -6   2 -65  482.35   51.38
  -2  -4  65  494.55   81.89
  -6   2 -68   14.22    9.24
  -2  -4  68   -9.05   23.93
  -4   6  68   45.67   35.29
  -6   2 -68   26.49   13.79
   2   4 -68   -9.53   20.90
  -4   6  68   19.64   11.89
   4  -6 -71  106.59   46.25
  -4   6  71   90.62   42.27
  -4   6  71  155.79   28.68
  -6   2 -71  115.80   24.46
   2   4 -71   81.80   37.71
  -2  -4  71   65.07   35.04
  -4   6  74   27.15   30.04
   2   4 -74   13.73   22.89
  -6   2 -74    2.57    8.53
  -2  -4  74   19.08   20.81
   2   4 -77  -12.46   28.18
  -4   6  77  -28.49   34.07
  -2  -4  77    8.36   22.02
  -4   6  80  -12.78   32.51
   4  -6 -80   61.24   42.34
  -2  -4  80    6.26   20.08
   2   4 -80    1.64   18.14
   4  -6 -83  474.07   99.01
  -2  -4  83  402.43   83.87
  -4   6  83  376.45   88.12
   2   4 -83  356.64   84.57
  -4   6  86   26.53   25.82
  -2  -4  86    3.86   23.59
   2   4 -86  -12.66   21.62
   4  -6 -89   39.57   36.07
  -4   6  89   40.73   31.17
   2   4 -89  -49.56   47.30
  -2  -4  89  -64.84   48.25
   4  -6 -92  114.13   54.94
  -4   6  92  121.53   60.83
  -2  -4  92  121.76   48.57
   2   4 -92  129.90   59.30
   2   4 -95   45.40   37.86
  -4   6  95   49.95   28.48
   4  -6 -95  142.98   65.14
  -2  -4  95  122.20   52.92
   4  -6 -98   43.13   46.44
   2   4 -98  -26.84   34.08
  -4   6  98  -45.42   34.23
  -1  -5 -98  -22.96   41.50
  -6   1  98   40.47   39.22
   6  -1 -95   14.91   24.69
  -6   1  95   18.08   28.13
  -1  -5 -95   16.53   26.27
  -6   1  92   60.96   42.66
   6  -1 -92   82.08   47.40
  -1  -5 -92    4.08   31.53
   6  -1 -89  -41.11   32.15
  -1  -5 -89  -25.80   37.16
  -6   1  89   16.13   23.85
  -6   1  89   21.94   23.63
  -6   1  86   32.19   28.13
  -6   1  86   89.85   39.15
   6  -1 -86  145.72   55.18
  -1  -5 -86   32.96   35.50
  -6   1  83  189.97   64.35
  -6   1  83  285.23   70.21
  -1  -5 -83  147.42   45.50
   6  -1 -83  302.56   83.92
   6  -1 -80   57.11   41.54
  -6   1  80   44.31   39.48
  -6   1  80  -15.09   22.06
  -1  -5 -80  -38.96   29.03
  -6   1  77  -18.81   29.31
  -6   1  77   26.99   16.57
   6  -1 -77   16.83   33.52
  -1  -5 -77   15.15   22.18
   6  -1 -74    5.32   22.20
  -6   1  74  -30.95   29.46
  -6   1  74   37.10   28.22
   1   5  74   14.44   24.34
  -1  -5 -74   17.89   18.06
   6  -1 -71  464.91   93.60
  -6   1  71  513.14   85.79
  -1  -5 -71  400.14   74.89
  -6   1  71  537.85   93.46
   1   5  71  517.04   95.86
   6  -1 -68   42.80   38.31
  -1  -5 -68    1.67   19.42
   1   5  68    0.07   18.91
  -6   1  68   10.69   26.14
  -6   1  68   -0.70   16.99
  -6   1  65  255.19   62.80
  -6   1  65  356.05   70.94
  -1  -5 -65  311.00   62.70
   1   5  65  395.33   78.82
   6  -1 -65  384.88   81.15
   6  -1 -62  261.19   64.04
  -6   1  62  188.92   52.59
  -1  -5 -62  241.24   56.22
  -5   6 -62  164.68   36.34
   1   5  62  176.79   53.41
  -6   1  62  230.83   56.14
   6  -1 -59  241.92   62.61
  -6   1  59  172.07   52.45
  -6   1  59  225.68   56.99
  -5   6 -59  118.89   30.92
   1   5  59  116.41   41.41
  -1  -5 -59  122.77   39.82
  -1  -5 -56   74.46   26.30
  -6   1  56   80.90   31.40
  -5   6 -56   72.84   22.57
   1   5  56   80.69   34.86
  -6   1  56   44.39   24.13
   6  -1 -56  137.95   45.85
   6  -1 -53   35.73   31.32
  -6   1  53   10.67   17.30
  -6   1  53    7.79   17.62
  -5   6 -53    0.04    9.17
   1   5  53  -22.06   22.88
  -1  -5 -53   -3.95   21.40
   6  -1 -50   76.71   37.06
  -6   1  50   52.94   28.14
  -6   1  50   18.59   21.60
  -5   6 -50   33.15   15.10
   1   5  50   31.90   19.68
  -1  -5 -50   -8.88   23.17
   1   5  47   17.89   19.56
  -5   6 -47   -3.78    7.12
   1   5  47   22.97    6.63
  -6   1  47   44.03   27.66
  -1  -5 -47   12.67   15.37
   6  -1 -44  304.60   63.70
   1   5  44  216.02   49.94
  -5   6 -44  234.54   34.57
  -1  -5 -44  206.59   40.07
   1   5  44  177.40   20.57
  -5   6 -44  194.63   43.24
  -6   1  44  217.01   48.61
   6  -1 -41   46.26   28.56
  -5   6 -41   -0.08   13.90
   1   5  41    9.81    6.09
  -5   6 -41    0.94    5.46
  -6   1  41  -28.10   24.17
   1   5  41   41.73   20.35
  -1  -5 -41   14.96   12.27
   1   5  38  131.13   38.69
  -1  -5 -38  172.42   43.98
  -5   6 -38  165.02   26.02
  -6   1  38   97.53   31.60
  -1  -5 -38  156.04   31.07
  -5   6 -38  153.28   37.36
   1   5  38  149.48   22.45
  -6   1  38  192.48   44.01
  -6   1  35  631.90   81.23
   1   5  35  573.00   46.83
   1   5  35  602.39   78.04
   6  -1 -35  637.10   80.47
  -5   6 -35  652.69   76.89
  -5   6 -35  522.67   42.52
  -1  -5 -35  548.63   57.88
  -6   1  35  586.20   80.87
  -1  -5 -35  646.76   82.51
  -6   1  32   38.20   24.71
  -5   6 -32   42.15   12.21
  -5   6 -32   22.97   10.92
   1   5  32   40.51   13.41
  -1  -5 -32   38.06   14.53
  -1  -5 -32   44.42   25.61
  -6   1  32   42.80   21.89
  -1  -5 -32   26.11   12.74
   6  -1 -32   60.11   25.52
  -1  -5 -29  136.27   24.28
   1   5  29  165.79   26.68
  -1  -5 -29  197.41   29.62
  -6   1  29  203.41   43.52
  -1  -5 -29  180.50   41.39
  -5   6 -29  135.19   32.49
  -5   6 -29  142.23   18.63
   6  -1 -29  173.14   39.27
  -6   1  29  105.71   31.74
  -1  -5 -26   12.45    9.40
  -1  -5 -26   14.12    9.62
  -5   6 -26   10.23    9.72
  -1  -5 -26    7.85   11.53
   1   5  26   -0.92    5.65
  -6   1  26   11.15   18.23
   6  -1 -26   13.26   15.65
   1   5  23  496.10   49.30
  -5   6 -23  511.68   64.22
  -1  -5 -23  494.19   50.68
  -1  -5 -23  523.71   62.60
  -6   1  23  489.46   66.28
  -6   1  23  525.32   67.90
  -1  -5 -20  269.73   39.63
   1   5  20  243.32   35.90
  -1  -5 -20  259.22   42.44
  -5   6 -20  313.83   49.85
  -6   1  20  291.76   50.42
  -6   1  20  231.89   44.82
  -1  -5 -17  318.98   45.39
   1   5  17  309.65   41.27
  -6   1  17  364.82   56.31
  -1  -5 -17  358.81   45.73
  -6   1  17  292.19   49.11
  -6   1  14  662.43   70.45
  -1  -5 -14  727.74   64.91
  -1  -5 -14  742.90   66.93
   1   5  14  747.67   64.30
  -6   1  14  800.70   81.28
  -1  -5 -11  134.16   27.66
  -1  -5 -11  156.54   32.17
  -6   1  11  170.79   38.47
   1   5  11  165.15   31.71
  -6   1  11  117.23   30.37
  -1  -5  -8  730.91   68.68
  -1  -5  -8  757.00   59.94
  -6   1   8  724.08   75.41
   1   5   8  733.06   67.05
   1   5   5   40.70   17.24
  -6   1   5   24.18   15.89
  -1  -5  -5   28.73   17.06
   1   5   2  312.34   44.84
  -1  -5  -2  291.97   45.60
  -6   1   2  321.68   49.42
  -6   1  -1  325.31   50.56
   1   5  -1  253.57   42.62
  -1  -5   1  317.17   48.44
  -6   1  -4 1766.39  112.90
  -1  -5   4 1742.02  114.90
   6  -1   7  101.20   28.15
  -6   1  -7  115.47   29.87
   5  -6  -7   76.05   13.83
  -1  -5   7  129.40   32.10
  -6   1 -10  363.48   51.18
  -1  -5  10  328.07   52.40
   5  -6 -10  322.77   32.14
  -6   1 -13  558.37   61.40
  -1  -5  13  630.82   73.92
   5  -6 -13  647.57   49.22
  -1  -5  16 1055.68   96.91
  -6   1 -16  988.70   80.41
   5  -6 -16 1079.38   68.47
  -1  -5  19   58.35   27.07
   5  -6 -19   36.59   16.81
  -6   1 -19   73.56   26.02
  -6   1 -22   35.83   17.59
  -5   6  22   21.91   17.05
   5  -6 -22    7.89    8.75
  -1  -5  22   18.33   13.36
  -6   1 -25  564.66   59.99
  -1  -5  25  640.76   78.93
   5  -6 -25  637.06   61.61
  -5   6  25  669.98   75.20
  -5   6  28   78.48   26.14
   5  -6 -28   52.59   19.40
  -6   1 -28   65.08   20.40
  -1  -5  28   52.79   24.41
  -6   1 -31  211.94   35.95
   1   5 -31  239.37   47.92
   5  -6 -31  261.58   42.37
   6  -1  31  188.49   42.89
  -1  -5  31  289.57   53.97
  -5   6  31  228.54   46.14
   5  -6 -34   33.23   17.48
  -6   1 -34    9.94    9.81
  -1  -5  34    5.97    9.77
  -5   6  34   80.20   29.39
   6  -1  34   53.85   26.53
  -5   6  34   52.33   26.96
   6  -1  37   18.44   17.62
  -6   1 -37   19.62   12.83
  -5   6  37   17.58   10.69
   5  -6 -37   35.59   18.13
  -1  -5  37   -1.73   15.95
   6  -1  40  325.99   56.56
  -5   6  40  357.01   50.77
  -5   6  40  351.92   59.69
  -6   1 -40  324.29   43.37
   5  -6 -40  383.27   56.91
  -1  -5  40  318.08   59.17
   5  -6 -43  485.22   66.99
  -5   6  43  517.68   76.20
  -6   1 -43  413.17   48.77
  -1  -5  43  472.66   75.25
   6  -1  43  485.04   71.68
  -5   6  43  582.98   67.22
  -6   1 -46    3.27    6.79
  -5   6  46  -37.62   25.39
   6  -1  46   -4.78   17.75
  -1  -5  46  -27.81   27.09
  -5   6  46    2.35   12.32
  -5   6  49    1.88    8.98
   6  -1  49   14.59   14.53
  -6   1 -49    5.41   11.18
  -5   6  49   16.45   19.76
  -1  -5  49   25.82   22.40
  -5   6  52  605.06   89.97
  -5   6  52  627.33   69.41
  -6   1 -52  589.34   56.56
   6  -1  52  512.66   77.19
  -1  -5  52  634.22   89.90
   6  -1  55  -28.18   25.34
  -5   6  55  -16.82   19.87
  -1  -5  55    1.55   14.37
  -5   6  55   -2.89   14.59
  -6   1 -55   -8.43   12.56
  -5   6  58  106.29   27.19
  -6   1 -58   74.07   19.71
  -5   6  58   87.72   36.85
  -1  -5  58  127.62   46.13
   6  -1  58   94.32   37.09
  -6   1 -58   77.37   19.88
   6  -1  61  111.12   38.69
  -5   6  61  120.90   43.86
  -6   1 -61  141.58   28.04
  -5   6  61  142.94   34.06
  -6   1 -61  148.88   27.05
  -1  -5  61  195.56   53.77
  -5   6  64   -0.17   15.34
   6  -1  64   42.37   27.22
  -5   6  64  -27.14   16.44
  -6   1 -64   19.22   13.82
  -6   1 -64   16.35   10.13
  -1  -5  64   32.41   23.34
  -5   6  67   59.56   22.12
   5  -6 -67  114.74   50.49
  -6   1 -67   50.31   14.78
   6  -1  67   13.80   12.47
  -1  -5  67   59.61   31.93
  -5   6  67   38.94   29.54
  -5   6  70   11.07   25.27
  -1  -5  70    9.29   17.78
  -6   1 -70    3.38    7.12
   6  -1  70   14.00   19.80
  -5   6  70    5.33   10.45
   5  -6 -73   55.08   37.24
  -5   6  73   26.62   20.64
   6  -1  73   10.42   22.37
  -1  -5  73   14.78   22.58
  -5   6  73   42.44   17.36
   1   5 -76    1.72   17.96
  -1  -5  76   -0.70   22.96
  -5   6  76   -7.58   27.74
  -5   6  79  542.87  104.67
  -1  -5  79  474.89   90.75
   1   5 -79  552.67  101.83
   5  -6 -79  661.47  116.52
   5  -6 -82   46.09   41.82
  -5   6  82   -7.22   26.67
  -1  -5  82   15.23   16.46
   1   5 -82  -39.85   37.01
  -1  -5  85  -17.81   17.27
  -5   6  85  -27.17   29.66
   1   5 -85  -14.80   22.40
   5  -6 -88  213.05   73.23
  -5   6  88   41.16   41.00
   1   5 -88  147.78   64.52
  -1  -5  88   40.83   33.88
   5  -6 -91  271.16   86.23
  -5   6  91  230.24   74.66
  -1  -5  91   97.97   49.74
   1   5 -91  185.07   66.23
  -5   6  94   13.73   25.26
   1   5 -94   28.61   29.21
  -1  -5  94  -13.27   27.43
  -5   6  97   -8.89   19.87
   1   5 -97   43.09   46.93
  -6   0  96   59.42   44.13
   6   0 -96  101.43   49.74
   0  -6 -96   15.89   39.84
   0  -6 -93  -55.93   30.98
   6   0 -93  -27.00   32.53
  -6   0  93   -8.41   32.40
  -6   0  93  -30.88   23.35
  -6   0  90   69.45   36.62
  -6   0  90   32.09   23.12
   6   0 -90   -8.78   25.41
   0  -6 -90   15.76   19.83
   0  -6 -87  209.77   62.20
  -6   0  87  226.12   62.90
  -6   0  87  259.15   72.51
   6   0 -87  234.50   74.31
   0  -6 -84    9.49   26.78
   6   0 -84  143.80   63.75
  -6   0  84   68.18   43.83
  -6   0  84   69.96   40.44
   6   0 -81  -28.08   29.69
  -6   0  81   28.30   19.96
  -6   0  81   -0.52   18.23
   0  -6 -81  -57.39   41.66
   6   0 -78   23.76   23.93
  -6   0  78  -21.11   21.50
  -6   0  78   11.04   17.03
   0  -6 -78   13.45   23.40
   6   0 -75  425.74   88.92
  -6   0  75  428.99   86.33
  -6   0  75  383.51   81.94
   0  -6 -75  392.90   79.77
  -6   0  72   89.75   47.04
  -6   0  72   56.17   39.86
   6   0 -72  118.95   50.89
   0  -6 -72   27.13   28.50
   0   6  72   44.41   28.90
   0   6  69  156.74   50.92
   6   0 -69  104.64   44.99
  -6   0  69  152.96   48.76
  -6   0  69  123.28   45.69
   0  -6 -69  113.19   42.28
   0  -6 -66  248.30   57.45
  -6   0  66  326.07   69.56
  -6   0  66  310.92   70.05
   0   6  66  290.41   67.84
   6   0 -66  275.91   69.42
   0  -6 -63   69.14   27.65
   6   0 -63  135.52   52.37
  -6   0  63   98.20   41.39
  -6   6 -63  134.08   34.86
  -6   0  63  174.20   52.37
   0   6  63  108.27   46.10
   0  -6 -60   -7.05   24.19
  -6   0  60   15.66   12.95
  -6   6 -60   33.72   17.56
  -6   0  60  -12.85   25.74
   0   6  60   23.88   23.66
   6   0 -60   18.31   22.18
   0  -6 -57   -4.43   19.31
   6   0 -57   -8.88   15.10
   0   6  57  -32.58   33.58
  -6   6 -57   47.90   20.18
  -6   0  57   22.68   21.95
  -6   0  57  -10.65   16.34
   0   6  57  -18.19   27.15
   0  -6 -54   -8.63   20.59
  -6   6 -54   29.91   16.58
   0   6  54   22.36   14.48
  -6   0  54   60.40   29.28
   6   0 -54   22.64   21.33
  -6   0  54    3.12   22.14
   0   6  54   34.48   22.80
   0  -6 -51   56.52   24.07
   6   0 -51   37.23   32.44
   0   6  51   -7.83   17.84
  -6   0  51   34.52   26.68
  -6   0  51   16.01   19.44
   0   6  51    4.95    4.07
   0   6  51    0.45   13.71
   6   0 -48  283.32   61.01
   0   6  48  181.54   47.71
  -6   0  48  244.34   52.00
   0  -6 -48  211.37   44.98
  -6   0  48  246.32   56.84
   0   6  48  267.07   58.29
   0   6  48  176.10   22.03
   0   6  45   15.75   11.10
  -6   0  45   20.47   20.49
   0   6  45   -3.06    4.53
   0   6  45  -12.75   16.84
   0  -6 -45   28.95   19.76
   6   0 -45   21.40   22.63
   0  -6 -42  132.99   32.61
   0   6  42   97.88   30.63
   6   0 -42  190.76   49.91
   0   6  42  115.10   20.79
   0   6  42  111.60   35.93
  -6   0  42  136.71   37.71
   0   6  39  436.33   43.33
   0   6  39  503.40   73.72
   0   6  39  503.01   74.25
  -6   0  39  449.88   72.68
  -6   6 -39  427.94   64.64
   0  -6 -39  458.31   58.07
   6   0 -39  484.51   73.93
  -6   6 -36  193.38   41.28
   0   6  36  184.54   29.40
   0   6  36  124.65   35.78
   0   6  36  197.20   46.83
  -6   0  36  171.91   42.76
  -6   0  36  176.03   45.21
   0   6  33    3.02   10.37
   0   6  33   22.02   17.76
   0   6  33    5.46    7.07
  -6   6 -33   21.06   17.47
  -6   0  33    5.67   13.25
  -6   0  33   11.19   11.67
   0   6  30   12.60    8.65
   0   6  30   44.14   22.11
   0   6  30   26.16   18.86
  -6   0  30   34.34   17.49
  -6   6 -30   17.57   13.78
  -6   0  30   62.73   24.14
   0   6  27  390.74   57.63
   6   0 -27  389.11   60.45
  -6   0  27  345.17   58.45
   0   6  27  325.74   54.07
  -6   0  27  395.89   65.17
  -6   6 -27  409.66   58.46
   0   6  27  419.73   47.47
   0   6  24   36.55   23.38
   0   6  24   23.56   13.24
   0  -6 -24    7.70   11.75
   0   6  24    2.03    7.55
  -6   0  24   -1.41   14.95
  -6   0  24   18.37   22.65
   0   6  21  502.24   61.11
   0  -6 -21  413.81   50.10
  -6   0  21  488.52   69.03
   0   6  21  450.33   60.07
  -6   0  21  401.09   59.64
   0   6  21  472.64   53.11
  -6   0  18   65.15   27.39
   0  -6 -18   78.87   23.19
   0   6  18   93.61   25.95
   0   6  18   89.78   25.29
  -6   0  18   26.02   16.59
  -6   0  15   13.16   12.17
   0   6  15   15.11   12.13
   0   6  15    3.63    6.48
   0  -6 -15   33.43   15.58
   0   6  15  -11.93    9.04
  -6   0  15   28.29   17.08
   0   6  12  312.78   41.55
  -6   0  12  259.38   48.29
   0  -6 -12  344.63   48.24
  -6   0  12  281.80   45.83
   0   6  12  267.85   25.89
   0   6  12  275.56   42.85
   0   6   9  240.83   33.77
   0   6   9  233.38   39.31
   0   6   9  189.10   20.43
  -6   0   9  224.86   43.13
   0  -6  -9  207.40   37.64
  -6   0   9  222.64   39.25
   0   6   6    6.19    8.27
   0   6   6   30.41   13.94
  -6   0   6    1.99   15.36
   0   6   6    1.16    4.15
   0  -6  -6    1.10    8.43
   0   6   3   13.37    9.06
   0   6   3   46.41   20.52
   0  -6  -3   69.49   28.21
   0   6   0 2970.83   96.11
   0  -6   0 3045.29  151.41
   0   6   0 3178.49  153.27
  -6   0   0 2991.78  153.32
   0   6  -3   25.69    9.79
   6   0   3   15.22   16.13
  -6   0  -3   71.22   24.52
   6  -6  -3    3.54    3.78
   0  -6   3   93.89   35.59
   0  -6   6  129.88   31.96
   0   6  -6  105.19   14.23
  -6   0  -6  150.74   33.84
   6   0   6  133.09   31.36
   6  -6  -6  153.18   20.17
   6   0   9  264.18   46.85
  -6   0  -9  309.38   47.54
   0  -6   9  357.08   54.83
   6  -6  -9  358.72   33.44
   6   0  12  828.09   79.00
  -6   0 -12  797.99   75.86
   0  -6  12  810.55   82.89
   6  -6 -12  884.01   57.61
  -6   0 -15  206.16   40.37
   6   0  15  187.36   39.08
   6  -6 -15  173.17   27.58
   0  -6  15  224.51   45.22
  -6   0 -18   27.77   15.52
   6  -6 -18   12.48    9.22
   6   0  18   12.36    6.76
   0  -6  18   16.32   16.67
   0  -6  21  701.94   82.41
   6  -6 -21  628.81   58.87
  -6   0 -21  557.02   61.66
  -6   6  21  688.00   79.98
  -6   6  24   26.81   23.84
  -6   0 -24   60.90   20.70
   6  -6 -24   18.70   12.52
   0  -6  24   27.09   17.16
  -6   6  27  229.85   48.37
  -6   6  27  246.64   44.09
  -6   0 -27  239.32   39.50
   6  -6 -27  245.68   40.08
   0  -6  27  227.30   47.32
  -6   6  30   51.96   23.40
  -6   0 -30   57.64   20.14
   6  -6 -30   55.93   21.56
   0  -6  30   36.04   15.79
   0  -6  33  -15.86   16.29
  -6   6  33    8.09   13.67
  -6   0 -33   10.87   11.08
   6   0  33  -16.70   17.79
   6  -6 -33    4.32    8.71
   6   0  36  173.23   42.79
  -6   6  36  220.96   41.25
  -6   0 -36  185.48   34.41
   6  -6 -36  189.89   39.73
   0  -6  36  165.71   43.43
   0  -6  39  646.87   86.49
   6  -6 -39  683.13   77.40
   6   0  39  606.99   81.95
  -6   0 -39  566.67   59.70
  -6   6  39  782.51   82.33
  -6   0 -42  213.41   35.79
   6   0  42  215.24   50.58
   6  -6 -42  235.17   48.74
   0  -6  42  183.36   46.47
  -6   6  42  263.83   48.11
  -6   0 -45   49.41   18.16
   6   0  45   64.96   30.49
  -6   6  45   12.50   11.77
   0  -6  45   76.66   32.31
  -6   6  48  857.30   85.94
  -6   6  48  750.21   97.19
  -6   0 -48  715.32   61.57
   6   0  48  590.01   84.35
   0  -6  48  726.87   94.93
  -6   6  51  -12.93   11.22
  -6   0 -51   15.55   13.69
  -6   6  51  -12.78   15.03
   6   0  51   13.68   24.26
   0  -6  51    6.71   14.23
  -6   0 -54   52.57   18.04
   0  -6  54   52.01   29.45
   6   0  54   34.67   24.88
  -6   6  54   87.96   39.60
  -6   6  54   67.87   24.69
  -6   0 -57   10.85   10.12
  -6   6  57  -15.69   15.83
  -6   6  57   -7.25   18.69
   6   0  57   14.71   22.69
   0  -6  57   33.67   24.91
  -6   0 -60   35.69   13.40
   6   0  60   42.01   26.07
   0  -6  60   85.77   35.73
  -6   6  60   67.33   32.80
  -6   6  60   62.71   22.57
  -6   0 -60   62.93   16.76
  -6   0 -63   21.85   11.22
  -6   6  63  -17.91   27.87
  -6   6  63   44.98   22.36
   0  -6  63   39.42   25.06
  -6   0 -63   30.77   10.97
   6   0  63    6.54   14.58
  -6   0 -66   19.09    6.22
   0  -6  66   19.54   16.45
  -6   6  66   33.45   18.50
  -6   6  66   60.54   32.54
   6   0  66   37.85   26.02
  -6   6  69    2.64    9.22
  -6   6  69   14.01   19.54
   6   0  69    4.21   17.20
   0  -6  69  -18.62   15.40
  -6   6  72  -14.01   18.35
   0  -6  72   45.91   31.66
  -6   6  72  -10.90   23.98
   6   0  72   39.91   34.27
   6   0  75  415.55   85.56
  -6   6  75  554.27   72.93
  -6   6  75  341.68   81.88
   0  -6  75  569.73   96.23
  -6   6  78  -14.82   26.24
   0  -6  78  -21.70   29.14
   6   0  78   13.10   23.32
  -6   6  81  -34.70   37.80
   0  -6  81   -7.03   16.79
   6   0  81    7.63   15.50
   0  -6  84   31.93   31.93
  -6   6  84   51.03   33.60
  -6   6  87  376.90   94.84
   0  -6  87  221.26   67.36
   0   6 -90   15.02   22.03
  -6   6  90    0.95   25.88
   0  -6  90   45.29   29.02
   0  -6  93    2.66   25.56
  -6   6  93   26.22   36.81
   0   6 -93   39.94   34.50
  -6   6  96  107.60   55.73
   0  -6  96  124.99   49.98
   0   6 -96  185.37   72.70
   1  -7  95   12.41   24.40
   1  -7  92   56.08   32.80
  -7   6  92  122.70   58.79
  -7   6  89    6.71   26.29
   1  -7  89  -28.02   27.44
  -7   6  86   -5.12   23.62
   1  -7  86  -32.50   32.21
   6   1  86   43.15   36.98
   6   1  83  202.22   70.92
  -7   6  83  279.95   82.38
   1  -7  83  158.74   55.27
   6   1  80   29.08   14.93
   1  -7  80   61.28   43.88
  -7   6  80   41.44   32.80
   1  -7  77   -6.19   19.19
  -7   6  77   12.68   12.92
   6   1  77   11.89   22.40
  -7   6  77   17.20   16.33
  -7   6  74   91.19   41.46
   6   1  74  107.85   41.10
   1  -7  74  162.98   52.45
  -7   6  74  201.95   49.19
  -7   6  71  285.46   76.75
   1  -7  71  266.20   62.63
  -7   6  71  288.36   58.04
   6   1  71  272.87   71.63
  -7   6  68   -9.93   17.49
  -7   6  68    2.72   17.97
   6   1  68  -19.23   26.70
   1  -7  68   14.12   18.99
  -7   6  65    6.56   19.05
  -7   6  65   -7.74   18.12
   6   1  65  -22.14   24.69
   1  -7  65   -6.20   14.72
   6   1  62  132.60   47.18
  -6  -1 -62  104.48   17.57
   1  -7  62  178.61   53.46
  -7   6  62  138.45   48.01
  -7   6  62  191.17   46.94
   6   1  59    9.33   16.48
  -6  -1 -59   -5.19    4.84
  -1   7 -59  -15.09   13.89
  -7   6  59   -7.74   12.83
  -7   6  59  -21.96   17.18
   1  -7  59  -19.17   26.06
  -1   7 -56  119.49   29.43
  -7   6  56  194.13   55.00
  -6  -1 -56  136.62   24.95
   1  -7  56  191.04   54.96
  -7   6  56  173.63   42.39
   6   1  56  157.22   49.46
  -6  -1 -53    6.77    7.80
  -7   6  53   42.42   25.46
  -1   7 -53   28.02   15.95
   6   1  53   13.09   17.58
   1  -7  53   12.70   17.90
  -7   6  53    9.99   15.67
   6   1  50    3.91   14.78
  -1   7 -50   53.52   16.96
  -7   6  50   38.44   19.53
   1  -7  50   26.64   24.56
  -6  -1 -50   51.80   18.50
  -7   6  47   76.44   28.12
  -1   7 -47   48.28   16.81
  -6  -1 -47   79.71   22.64
   1  -7  47   28.26   19.48
  -1   7 -44  298.31   34.61
   6   1  44  333.03   65.23
  -6  -1 -44  461.06   53.18
  -7   6  44  523.22   71.85
   1  -7  44  421.81   71.11
  -7   6  41   19.50   16.53
  -1   7 -41   14.88    7.85
   1  -7  41   28.63   22.84
   6   1  41    0.49   18.38
  -6  -1 -41   -1.92   11.19
  -1   7 -38   84.11   17.22
   1  -7  38  199.49   47.16
   7  -6 -38  217.40   49.91
  -6  -1 -38  216.94   38.62
  -7   6  38  272.34   54.96
   6   1  38  274.97   63.82
  -6  -1 -35 1109.38   87.44
   1  -7  35 1134.99  112.85
   6   1  35 1048.18  109.61
   7  -6 -35 1299.23  108.04
  -7   6  35 1197.66  108.80
   1  -7  32   38.91   21.48
  -1   7 -32    3.25    3.82
  -7   6  32   38.53   21.15
  -6  -1 -32    9.28   10.21
   1  -7  29   56.20   26.05
  -1   7 -29   27.04    6.99
  -7   6  29   55.34   23.82
  -6  -1 -29  108.51   29.83
  -1   7 -26    7.51    4.49
   1  -7  26   27.56   21.31
   6   1  26   20.43    9.67
  -7   6  23  228.74   45.99
   1  -7  23  210.52   46.19
   6   1  23  165.87   33.71
  -6  -1 -23  262.10   44.71
   1  -7  20  325.83   57.82
  -6  -1 -20  339.07   52.71
   6   1  20  296.56   47.21
  -7   6  20  316.64   53.65
   6   1  17  512.00   63.11
   1  -7  17  528.82   72.74
  -6  -1 -17  565.79   69.07
  -6  -1 -14   25.56   19.60
   1  -7  14   25.02   14.85
  -1   7 -14   15.14    6.81
   6   1  14    2.57   15.56
  -6  -1 -11   93.17   31.65
  -1   7 -11   19.98    8.95
   6   1  11   37.29   23.99
   1  -7  11   74.19   25.21
  -1   7  -8 1142.26   58.41
  -6  -1  -8 1297.40  104.69
   6   1   8 1357.15  107.99
   1  -7   8 1209.80  103.25
  -1   7  -5  742.93   49.20
  -1   7  -5  838.80   86.40
   1  -7   5  722.62   79.99
   6   1   5  789.43   83.88
  -6  -1  -5  792.08   82.77
  -1   7  -2   13.82   11.65
  -1   7  -2    8.03    5.70
   1  -7   2   -2.46    8.38
   6   1   2   14.05   15.67
  -6  -1  -2   15.52   15.88
  -1   7   1  228.84   45.66
  -1   7   1  262.29   34.40
   6   1  -1  240.17   47.83
   1  -7  -1  265.89   47.33
  -6  -1   1  270.75   50.41
  -1   7   4 1853.18   93.94
  -6  -1   4 1633.42   99.10
  -6  -1   4 1880.87  132.00
   1  -7  -4 1763.04  119.28
  -1   7   4 1956.67  126.79
   6   1  -4 1963.75  130.57
  -6  -1   7   94.14   26.29
  -1   7   7   95.79   27.33
  -1   7   7   43.06   14.48
   1  -7  -7   65.67   23.23
  -1   7  10   30.70   10.29
  -1   7  10   42.57   15.51
  -1   7  10   47.79   17.65
   1  -7 -10   21.75   15.34
   7  -6  10    1.08    2.65
  -6  -1  10   24.96   17.30
  -6  -1  10   21.81   11.63
  -1   7  13  702.48   66.76
  -6  -1  13  752.86   87.42
   1  -7 -13  684.63   71.51
  -6  -1  13  689.28   69.72
  -1   7  13  600.92   46.43
  -1   7  13  700.83   72.65
  -1   7  16   41.83   18.00
  -6  -1  16   -0.03   13.77
  -1   7  16   32.06   13.47
   1  -7 -16   40.37   18.81
  -6  -1  16   59.29   28.54
  -1   7  16    6.60    7.79
  -1   7  16   -0.45    7.95
  -1   7  19   -6.19   15.49
  -1   7  19   -3.89    8.64
  -1   7  19   -4.22   13.25
  -6  -1  19    8.27    9.27
  -1   7  19  -20.26   14.91
  -6  -1  19   12.00   23.08
  -1   7  22   20.50    8.61
  -6  -1  22   -5.23   15.65
  -1   7  22   -0.39    7.86
  -1   7  22    0.96   10.77
  -1   7  22    1.58   10.35
  -1   7  25   59.16   23.94
  -6  -1  25   -0.49   10.55
  -1   7  25   70.56   23.93
  -6  -1  25   35.74   16.97
  -1   7  25   74.29   22.09
  -1   7  25   49.02   14.56
  -6  -1  28   26.37   21.49
  -1   7  28   20.88   16.91
  -6  -1  28  -11.46   21.01
  -1   7  28   19.90   20.86
  -1   7  28   18.84   15.54
  -1   7  31  561.31   73.66
  -1   7  31  537.66   57.16
  -6  -1  31  568.48   81.05
  -1   7  31  556.17   73.08
  -1   7  34    1.50    9.97
  -1   7  34  -15.81   16.90
  -1   7  34   15.16   14.93
  -6  -1  34    8.46   11.68
  -1   7  37   24.23   19.54
  -1   7  37    6.09   10.11
  -6  -1  37   19.17   12.83
  -1   7  37    3.16    9.76
  -1   7  40  700.57   89.31
  -6  -1  40  734.10   98.32
  -1   7  40  636.83   57.98
  -1   7  40  687.52   85.94
   6   1 -40  699.30   86.48
   6   1 -43  127.86   41.75
  -1   7  43   97.66   24.45
  -1   7  43  196.29   53.39
  -6  -1  43  137.33   45.31
  -1   7  43  123.27   39.67
   6   1 -46   60.29   31.75
  -1   7  46   -0.48   12.25
  -1   7  46   39.10   24.15
  -6  -1  46   61.23   27.36
  -6  -1  46   -6.24   20.10
  -1   7  46   40.27   22.44
   6   1 -49   66.83   34.18
  -1   7  49   19.55   26.03
  -1   7  49  -11.46    8.55
  -6  -1  49   55.59   28.43
  -6  -1  49   17.34   23.06
  -1   7  49  -16.89   22.99
  -1   7  52  345.70   70.71
  -6  -1  52  317.90   59.51
  -1   7  52  289.85   32.39
  -1   7  52  301.88   59.35
   6   1 -52  362.96   69.40
  -6  -1  52  354.60   72.68
   1  -7 -52  406.03   69.51
   1  -7 -55  146.80   40.46
   6   1 -55  137.73   48.70
  -1   7  55   66.38   33.63
  -6  -1  55   60.13   29.27
  -1   7  55   72.29   15.30
  -6  -1  55   89.14   39.48
  -1   7  55  110.49   40.76
   6   1 -58  176.07   53.30
   1  -7 -58  245.38   55.12
  -1   7  58  181.27   52.61
  -6  -1  58   71.10   32.72
  -1   7  58  205.86   50.51
  -6  -1  58  216.89   56.87
  -1   7  58  107.35   16.22
   6   1 -61    8.89   14.62
  -1   7  61   15.50   16.84
  -6  -1  61   15.33   21.58
  -6  -1  61  -12.55   23.84
  -1   7  61   27.44   23.34
   1  -7 -61   40.21   30.05
   6   1 -64   45.09   34.14
   1  -7 -64   23.84   28.34
  -1   7  64    6.89   18.90
  -6  -1  64   13.87   21.56
  -6  -1  64  -16.90   19.27
  -1   7  64   36.66   30.24
   6   1 -67   90.95   45.21
  -1   7  67   37.97   29.65
  -6  -1  67   67.03   36.63
  -6  -1  67   94.70   42.20
  -1   7  67   63.18   35.02
   1  -7 -67   78.52   35.85
   6   1 -70  338.94   77.08
   1  -7 -70  283.67   68.46
  -1   7  70  371.03   82.37
  -6  -1  70  354.29   74.53
  -6  -1  70  333.32   76.58
   1  -7 -73   48.50   30.22
  -1   7  73   14.49   20.99
   6   1 -73   43.70   30.27
  -6  -1  73   28.48   28.07
  -6  -1  73   73.34   45.51
   6   1 -76   34.79   33.70
   1  -7 -76   18.89   26.53
  -6  -1  76   75.15   43.50
  -6  -1  76   80.85   47.99
   6   1 -79  311.26   78.84
   1  -7 -79  338.36   80.89
  -6  -1  79  268.25   77.14
  -6  -1  79  321.30   74.50
   6   1 -82    8.07   32.49
  -6  -1  82  -22.69   25.70
  -6  -1  82   29.21   29.38
   1  -7 -82   21.23   30.77
   6   1 -85   20.74   27.92
   1  -7 -85   12.72   23.96
  -6  -1  85   13.44   22.54
  -6  -1  85   -2.93   26.96
   6   1 -88  232.56   73.37
   1  -7 -88  110.80   47.91
  -6  -1  88   87.08   43.72
  -6  -1  88  138.82   50.70
  -6  -1  91   63.07   41.36
  -6  -1  91   45.47   28.87
   6   1 -91   64.27   38.63
   1  -7 -91   89.33   49.56
  -6  -1  94    8.27   18.98
   1  -7 -94   -9.87   34.49
   6   1 -94   30.94   33.04
  -5  -2 -96   94.18   52.56
  -7   5  96  148.93   69.44
  -7   5  93   49.29   38.45
  -5  -2 -93  -40.16   50.90
  -7   5  90  -30.06   41.60
  -7   5  87   76.37   49.71
   5   2  87  184.37   66.34
  -7   5  84   91.79   51.14
   5   2  84  207.69   66.80
  -7   5  81    9.43   27.25
   5   2  81   -9.26   22.30
   2  -7  81  -13.77   14.88
  -7   5  81   -9.20   19.76
  -7   5  78  -30.48   35.72
   5   2  78    0.56   21.12
   2  -7  78   19.63   27.61
  -7   5  78   23.05   19.02
  -7   5  75  294.01   77.90
  -7   5  75  385.34   72.90
   2  -7  75  281.91   63.89
   5   2  75  323.73   78.84
  -7   5  72   54.91   36.53
   2  -7  72   -1.16   21.02
  -7   5  72   38.27   19.72
   5   2  72   29.65   32.90
  -7   5  69   21.38   25.01
  -7   5  69   26.65   28.22
   5   2  69   -1.65   20.94
   2  -7  69   43.38   28.09
   5   2  66  223.61   63.67
  -7   5  66  219.11   61.21
   2  -7  66  274.23   62.56
  -7   5  66  364.06   66.09
  -7   5  63  -19.66   19.44
  -2   7 -63    5.49   10.81
  -7   5  63   -3.05   18.18
   2  -7  63   -4.39   13.69
   5   2  63    8.58   13.26
  -7   5  60   70.98   30.24
   5   2  60   35.13   23.96
  -2   7 -60   39.19   16.11
   2  -7  60   63.38   28.29
  -7   5  60   52.11   32.59
   5   2  57  -35.56   29.90
  -2   7 -57    2.60    9.80
  -7   5  57   -6.69   13.09
  -7   5  57   -9.46   18.94
   2  -7  57  -11.04   15.97
  -5  -2 -54   12.20    9.03
  -2   7 -54   -4.30   14.33
   5   2  54  -19.47   22.98
  -7   5  54    6.39   21.03
  -7   5  54   29.59   22.37
   2  -7  54    6.12   17.12
   2  -7  51   12.14   14.87
  -5  -2 -51   43.41   13.48
   5   2  51   17.55   19.64
  -7   5  51   25.78   24.41
  -2   7 -51   11.78   11.76
  -7   5  48  497.43   72.58
  -2   7 -48  427.44   52.73
   2  -7  48  471.43   74.59
   5   2  48  460.35   79.61
  -5  -2 -48  444.96   44.21
  -2   7 -45  -10.14   11.42
   2  -7  45  -23.57   22.90
  -7   5  45   41.36   23.50
  -5  -2 -45   20.69   12.97
   5   2  45    7.75   14.59
  -7   5  42  117.69   35.68
  -2   7 -42   99.21   24.45
   2  -7  42   94.04   31.02
  -5  -2 -42  120.11   25.51
   5   2  42   71.38   33.89
  -2   7 -39  538.54   52.58
   2  -7  39  542.03   78.47
   5   2  39  549.02   84.18
  -5  -2 -39  609.71   57.73
  -7   5  39  585.36   76.29
  -5  -2 -36  107.03   25.33
  -7   5  36  117.21   34.39
   5   2  36   84.31   32.12
   2  -7  36  107.72   33.79
  -7   5  33    6.63   11.23
   5   2  33  -13.15   16.55
   2  -7  33  -11.92   12.85
  -5  -2 -33   25.66   15.09
   5   2  33    0.83    8.30
  -5  -2 -30  100.96   27.66
   2  -7  30   83.75   32.92
  -7   5  30  127.93   39.01
   5   2  30  165.18   34.51
   5   2  27  736.75   68.85
  -5  -2 -27  818.00   73.41
   2  -7  27  821.45   89.54
  -7   5  27  843.44   89.86
  -5  -2 -24  289.99   45.16
   2  -7  24  318.75   56.15
   5   2  24  302.98   45.56
  -7   5  24  312.68   55.17
  -7   5  21 1013.33   97.27
  -5  -2 -21  986.38   82.49
   2  -7  21 1011.54   96.42
   5   2  21  966.12   81.28
  -7   5  21  959.70  101.26
  -7   5  18  145.38   37.53
   5   2  18  166.17   34.48
   2  -7  18  155.93   38.54
  -5  -2 -18  160.50   36.36
   5   2  15   50.53   20.15
  -7   5  15    8.83   15.14
   2  -7  15   22.99   17.31
  -5  -2 -15   31.33   18.62
   5   2  12  124.28   32.17
  -7   5  12  120.58   35.16
   2  -7  12  168.04   38.74
  -5  -2 -12  120.30   32.59
   5   2   9 1594.57  107.88
  -5  -2  -9 1507.98  107.68
  -7   5   9 1565.08  116.32
   2  -7   9 1435.24  110.51
  -5  -2  -6  131.98   34.66
   2  -7   6   99.18   29.88
   5   2   6  124.48   32.70
   2  -7   3   72.83   24.52
  -5  -2  -3   91.97   27.76
   5   2   3   53.57   20.98
   5   2   0 1720.33  116.64
  -5  -2   0 1631.03  117.20
  -2   7   0 1792.98  120.26
   2  -7   0 1644.24  113.21
  -5  -2   0 1354.78   75.74
  -5  -2   3  260.72   49.90
   2  -7  -3  222.71   41.62
  -2   7   3  207.58   40.94
  -5  -2   3  176.23   27.64
   5   2  -3  248.56   47.02
  -2   7   6   53.61   19.95
  -5  -2   6   35.37   17.62
  -2   7   6    6.94   12.10
  -5  -2   6   -4.10   14.27
  -2   7   9  772.35   68.10
  -5  -2   9  637.10   77.31
  -2   7   9  661.17   62.00
  -2   7   9  745.10   75.02
  -5  -2   9  682.50   58.97
  -2   7  12  307.38   46.17
  -5  -2  12  317.56   55.87
  -2   7  12  291.50   42.74
  -2   7  12  291.57   47.47
  -5  -2  12  278.28   40.06
  -2   7  15    6.59    9.65
  -2   7  15  -14.57   11.11
  -5  -2  15   -5.52   12.71
  -2   7  15    5.72    9.65
  -5  -2  15  -10.76    9.43
  -2   7  15   -9.49   16.63
  -2   7  18   59.08   18.79
  -5  -2  18   60.83   21.81
  -2   7  18   89.84   28.20
  -2   7  18   68.48   21.53
  -5  -2  18   88.38   36.31
  -2   7  18   60.51   20.49
   7  -5  18   51.94   13.55
  -2   7  21  308.72   49.26
  -2   7  21  300.30   46.36
  -2   7  21  303.18   45.83
  -2   7  21  226.92   35.07
  -5  -2  21  278.49   54.73
   7  -5  21  258.19   30.16
  -2   7  24   93.88   27.58
  -2   7  24  130.70   34.48
  -5  -2  24  104.90   36.46
   7  -5  24   81.07   18.48
  -2   7  24   94.67   25.76
  -2   7  24   97.05   22.22
  -2   7  27  366.92   58.31
  -5  -2  27  390.74   65.66
  -2   7  27  363.27   46.17
  -2   7  27  353.07   51.83
   7  -5  27  322.34   36.35
  -2   7  27  321.70   44.98
  -2   7  30   17.68   21.20
  -5  -2  30    9.41   17.10
   7  -5  30    3.53    7.79
   5   2 -30   37.41   20.44
  -2   7  30   13.42   15.23
  -2   7  30   -1.12    9.47
  -2   7  30   10.79    8.21
   5   2 -33   22.36   15.23
  -2   7  33   24.77   19.80
  -5  -2  33   13.64   12.33
  -2   7  33    0.83   11.16
   7  -5  33   12.69    9.55
  -2   7  33    7.71    7.16
  -2   7  33   -2.19   12.81
   5   2 -36  273.42   51.55
  -2   7  36  296.31   56.24
  -2   7  36  294.09   41.78
  -5  -2  36  250.25   56.51
  -2   7  36  249.05   43.48
   7  -5  36  306.05   40.14
  -2   7  36  251.91   48.64
   5   2 -39  288.74   53.96
  -2   7  39  433.00   70.37
  -5  -2  39  228.24   41.91
  -2   7  39  333.45   44.08
  -2   7  39  331.00   58.57
   7  -5  39  265.24   39.67
  -5  -2  39  291.83   62.08
   5   2 -42   -1.70   15.66
  -2   7  42   37.78   24.17
  -5  -2  42   28.35   16.08
  -5  -2  42   -9.66   21.29
  -7   5 -42    2.32   12.53
  -2   7  42    6.81   11.50
  -2   7  42  -11.22   14.03
   5   2 -45   16.29   19.92
  -2   7  45   18.88   20.22
  -5  -2  45   11.42   16.10
  -2   7  45   25.74   20.31
  -5  -2  45   10.70   14.73
  -7   5 -45   39.02   22.76
  -2   7  45   -2.99   11.26
  -5  -2  48  721.09   98.70
  -2   7  48  771.18  102.14
  -5  -2  48  658.70   77.11
  -7   5 -48  670.50   80.43
   5   2 -48  700.42   89.60
  -2   7  48  693.91   57.98
  -2   7  48  803.81   97.68
   5   2 -51   80.16   34.41
  -2   7  51   74.86   20.48
  -2   7  51  106.97   41.08
  -5  -2  51   67.19   26.81
  -5  -2  51   69.04   36.30
  -2   7  51   79.20   35.48
  -2   7  54  124.20   41.47
  -5  -2  54   66.71   28.19
  -5  -2  54   93.41   34.54
  -2   7  54   92.99   19.75
  -2   7  54  112.86   38.19
  -2   7  54   90.58   19.37
   5   2 -54  126.68   40.93
  -2   7  57   23.61   17.79
  -2   7  57   24.32   22.84
  -5  -2  57    7.03   12.65
  -5  -2  57  -11.32   19.46
   2  -7 -57   13.52   28.68
  -2   7  57    9.07   17.39
  -2   7  57    9.11    7.24
   5   2 -57   37.96   25.90
  -2   7  60   56.99   13.96
   2  -7 -60   73.72   30.91
  -2   7  60   81.67   39.62
  -5  -2  60  150.24   43.08
  -5  -2  60  145.76   51.32
   5   2 -60   89.88   40.18
  -2   7  63  125.40   48.31
  -5  -2  63   61.48   30.27
  -5  -2  63   94.27   47.04
  -2   7  63   45.59   10.61
   2  -7 -63   86.69   41.21
   5   2 -63   90.66   41.90
   2  -7 -66  485.58   84.21
  -2   7  66  372.83   78.09
  -5  -2  66  405.05   71.71
  -5  -2  66  480.51   88.20
   5   2 -66  384.12   77.54
  -5  -2  69  146.97   45.20
  -2   7  69   90.36   48.88
  -5  -2  69  121.65   46.31
   5   2 -69   70.34   39.75
   2  -7 -69  118.70   46.02
   2  -7 -72   42.27   39.30
  -2   7  72   47.36   23.98
  -5  -2  72   45.74   28.76
  -5  -2  72   38.58   35.12
   5   2 -72   39.25   34.59
  -5  -2  75  302.97   74.02
  -2   7  75  290.25   75.39
  -5  -2  75  299.40   67.24
   2  -7 -75  300.66   74.31
   5   2 -75  286.94   72.58
   2  -7 -78  112.66   47.19
  -5  -2  78   32.95   26.70
  -2   7  78   87.67   46.93
  -5  -2  78   93.28   40.73
   5   2 -78   98.73   45.59
   2  -7 -81   41.25   30.80
   5   2 -81   -9.85   31.63
  -5  -2  81   -3.33   23.76
  -5  -2  81   30.62   25.97
  -2   7  81   49.03   33.65
   2  -7 -84   79.06   44.62
  -5  -2  84  121.19   51.17
  -5  -2  84   91.64   38.59
  -2   7  84   45.09   33.26
   5   2 -84   45.17   29.33
  -5  -2  87  150.29   54.03
   2  -7 -87  156.54   56.80
  -2   7  87   87.17   54.42
   5   2 -87  131.21   54.13
   2  -7 -90    6.65   29.54
   5   2 -90  -47.01   38.11
  -5  -2  90   11.90   17.79
   2  -7 -93   32.17   34.51
  -5  -2  93  -59.40   45.32
   5   2 -93  -34.36   39.25
   5   2 -96  150.03   64.88
   2  -7 -96  104.25   46.50
  -5  -2  96   91.06   46.68
  -7   4  97   26.61   30.67
  -4  -3 -97  -56.13   47.59
  -7   4  94  -60.02   38.21
   7  -4 -94   58.93   47.84
  -4  -3 -94  -76.30   47.80
   7  -4 -91   57.17   42.61
  -7   4  91   44.94   41.07
  -4  -3 -91    2.25   30.97
  -7   4  88   89.45   52.11
  -4  -3 -88   34.44   23.48
   7  -4 -85   45.41   44.89
  -7   4  85   30.18   35.55
  -4  -3 -85  -31.89   46.32
  -7   4  85  -20.03   24.13
   4   3  85   -4.04   16.42
   7  -4 -82   72.06   50.65
  -7   4  82    8.46   16.03
  -7   4  82   22.23   21.87
  -4  -3 -82  -59.31   55.18
   4   3  82   50.23   33.39
  -7   4  79  173.93   61.24
   7  -4 -79  237.97   75.44
   4   3  79  280.32   74.82
  -4  -3 -79  153.70   61.08
  -7   4  79  221.41   57.23
  -7   4  76   23.40   33.88
  -7   4  76  -15.31   15.09
   4   3  76  -36.62   30.26
   4   3  73   54.05   34.91
  -7   4  73   14.59   16.01
  -7   4  73   32.28   14.89
  -7   4  70   64.94   39.36
  -7   4  70   32.00   20.07
   4   3  70   32.68   27.09
  -7   4  67   39.31   31.59
   4   3  67    3.30   14.53
  -7   4  67   42.44   28.82
  -7   4  64  134.29   42.28
  -7   4  64  209.23   48.89
   4   3  64  142.54   47.66
  -7   4  61   51.51   32.22
  -3   7 -61   75.51   29.18
   4   3  61   51.43   34.39
  -7   4  61   49.10   30.04
  -3   7 -58  136.68   35.37
  -7   4  58  194.11   53.45
   3  -7  58  205.36   54.83
  -7   4  58  210.41   49.25
   4   3  58  188.09   52.20
  -3   7 -55   -8.22   17.71
  -7   4  55   21.62   19.06
  -7   4  55  -25.92   24.33
   3  -7  55   -8.77   19.29
   4   3  55    7.21   14.56
  -7   4  52  319.68   61.15
  -3   7 -52  306.86   53.72
   3  -7  52  344.01   64.50
   4   3  52  200.35   54.01
  -3   7 -49   14.36   13.77
  -7   4  49   61.90   28.59
   3  -7  49   36.47   21.20
   4   3  49   23.48   17.79
  -4  -3 -49   33.89    9.48
  -7   4  46  -10.82   11.20
   3  -7  46   14.32   13.00
   4   3  46   24.59   20.06
  -4  -3 -46   28.29   10.68
  -4  -3 -43  204.00   29.25
   4   3  43  180.59   49.52
   3  -7  43  231.10   49.77
  -7   4  43  239.21   53.31
   4   3  40  247.22   53.66
  -7   4  40  318.38   57.18
   3  -7  40  322.21   57.19
  -4  -3 -40  312.77   37.95
   4   3  37   10.27   12.04
   4   3  37    7.18    6.11
   3  -7  37  -31.89   23.54
  -4  -3 -37   -6.47    8.13
  -7   4  37    9.57   17.48
   4   3  34   92.95   23.64
  -4  -3 -34   72.66   39.38
  -4  -3 -34   39.14   21.21
   3  -7  34   65.05   28.29
   4   3  34   38.21   28.40
  -7   4  34   55.06   23.81
  -4  -3 -31  657.78   87.71
   4   3  31  650.78   59.11
   3  -7  31  688.47   80.85
  -4  -3 -31  654.44   61.29
  -7   4  31  673.92   80.72
  -4  -3 -28   45.37   30.38
   4   3  28   50.54   18.87
  -7   4  28   68.53   27.77
  -4  -3 -28   51.15   20.51
   3  -7  28   87.05   31.20
  -4  -3 -25  575.36   59.31
   4   3  25  581.15   56.88
  -4  -3 -25  567.21   76.84
  -7   4  25  576.25   73.13
   3  -7  25  636.39   75.47
  -3   7 -25  643.23   78.44
  -7   4  25  558.36   77.04
  -7   4  22  184.80   46.68
  -4  -3 -22  175.43   41.50
  -4  -3 -22  192.68   36.29
   3  -7  22  209.95   44.09
   4   3  22  163.27   32.97
  -7   4  22  150.72   39.86
  -7   4  19  246.70   51.15
   4   3  19  185.49   34.06
  -7   4  19  183.65   41.10
  -4  -3 -19  198.88   36.90
  -4  -3 -16   54.71   22.95
   4   3  16   29.15   14.31
  -7   4  16   25.75   16.48
  -4  -3 -13  594.33   64.31
   4   3  13  648.47   65.31
  -7   4  13  629.94   76.36
  -7   4  10  321.90   53.03
  -4  -3 -10  391.66   52.59
   4   3  10  400.59   53.19
   4   3   7  210.61   37.90
  -4  -3  -7  183.59   36.53
  -7   4   7  155.22   35.25
  -4  -3  -4  549.10   64.76
  -7   4   4  516.22   65.95
   4   3   4  532.01   62.87
  -4  -3  -1  466.56   60.47
  -7   4   1  452.19   61.47
   4   3   1  464.01   58.37
  -4  -3  -1  277.33   23.80
  -7   4  -2   -1.77    7.72
   4   3  -2   15.45   13.37
  -3   7   2   -2.56    6.17
  -4  -3   2    8.60   14.04
  -3   7   5   76.35   17.40
  -3   7   5  124.37   33.84
  -7   4  -5   76.60   22.77
  -4  -3   5  116.70   32.53
  -4  -3   8  725.24   79.68
  -3   7   8  752.18   75.21
  -7   4  -8  703.36   75.71
  -3   7   8  765.39   59.23
  -3   7  11   -6.73   11.10
  -3   7  11    3.20    6.41
  -3   7  14   93.37   27.46
  -4  -3  14   79.07   27.68
  -3   7  14   49.73   17.00
  -3   7  17  611.91   66.63
  -3   7  17  615.51   58.97
  -4  -3  17  504.50   70.40
  -3   7  17  529.61   56.47
  -3   7  20   44.98   21.08
   4   3 -20   15.85   14.95
  -3   7  20   41.40   19.91
  -4  -3  20   19.18   18.14
  -3   7  20   19.02   20.53
  -3   7  20    8.32   11.41
   7  -4  23  490.71   50.42
  -4  -3  23  490.72   71.06
  -3   7  23  486.16   63.22
  -3   7  23  554.01   62.76
   4   3 -23  458.04   50.57
  -3   7  23  488.87   56.57
  -3   7  23  456.10   54.10
   4   3 -26   32.82   18.01
  -4  -3  26   50.81   25.51
  -3   7  26   64.58   27.80
   7  -4  26   47.33   17.75
  -3   7  26   47.83   19.13
  -3   7  26   50.58   20.39
  -3   7  26   32.31   12.20
   4   3 -29   98.11   24.99
  -4  -3  29   95.86   34.88
  -3   7  29   94.73   33.62
   7  -4  29  113.36   26.92
  -3   7  29   79.32   24.26
  -3   7  29  107.73   25.44
  -3   7  29  155.76   32.49
  -4  -3  32   34.43   22.68
  -3   7  32   36.12   24.80
  -3   7  32   14.30   12.69
  -4  -3  32   15.68   10.66
  -3   7  32   17.47   11.16
   7  -4  32    7.60    7.81
  -3   7  32  -14.67   17.50
   4   3 -32    5.10   11.84
  -4  -3  35  622.64   86.57
  -4  -3  35  532.37   52.73
  -3   7  35  611.54   80.01
   4   3 -35  550.11   67.17
  -3   7  35  674.81   65.88
   7  -4  35  556.11   59.82
  -3   7  35  689.90   76.97
  -3   7  35  567.31   69.61
   4   3 -38   29.44   17.69
  -4  -3  38   93.37   35.67
  -4  -3  38   72.36   22.08
  -3   7  38   45.69   21.83
  -3   7  38   84.66   27.55
  -3   7  38   73.94   25.45
  -3   7  38   87.54   23.83
   7  -4  38   70.51   22.73
  -3   7  41   28.64   22.19
  -3   7  41   14.84    9.38
  -4  -3  41    1.46   14.46
  -4  -3  41    6.61   11.28
  -3   7  41   45.69   24.13
   7  -4  41    9.39   12.65
  -3   7  41   -0.49   14.72
   4   3 -41  -10.99   17.19
  -4  -3  44  561.61   61.45
  -3   7  44  717.71   91.82
  -3   7  44  755.15   87.66
  -3   7  44  745.26   66.12
   7  -4  44  685.30   72.04
  -3   7  44  671.45   80.89
   4   3 -44  575.24   76.64
  -4  -3  44  730.47   97.94
  -4  -3  47   23.09   17.49
  -3   7  47   25.93   30.08
   7  -4  47    6.62   11.51
  -3   7  47    7.88   12.42
   4   3 -47  -34.40   28.58
  -3   7  50   30.23   16.77
  -4  -3  50   59.66   24.46
  -4  -3  50   60.18   34.42
  -7   4 -50   59.86   24.80
  -3   7  50   34.03   21.11
  -3   7  50   37.05   13.65
   7  -4  50   29.02   15.59
   4   3 -50  -16.13   23.08
  -4  -3  53   22.68   18.95
  -4  -3  53   29.04   27.24
  -3   7  53    2.22   23.28
  -3   7  53    9.29    6.84
  -7   4 -53  -11.58   20.31
   7  -4  53   11.78   10.30
   4   3 -53   15.46   19.69
  -3   7  53   10.60   10.47
  -4  -3  56  260.39   47.88
  -4  -3  56  300.40   69.27
  -3   7  56  339.46   40.87
  -3   7  56  398.21   78.32
  -3   7  56  348.40   42.43
  -7   4 -56  342.19   55.46
   4   3 -56  254.23   56.65
  -4  -3  59  107.97   49.55
  -4  -3  59   60.61   24.22
  -3   7  59   37.20   13.07
  -3   7  59   52.65   34.86
  -3   7  59   53.21   17.62
  -7   4 -59   12.83   13.05
   4   3 -59   20.85   15.72
   3  -7 -62  264.64   63.78
  -4  -3  62  155.37   48.55
  -4  -3  62  193.22   44.14
   4   3 -62  201.25   54.89
  -7   4 -62  194.13   45.49
  -3   7  62  167.61   27.50
  -3   7  62  181.85   54.64
  -4  -3  65  244.90   66.31
  -4  -3  65  191.58   47.13
  -3   7  65  219.75   60.49
   4   3 -65  172.12   51.93
  -3   7  65  184.57   27.07
  -7   4 -65  305.92   57.70
   3  -7 -65  269.19   65.90
  -4  -3  68   -8.23   27.39
   3  -7 -68   -4.34   19.13
  -4  -3  68  -36.55   26.20
  -3   7  68    2.68   17.83
   4   3 -68    2.43   18.14
   3  -7 -71  100.14   44.82
  -4  -3  71   68.26   37.05
  -3   7  71   77.07   38.95
   4   3 -71   36.45   23.26
  -4  -3  74   90.40   39.25
   3  -7 -74  184.82   64.00
  -3   7  74   84.14   45.09
   4   3 -74  117.15   43.91
   3  -7 -77   47.97   34.53
   4   3 -77    2.16   17.24
  -3   7  77   58.58   35.29
  -4  -3  77   -8.03   31.84
   3  -7 -80   54.79   39.33
  -3   7  80    4.95   22.02
   4   3 -80  -43.38   33.84
  -4  -3  80  -27.20   36.84
   3  -7 -83  259.50   74.73
  -3   7  83  260.05   75.06
   4   3 -83  164.05   57.81
  -4  -3  83  183.56   55.09
  -3   7  86    6.43   19.46
   4   3 -86  -20.65   28.81
  -4  -3  86   -8.88   23.12
   3  -7 -86   43.78   34.31
   3  -7 -89    4.34   19.66
  -3   7  89    5.50   24.96
  -4  -3  89   -2.75   27.04
   4   3 -89  -17.92   29.70
   3  -7 -92  150.94   63.81
  -3   7  92   95.01   44.40
  -4  -3  95   43.20   34.65
   3  -7 -95   17.82   27.04
   4   3 -95   56.03   41.31
   3  -7 -98   30.92   29.46
   4   3 -98    1.36   28.36
  -7   3  98  -17.69   19.49
  -3  -4 -98  -12.03   35.09
   7  -3 -95  102.96   54.64
  -7   3  95   89.83   43.35
  -3  -4 -95   24.24   25.66
   7  -3 -92  101.60   63.42
  -7   3  92   81.21   51.11
  -3  -4 -92   74.06   45.03
   7  -3 -89   46.06   44.48
  -7   3  89   51.47   34.80
  -3  -4 -89  -30.90   44.94
   7  -3 -86  132.36   57.58
  -7   3  86   14.56   31.35
  -7   3  86   53.25   30.34
  -3  -4 -86   62.18   35.30
   7  -3 -83  218.58   73.98
   3   4  83  186.81   63.06
  -7   3  83  220.36   69.65
  -7   3  83  152.03   49.02
  -3  -4 -83  112.02   48.62
   7  -3 -80   65.85   44.02
  -7   3  80   -5.36   25.84
  -7   3  80   15.22   26.93
   3   4  80   -5.86   20.60
  -3  -4 -80   -5.83   18.72
   7  -3 -77  116.25   51.92
   3   4  77   81.37   43.96
  -7   3  77   -5.70   21.03
  -7   3  77   62.69   31.73
  -3  -4 -77   19.99   24.56
  -7   3  74  -22.64   26.41
  -7   3  74    7.31   24.20
   3   4  74    9.76   24.54
  -3  -4 -74  -51.89   39.85
   7  -3 -71  323.97   83.96
  -7   3  71  109.15   46.75
  -7   3  71  238.71   57.76
   3   4  71  228.21   61.72
  -3  -4 -71  187.84   54.52
   7  -3 -68   57.16   32.75
  -7   3  68   38.05   28.19
  -7   3  68    5.70   21.30
  -3  -4 -68   28.22   21.84
   3   4  68  104.11   42.61
  -3  -4 -65  112.74   37.92
  -7   3  65  190.51   56.88
   3   4  65  127.61   45.91
  -7   3  65  148.87   42.76
  -7   3  62  120.10   46.49
   3   4  62  120.32   45.62
  -4   7 -62   91.99   28.79
  -3  -4 -62   76.22   31.66
  -7   3  62   75.60   31.03
  -7   3  59  178.31   53.98
  -4   7 -59  120.53   29.52
   3   4  59  104.77   42.08
  -3  -4 -59   75.14   30.33
  -7   3  59  137.13   42.18
  -7   3  56  429.14   79.10
  -7   3  56  541.90   81.49
   3   4  56  472.27   82.85
  -4   7 -56  422.48   54.12
  -3  -4 -56  382.39   65.45
  -4   7 -56  466.40   74.67
  -7   3  53   33.78   25.06
  -7   3  53  -30.00   16.68
   3   4  53    7.71   18.35
  -3  -4 -53  -11.37   14.32
  -4   7 -53    9.70   11.19
  -7   3  50   69.73   29.10
  -4   7 -50   59.47   19.46
  -3  -4 -50   37.75   18.80
   3   4  50   29.86   18.37
  -3  -4 -47   57.56   23.32
  -7   3  47   64.11   24.84
  -3  -4 -47   46.56   12.34
   3   4  47   41.81   26.03
  -4   7 -47   41.56   15.79
   3   4  44  257.17   27.18
  -7   3  44  396.19   66.04
  -3  -4 -44  308.50   32.31
   3   4  44  317.46   64.11
  -4   7 -44  344.41   41.56
  -3  -4 -44  312.43   48.49
  -3  -4 -41  117.18   25.84
  -4   7 -41  133.88   24.64
  -7   3  41  145.57   42.17
   3   4  41  137.31   21.34
   3   4  41  156.16   46.21
  -3  -4 -41  163.94   25.83
   3   4  38   84.50   32.97
   3   4  38   61.53   14.79
  -7   3  38   90.21   31.89
  -3  -4 -38   65.00   18.86
  -3  -4 -38   72.74   16.94
   3   4  35  494.22   46.26
  -3  -4 -35  438.26   72.92
   3   4  35  481.04   75.68
  -3  -4 -35  536.18   52.36
  -3  -4 -35  373.24   46.29
  -7   3  35  438.79   67.18
  -7   3  32    4.78   13.35
   3   4  32   55.30   16.72
   3   4  32   37.00   25.15
  -3  -4 -32   33.95   13.68
  -3  -4 -32   12.37   14.70
  -3  -4 -32   35.33   13.78
  -3  -4 -29  150.79   29.09
  -3  -4 -29  120.38   21.98
  -3  -4 -29  179.91   41.93
   3   4  29  152.12   26.24
  -7   3  29  127.44   34.11
  -7   3  26   -4.11   12.95
   3   4  26    8.25    9.75
  -3  -4 -26   -4.35    9.35
  -4   7 -26   10.27   14.21
  -3  -4 -26   11.44    6.30
  -3  -4 -26   32.80   19.52
  -7   3  26   33.47   21.93
  -3  -4 -23  228.36   37.77
  -3  -4 -23  233.86   43.84
  -7   3  23  212.50   47.67
  -4   7 -23  257.91   48.27
  -3  -4 -23  160.96   21.07
   3   4  23  193.84   32.17
  -7   3  23  229.40   47.71
  -7   3  20   22.58   15.27
  -3  -4 -20   86.78   27.22
   3   4  20   35.38   15.34
  -3  -4 -20   60.10   24.85
  -7   3  20   40.73   26.84
  -3  -4 -20   30.39    7.44
  -7   3  17  153.65   40.66
   3   4  17  151.57   31.26
  -3  -4 -17  141.91   31.69
  -7   3  17  126.09   33.97
  -3  -4 -17  174.30   34.60
  -3  -4 -14  537.02   59.33
  -7   3  14  483.32   64.27
   3   4  14  552.51   60.07
  -3  -4 -14  550.02   61.53
  -3  -4 -11   86.25   24.81
  -3  -4 -11   92.20   28.20
  -7   3  11   63.19   24.24
   3   4  11   53.27   22.00
  -3  -4  -8  558.58   55.41
  -3  -4  -8  606.38   67.92
  -4   7  -8  481.00   30.49
   3   4   8  612.84   65.28
  -7   3   8  713.40   78.73
  -3  -4  -5   41.25   15.16
  -3  -4  -5   51.01   21.05
   3   4   5   28.53   10.26
  -4   7  -5    8.19    4.47
  -7   3   5   44.24   22.32
  -3  -4  -2   19.02   15.30
  -3  -4  -2   26.22   13.35
   3   4   2   -1.56   16.52
  -4   7  -2   -8.22    7.67
  -7   3   2    6.72   11.49
  -3  -4   1  288.70   33.35
  -4   7   1  344.33   30.33
   3   4  -1  336.43   50.53
  -7   3  -1  426.64   60.98
  -3  -4   1  375.13   55.57
   3   4  -4 1305.14  100.10
  -4   7   4 1457.60   66.78
  -7   3  -4 1282.07  104.38
  -3  -4   4 1284.59  104.56
  -4   7   7   34.16   19.39
  -7   3  -7   28.35   17.16
  -4   7   7   22.04    9.36
  -7   3 -10  653.04   72.10
  -4   7  10  628.36   49.72
  -4   7  10  648.24   70.76
  -3  -4  10  635.43   75.90
  -7   3 -13  295.63   47.98
   3   4 -13  275.08   29.06
  -4   7  13  328.09   51.40
  -4   7  13  306.70   35.85
  -3  -4  13  350.18   56.66
  -7   3 -16  272.76   46.54
  -4   7  16  283.57   47.34
  -4   7  16  301.94   38.13
   3   4 -16  264.00   31.61
  -3  -4  16  363.24   59.66
  -3  -4  19  248.36   49.54
  -7   3 -19  239.50   43.84
  -4   7  19  341.18   51.10
  -4   7  19  308.24   40.36
   3   4 -19  276.38   35.63
  -4   7  19  353.17   49.63
  -4   7  22   55.33   23.23
  -3  -4  22   84.07   29.89
  -7   3 -22   70.12   25.71
  -4   7  22   60.90   24.13
  -4   7  22   94.04   25.35
   3   4 -22   65.81   19.93
   4  -7 -25  485.87   57.71
  -4   7  25  549.66   63.77
  -7   3 -25  424.40   56.99
   3   4 -25  451.15   50.40
  -4   7  25  493.16   61.67
  -3  -4  25  475.26   70.85
  -3  -4  28   64.68   11.45
   7  -3  28  155.32   35.05
  -4   7  28  227.12   47.63
  -4   7  28  156.42   35.68
  -4   7  28  160.93   36.28
  -3  -4  28  163.46   40.87
   4  -7 -28  151.06   32.68
  -7   3 -28  117.17   31.47
   3   4 -28  141.07   30.36
   4  -7 -31  650.23   71.99
  -3  -4  31  357.95   29.46
  -4   7  31  670.65   80.45
  -7   3 -31  536.75   63.19
   3   4 -31  485.32   58.96
  -4   7  31  599.12   70.12
   7  -3  31  567.07   64.15
  -3  -4  31  638.49   85.19
  -3  -4  34   91.12   16.59
  -3  -4  34  206.26   49.91
  -7   3 -34  186.38   38.03
   3   4 -34  159.88   36.76
  -4   7  34  182.98   43.08
   7  -3  34  238.02   44.98
   4  -7 -34  199.69   41.68
  -4   7  34  110.75   32.01
  -4   7  37  -14.19   24.80
  -3  -4  37    8.98    7.42
   7  -3  37    1.31    9.37
  -3  -4  37   -0.47   15.04
   4  -7 -37   -6.99   20.05
  -4   7  37   41.18   22.92
  -7   3 -37   15.55    9.32
   3   4 -37   -9.43   13.38
  -3  -4  40  211.42   29.19
  -3  -4  40  287.68   59.97
  -4   7  40  420.40   68.46
   4  -7 -40  365.51   58.11
   7  -3  40  303.21   49.84
  -7   3 -40  256.25   42.56
  -4   7  40  386.68   61.18
   3   4 -40  268.20   48.59
  -3  -4  43  160.60   46.42
  -7   3 -43  157.25   35.40
  -4   7  43  253.68   58.47
   7  -3  43  187.63   41.03
   3   4 -43  154.42   40.28
  -3  -4  46   -2.67   19.57
  -4   7  46   -3.62   18.28
  -4   7  46    4.39    9.18
  -7   3 -46   22.07   14.36
   7  -3  46   29.65   18.34
   3   4 -46   -0.02   15.13
  -4   7  49    5.24    9.49
  -3  -4  49  -43.01   32.96
  -7   3 -49    2.44   10.71
   7  -3  49  -16.16   17.68
  -4   7  49   31.19   21.27
   3   4 -49  -18.82   25.65
  -3  -4  52  450.11   79.42
  -4   7  52  529.09   86.07
  -7   3 -52  472.68   58.85
   7  -3  52  463.46   69.14
   3   4 -52  433.84   70.96
  -4   7  52  570.32   63.17
  -4   7  55    0.46    9.06
  -3  -4  55   41.01   26.56
  -4   7  55    7.08   17.08
  -7   3 -55   16.90   13.19
  -7   3 -55   13.25    9.13
   7  -3  55   -1.14   11.87
   3   4 -55  -17.74   19.92
  -4   7  58   64.14   21.78
  -4   7  58   69.95   28.86
  -7   3 -58   43.99   13.60
   7  -3  58   53.47   28.07
  -3  -4  58   45.99   30.08
   3   4 -58   93.09   37.93
  -7   3 -58   48.95   19.93
  -3  -4  61  158.11   50.19
  -7   3 -61  167.53   34.85
  -4   7  61  193.76   53.52
  -4   7  61  238.22   36.35
  -7   3 -61  160.71   36.70
   7  -3  61  200.62   49.58
  -4   7  61  179.18   34.60
   3   4 -61  127.74   41.08
  -3  -4  64  -23.93   29.41
  -4   7  64   21.75   25.41
  -7   3 -64   18.11   13.72
  -4   7  64    8.33    7.65
   7  -3  64   28.89   25.08
  -7   3 -64   15.59   14.86
   3   4 -64  -16.08   22.80
  -7   3 -67   -2.15   11.39
  -4   7  67  -10.02   20.28
  -4   7  67   20.42   14.52
  -3  -4  67   10.61   20.18
   3   4 -67   10.80   20.81
  -4   7  70   22.71   26.05
  -7   3 -70   35.14   17.34
   3   4 -70   35.40   15.61
  -4   7  73   37.89   31.37
  -7   3 -73   63.38   19.87
   3   4 -73   42.64   25.16
  -3  -4  73  106.29   40.45
   3   4 -76   -9.04   25.03
  -4   7  76  -33.65   32.08
  -3  -4  76    1.41   15.82
   4  -7 -79  331.70   85.07
  -3  -4  79  207.00   59.24
  -4   7  79  220.10   66.16
   3   4 -79  243.17   68.95
   3   4 -82  -17.12   29.92
   4  -7 -82   56.93   42.55
  -4   7  82  -37.63   24.80
  -3  -4  82  -75.85   51.28
  -4   7  85  -30.67   41.64
  -3  -4  85   -4.31   25.65
   3   4 -85   16.08   18.36
   4  -7 -88   66.81   44.63
  -4   7  88   66.64   43.30
  -3  -4  88   32.55   31.93
   3   4 -88   44.79   42.32
   4  -7 -91  124.41   59.00
  -4   7  91   92.37   50.77
  -3  -4  91   90.07   46.84
   3   4 -91   86.55   49.15
   4  -7 -94   29.37   28.68
  -4   7  94   21.10   27.52
   3   4 -94   -9.14   29.17
   4  -7 -97   79.24   46.15
   3   4 -97   -7.57   29.55
  -3  -4  97   -6.76   31.36
  -7   2  96   31.99   26.85
  -2  -5 -96    7.51   25.07
  -7   2  93  -36.04   21.50
   7  -2 -93   44.67   43.92
  -2  -5 -93   45.95   35.34
   7  -2 -90  108.14   57.32
  -7   2  90   15.00   26.40
  -7   2  90   75.02   40.11
  -2  -5 -90    7.22   20.12
  -7   2  87  276.92   76.85
  -2  -5 -87  207.56   65.99
  -7   2  87  270.49   71.80
   7  -2 -87  355.91   94.52
   7  -2 -84   94.26   53.94
  -7   2  84   32.38   27.63
  -7   2  84   35.01   26.74
  -2  -5 -84   -5.14   31.12
   7  -2 -81    5.91   23.41
  -7   2  81    8.00   23.93
   2   5  81   36.07   38.38
  -7   2  81  -50.65   33.32
  -2  -5 -81  -38.30   41.87
  -2  -5 -78   37.75   27.92
  -7   2  78   88.61   45.48
  -7   2  78   82.46   39.88
   7  -2 -78  200.90   69.33
   2   5  78  112.43   51.78
   7  -2 -75  422.26   94.10
   2   5  75  406.90   87.85
  -7   2  75  324.36   79.84
  -7   2  75  377.27   75.88
  -2  -5 -75  226.90   61.42
   7  -2 -72   41.73   40.70
  -7   2  72   14.16   26.01
   2   5  72   26.73   28.47
  -7   2  72   36.95   32.54
  -2  -5 -72  -19.57   26.84
   7  -2 -69  351.31   81.89
  -7   2  69  170.29   54.48
  -7   2  69  206.48   55.73
  -2  -5 -69  192.38   51.72
   2   5  69  308.00   71.34
  -7   2  66   26.03   25.67
   7  -2 -66   26.21   24.58
   2   5  66   25.83   21.65
  -7   2  66   28.00   28.36
  -2  -5 -66    0.61   15.85
   7  -2 -63  383.59   84.32
  -7   2  63  201.54   60.46
   2   5  63  209.85   61.39
  -7   2  63  235.16   60.39
  -2  -5 -63  219.93   55.84
  -7   2  60  173.24   50.25
   7  -2 -60  257.78   67.93
  -7   2  60  149.60   49.60
   2   5  60  131.58   40.03
  -5   7 -60  190.52   39.16
  -2  -5 -60  226.48   52.22
   2   5  57  -29.42   30.40
  -7   2  57   -9.87   14.85
  -7   2  57    9.16   17.30
  -5   7 -57   53.88   21.28
  -2  -5 -57   21.07   19.60
  -7   2  54   65.76   32.27
  -7   2  54   72.08   32.75
   2   5  54  110.06   36.41
  -2  -5 -54   56.33   24.52
  -5   7 -54   68.59   21.26
   2   5  51  144.07   45.45
  -5   7 -51  100.27   26.56
  -2  -5 -51   84.61   30.25
  -7   2  51  113.28   39.53
   2   5  48  487.72   80.44
  -5   7 -48  447.79   49.72
   2   5  48  269.77   23.82
  -7   2  48  528.77   81.52
  -2  -5 -48  457.97   60.94
  -7   2  45  175.05   47.25
   2   5  45  148.38   20.73
  -2  -5 -45  158.00   31.48
  -5   7 -45  187.47   30.60
   2   5  45  269.52   58.50
  -7   2  42  -14.35   24.20
  -2  -5 -42    1.89   16.30
   2   5  42   12.06    5.30
   2   5  42   21.32   23.34
  -5   7 -42   13.32    7.21
  -7   2  39  398.19   68.35
  -2  -5 -39  436.03   44.56
   2   5  39  408.67   70.55
  -5   7 -39  452.23   42.00
   2   5  39  378.68   38.70
  -2  -5 -39  349.51   47.31
  -7   2  36  117.63   36.71
  -2  -5 -36   59.48   28.05
  -2  -5 -36   56.51   20.69
  -2  -5 -36   98.28   23.21
   2   5  36   74.55   29.42
  -5   7 -36   71.95   16.29
   2   5  33  -10.23   12.54
   2   5  33    4.47   13.19
  -7   2  33   14.81   13.18
  -2  -5 -33   12.94   13.79
  -5   7 -33   18.51    8.13
  -2  -5 -33    9.13   10.46
  -2  -5 -33   -2.99    9.48
   2   5  30   85.39   28.07
  -2  -5 -30  102.60   31.57
  -7   2  30  142.36   40.22
  -5   7 -30   78.54   13.89
  -2  -5 -30  118.69   26.89
   2   5  30  139.36   26.48
  -7   2  30  108.63   37.73
  -2  -5 -30  104.80   21.01
  -2  -5 -27  334.45   54.29
   2   5  27  376.53   61.86
   2   5  27  369.19   45.81
  -2  -5 -27  428.45   51.18
  -7   2  27  412.96   67.39
  -7   2  27  457.78   68.28
  -2  -5 -27  337.33   34.82
  -5   7 -27  274.53   21.96
  -2  -5 -24  165.15   37.52
   7  -2 -24  166.72   40.81
  -7   2  24  172.41   41.90
  -7   2  24  152.75   41.14
  -2  -5 -24  187.87   34.34
  -5   7 -24  179.64   40.90
   2   5  24  203.40   34.72
  -7   2  21  103.39   32.91
  -2  -5 -21   78.89   23.14
  -2  -5 -21  131.12   31.25
  -5   7 -21  131.01   35.53
   2   5  21  109.55   26.02
  -7   2  21  113.08   33.83
  -7   2  18  284.22   52.67
  -2  -5 -18  290.52   45.61
   2   5  18  364.14   47.32
  -2  -5 -18  304.53   44.78
  -7   2  18  339.56   57.94
  -7   2  15   55.72   27.30
  -2  -5 -15   38.88   15.40
  -7   2  15   50.84   23.84
   2   5  15   61.64   21.23
  -2  -5 -15   50.97   19.95
  -2  -5 -12  407.92   49.69
   2   5  12  436.50   55.81
  -7   2  12  473.73   66.60
  -2  -5 -12  483.60   61.05
   2   5   9   88.22   25.51
  -2  -5  -9   94.49   24.64
  -2  -5  -9   79.92   26.31
  -7   2   9   61.91   24.39
  -7   2   6  135.52   35.96
  -2  -5  -6  117.76   29.83
  -2  -5  -6  116.25   23.55
   2   5   6  133.98   32.33
  -7   2   3  731.95   80.30
  -2  -5  -3  635.53   50.59
   2   5   3  669.58   70.77
  -2  -5  -3  697.59   76.03
  -2  -5   0 1969.79   82.21
  -7   2   0 2174.12  134.69
   2   5   0 2221.16  131.30
  -2  -5   0 2287.26  139.01
   2   5  -3  503.05   63.95
  -2  -5   3  338.75   31.34
  -7   2  -3  420.24   59.51
  -2  -5   3  394.29   59.49
   2   5  -6  514.39   64.40
  -7   2  -6  446.77   62.15
  -2  -5   6  444.01   63.49
  -2  -5   9  159.84   39.32
  -7   2  -9  175.34   40.03
   2   5  -9   95.33   14.05
  -2  -5  12  872.68   92.31
  -7   2 -12  990.08   89.37
   2   5 -12  807.30   47.43
  -2  -5  15  120.02   36.05
  -7   2 -15  103.65   31.09
   2   5 -15  102.59   18.92
   5  -7 -15  121.69   24.21
  -2  -5  18  294.23   55.95
  -7   2 -18  346.35   53.24
   5  -7 -18  363.28   43.37
   2   5 -18  316.87   36.43
  -2  -5  21  532.13   76.14
   5  -7 -21  542.64   55.44
   2   5 -21  447.39   46.07
  -7   2 -21  472.34   62.18
  -5   7  21  520.53   66.97
   5  -7 -24  371.70   47.75
  -7   2 -24  345.79   52.19
  -2  -5  24  370.04   62.94
   2   5 -24  342.29   43.43
  -5   7  24  348.32   55.77
  -7   2 -27  570.76   66.98
  -2  -5  27  614.24   83.27
   2   5 -27  491.51   55.41
  -5   7  27  599.69   72.44
   5  -7 -27  588.16   63.76
  -5   7  30  279.23   52.25
  -2  -5  30  221.73   51.38
   2   5 -30  163.50   32.93
   5  -7 -30  219.54   42.43
  -7   2 -30  282.84   47.27
  -2  -5  33  -16.48   20.27
   7  -2  33    3.51   10.18
   5  -7 -33   -5.48    9.71
  -7   2 -33    8.98   14.33
   2   5 -33   -9.44   13.19
  -5   7  33  -24.56   21.43
  -2  -5  36  268.22   57.78
   7  -2  36  173.06   39.70
   5  -7 -36  320.34   52.41
   2   5 -36  191.24   40.22
  -7   2 -36  267.79   45.52
  -5   7  39  450.23   72.42
  -7   2 -39  389.57   54.92
   7  -2  39  414.24   63.85
   5  -7 -39  434.68   63.58
  -2  -5  39  422.42   74.12
   2   5 -39  391.75   58.71
  -2  -5  42  163.29   45.78
   2   5 -42  119.43   33.06
  -5   7  42  246.47   44.30
  -5   7  42  232.52   51.30
   5  -7 -42  191.22   43.66
   7  -2  42  174.24   43.25
  -7   2 -42  219.35   41.44
  -5   7  45   23.65   17.02
  -5   7  45   46.78   27.96
   2   5 -45    2.88   10.85
   7  -2  45   26.77   23.29
  -7   2 -45   32.69   18.71
  -2  -5  45  -26.55   23.96
  -5   7  48  558.21   84.55
   7  -2  48  522.57   74.95
  -7   2 -48  569.65   64.23
  -2  -5  48  648.01   97.14
  -5   7  48  638.81   70.43
   2   5 -48  516.07   74.80
  -5   7  51   61.90   21.27
  -2  -5  51   45.82   23.87
  -5   7  51   75.29   35.25
   7  -2  51   97.92   35.80
   2   5 -51  -16.13   27.20
  -7   2 -51   60.06   19.92
  -7   2 -54   16.49   11.93
  -5   7  54   -4.62   17.05
  -5   7  54  -13.01   14.57
   7  -2  54   21.58   20.55
   2   5 -54  -31.21   25.38
  -2  -5  54  -20.08   19.72
  -5   7  57   85.03   25.63
  -5   7  57   51.60   29.91
  -7   2 -57   49.99   21.54
  -7   2 -57   53.75   20.87
   7  -2  57   32.88   18.98
   2   5 -57   45.55   26.29
  -2  -5  57   75.10   33.80
  -7   2 -60   27.29   12.83
  -5   7  60   39.93   26.55
  -7   2 -60   43.33   18.87
   7  -2  60   26.29   15.84
   2   5 -60  -14.42   21.30
  -2  -5  60   52.73   32.59
  -5   7  60   57.92   21.44
  -5   7  63   55.06   34.89
  -5   7  63   44.34   17.00
  -7   2 -63   37.72   18.60
  -7   2 -63   24.39   14.80
   2   5 -63    6.49   20.11
   7  -2  63   33.79   25.73
  -2  -5  63   20.52   17.52
  -5   7  66   43.47   32.80
  -7   2 -66   21.79   14.76
  -5   7  66   27.67   19.02
   7  -2  66  -15.51   20.14
   2   5 -66   18.47   25.18
  -2  -5  66   28.58   18.01
  -7   2 -69   63.90   20.98
  -5   7  69  152.20   33.22
  -5   7  69   99.23   44.24
   7  -2  69   91.60   39.64
   2   5 -69  104.84   44.31
  -2  -5  69   94.88   39.64
  -5   7  72   47.18   20.16
   7  -2  72   39.99   26.54
  -5   7  72   37.21   28.20
  -2  -5  72   30.11   18.04
   2   5 -72   35.41   29.06
  -5   7  75  345.58   84.37
  -2  -5  75  372.98   87.33
   2   5 -75  392.84   85.68
  -5   7  78   42.63   40.91
   2   5 -78  -22.17   30.07
  -2  -5  78   77.79   43.39
  -5   7  81  -17.57   25.55
  -2  -5  81  -32.00   29.33
   2   5 -81   27.50   33.04
  -5   7  84    2.00   21.24
  -2  -5  84  -60.40   45.65
   2   5 -84   16.76   26.74
  -5   7  87  298.28   86.82
  -2  -5  87  233.01   65.79
   2   5 -87  254.57   70.30
  -5   7  90   67.05   39.79
  -2  -5  90   11.26   33.41
   2   5 -90   15.39   21.49
  -2  -5  93   65.42   35.38
   2   5 -93   22.01   21.56
  -2  -5  96   95.55   48.15
   2   5 -96  100.02   57.04
   7  -1 -94  111.84   60.81
  -7   1  94   26.78   26.74
   7  -1 -91  113.91   57.15
  -7   1  91   78.64   45.94
  -7   1  91   98.43   49.64
  -1  -6 -91   56.15   25.33
   7  -1 -88  152.30   63.22
  -7   1  88  121.13   69.26
  -7   1  88   64.45   39.61
  -1  -6 -88   -6.29   30.09
   7  -1 -85   25.86   29.55
  -7   1  85  -21.58   29.70
  -7   1  85  -25.79   38.97
  -1  -6 -85    4.38   33.11
  -7   1  82   84.24   46.38
  -7   1  82   -5.39   22.59
  -1  -6 -82   25.99   32.97
  -7   1  79  385.08   87.50
  -7   1  79  412.64   86.71
   7  -1 -79  571.30  107.19
  -1  -6 -79  419.53   84.73
   1   6  79  472.57  100.38
  -7   1  76  117.83   52.48
  -7   1  76  142.22   55.06
   1   6  76   32.45   33.62
   7  -1 -76  145.67   63.44
  -1  -6 -76   63.15   40.49
   7  -1 -73   92.19   50.50
  -7   1  73   76.86   36.07
  -7   1  73   22.39   14.78
   1   6  73   84.10   37.85
  -1  -6 -73   -5.29   19.32
   7  -1 -70   43.45   42.67
  -7   1  70   47.57   32.56
   1   6  70   34.66   28.00
  -7   1  70   27.18   22.85
  -1  -6 -70   -1.48   14.63
   7  -1 -67  257.91   70.72
  -7   1  67  150.51   50.87
  -7   1  67  171.09   54.31
  -1  -6 -67  108.98   39.45
   1   6  67  155.05   55.50
   7  -1 -64   63.58   37.78
  -7   1  64   53.58   30.56
  -7   1  64   -5.38   16.56
   1   6  64    1.15   16.93
  -1  -6 -64   39.08   24.87
   7  -1 -61  134.41   51.09
  -7   1  61  109.14   43.37
  -7   1  61   34.59   28.93
  -6   7 -61   50.54   18.72
   1   6  61   31.37   13.23
  -1  -6 -61   56.94   24.26
   7  -1 -58  159.83   52.96
  -7   1  58  140.57   45.17
  -7   1  58  136.08   44.04
  -6   7 -58  141.59   32.62
   1   6  58  138.51   46.61
  -1  -6 -58  126.57   35.05
   7  -1 -55  115.02   48.05
  -6   7 -55   36.03   16.50
  -7   1  55   75.30   36.65
   1   6  55   50.62   33.78
  -7   1  55   83.74   37.09
  -1  -6 -55   44.37   27.74
  -1  -6 -52  321.74   54.70
   1   6  52  369.08   72.25
  -7   1  52  325.93   65.66
  -6   7 -52  304.61   43.43
  -7   1  52  380.60   71.73
  -1  -6 -49   14.47   14.46
   1   6  49   22.07    7.91
  -6   7 -49   10.35    8.22
   1   6  49   22.90   17.73
  -7   1  49   32.55   19.75
   1   6  46   52.65   13.34
  -1  -6 -46   69.67   24.45
   1   6  46  121.88   40.65
  -6   7 -46   81.87   19.24
  -7   1  46   71.41   34.33
   1   6  43  321.80   36.47
   1   6  43  406.10   73.14
  -1  -6 -43  285.33   47.06
  -7   1  43  284.19   62.34
   1   6  40  306.11   36.67
  -7   1  40  388.73   70.55
   1   6  40  356.42   66.44
  -1  -6 -40  353.09   50.18
  -1  -6 -37  182.07   31.66
   1   6  37  204.48   31.63
   1   6  37  222.38   52.63
  -7   1  37  217.32   51.55
  -7   1  34  157.94   47.34
   1   6  34   62.28   26.67
  -1  -6 -34   86.24   31.29
  -1  -6 -34   94.71   23.96
   1   6  34   72.90   19.29
   1   6  31  458.51   50.07
  -1  -6 -31  515.55   72.95
   1   6  31  433.07   67.35
  -1  -6 -31  479.27   54.58
  -7   1  31  465.61   72.64
  -7   1  31  457.76   72.15
  -7   1  28   35.61   22.54
  -1  -6 -28   28.39   17.06
  -1  -6 -28   49.13   25.56
   1   6  28   25.18   14.58
   1   6  28   27.31   19.82
  -7   1  25   87.79   33.96
   1   6  25   73.56   27.63
  -1  -6 -25   84.23   27.43
   1   6  25   72.63   20.87
  -1  -6 -25   73.07   22.19
  -7   1  25   52.29   20.88
  -1  -6 -22   13.67   13.21
  -7   1  22    0.83    9.79
  -1  -6 -22   22.37   17.23
   1   6  22   38.51   15.57
  -7   1  22   22.25   17.20
   1   6  19   -3.21   10.41
  -1  -6 -19   11.16   15.92
  -7   1  19    0.57    9.18
  -1  -6 -19   18.94   16.53
  -7   1  19   -6.90   12.27
   1   6  16  259.03   42.77
  -7   1  16  243.74   50.74
  -1  -6 -16  234.91   42.22
  -6   7 -16  229.88   45.23
  -1  -6 -16  295.60   46.49
  -7   1  16  199.77   42.90
  -7   1  13  170.34   39.29
  -7   1  13  133.23   38.03
   1   6  13  117.07   28.86
  -1  -6 -13  122.58   30.95
   1   6  10  358.31   51.33
  -1  -6 -10  326.64   51.29
  -7   1  10  398.46   61.41
  -7   1  10  401.28   59.61
   1   6   7  487.79   61.22
  -1  -6  -7  482.72   63.67
  -7   1   7  506.81   71.63
   1   6   4 2274.04  132.32
  -1  -6  -4 2124.98  132.70
  -7   1   4 2145.98  139.36
   1   6   1  137.05   35.23
  -1  -6  -1  150.78   36.89
  -7   1   1  105.29   31.18
   7  -1   2  113.43   35.01
   1   6  -2   98.65   28.66
  -7   1  -2   96.17   30.59
  -1  -6   2  111.30   31.42
   1   6  -5  132.69   34.18
  -7   1  -5  120.68   35.32
  -1  -6   5   96.79   32.27
   7  -1   5   56.89   25.49
  -7   1  -8 1347.64  106.90
   1   6  -8 1343.15  108.62
   6  -7  -8 1334.96   63.14
  -1  -6   8 1340.43  112.24
   7  -1   8 1246.31  106.43
  -1  -6  11  215.68   46.30
   6  -7 -11  226.22   28.18
  -7   1 -11  237.26   45.00
   6  -7 -14  172.58   25.88
  -7   1 -14  183.91   37.80
  -1  -6  14  168.54   41.65
  -1  -6  17  102.99   33.04
   6  -7 -17   68.21   19.37
  -7   1 -17   83.02   28.93
  -7   1 -20  332.10   52.69
   6  -7 -20  368.17   43.91
  -1  -6  20  315.08   57.46
   6  -7 -23  204.29   35.90
  -6   7  23  193.56   44.66
  -7   1 -23  198.49   39.79
  -1  -6  23  180.97   44.99
   6  -7 -26   64.01   22.57
  -1  -6  26   34.57   19.56
  -7   1 -26   86.37   27.76
   6  -7 -29   33.90   17.15
  -1  -6  29   32.88   20.95
  -7   1 -29   22.81   14.25
   6  -7 -32   84.95   25.15
  -1  -6  32   99.64   35.35
  -7   1 -32   86.94   26.97
  -7   1 -35  644.72   68.86
   7  -1  35  622.07   80.22
  -1  -6  35  689.62   91.21
   6  -7 -35  676.13   74.81
  -6   7  35  830.69   85.97
  -6   7  38  375.93   58.65
   7  -1  38  448.14   72.42
   6  -7 -38  290.95   51.19
  -1  -6  38  259.07   57.08
  -7   1 -38  325.84   49.20
   6  -7 -41   13.49   13.23
  -6   7  41    1.41   12.08
   7  -1  41   32.34   16.91
  -1  -6  41   12.20   19.12
  -7   1 -41   23.76   17.10
  -7   1 -44  751.42   72.89
  -6   7  44  906.14   89.60
   7  -1  44  738.63   92.85
  -6   7  44  792.47   97.23
  -1  -6  44  813.91  102.95
  -6   7  47   78.30   29.35
  -6   7  47  152.28   48.63
  -7   1 -47   70.05   21.46
  -1  -6  47   72.82   35.20
  -6   7  50   18.51   22.37
  -1  -6  50    6.25   13.65
  -7   1 -50   16.35    8.65
  -6   7  50   52.99   23.22
   7  -1  50   -8.79   17.19
  -7   1 -53   -2.32    8.43
   7  -1  53   12.93   15.36
  -6   7  53  -11.22   17.02
  -6   7  53    1.82   13.62
  -1  -6  53   24.66   20.73
  -6   7  56  276.39   49.82
  -6   7  56  157.81   52.43
  -7   1 -56  102.03   26.02
  -1  -6  56  214.54   59.21
   7  -1  56  138.42   42.87
  -6   7  59   14.22   14.74
   7  -1  59    4.13   11.20
  -7   1 -59    0.82    8.74
  -1  -6  59   -4.24   13.09
  -6   7  59   -8.33   17.05
  -6   7  62   56.74   21.73
  -6   7  62   52.49   32.07
  -7   1 -62   48.67   19.82
   7  -1  62   73.45   33.66
  -1  -6  62   60.17   36.46
  -6   7  65   92.81   36.70
  -7   1 -65   83.32   22.98
  -6   7  65   85.57   27.70
  -1  -6  65   82.44   34.30
   7  -1  65  118.38   39.60
  -6   7  68   24.54   25.76
  -6   7  68   40.25   26.46
   7  -1  68   43.42   33.16
  -1  -6  68   38.92   24.10
  -6   7  71  331.12   54.35
  -6   7  71  313.93   75.74
  -1  -6  71  379.94   82.63
   7  -1  71  330.95   74.10
   7  -1  74   26.17   21.68
  -6   7  74  -20.00   14.62
  -6   7  74   26.86   20.34
   1   6 -74  -29.67   33.51
  -1  -6  74   17.66   19.69
   7  -1  77   23.60   17.55
  -6   7  77  -46.51   35.08
  -1  -6  77   -5.18   17.08
   1   6 -77  -35.99   33.21
  -6   7  80  -53.54   36.76
  -1  -6  80    4.85   21.98
   7  -1  80   34.95   26.80
   1   6 -80    0.42   16.77
  -6   7  83  358.08   90.19
   1   6 -83  365.33   86.68
  -1  -6  83  367.33   82.83
  -6   7  86   61.34   46.77
  -1  -6  86   96.79   45.34
   1   6 -86   56.54   44.74
  -6   7  89  -37.51   34.40
  -1  -6  89   -6.30   17.74
   1   6 -89    5.36   19.17
  -1  -6  92   24.51   19.30
  -6   7  92   40.73   34.39
   1   6 -92   95.06   48.29
  -1  -6  95   97.62   44.83
   1   6 -95   35.74   29.38
   0  -7 -92  127.75   54.00
   7   0 -92   60.75   46.64
  -7   0  92    5.05   20.77
  -7   0  92  100.36   53.87
   0  -7 -89   17.60   22.45
   7   0 -89   70.81   50.53
  -7   0  89   -4.57   22.53
  -7   0  89  -12.36   24.24
   0  -7 -86   51.40   39.35
   7   0 -86   89.59   53.63
  -7   0  86   52.14   34.92
  -7   0  86    6.04   26.94
   0  -7 -83  256.55   63.87
   7   0 -83  307.68   82.34
  -7   0  83  236.14   68.05
  -7   0  83  297.20   80.35
   0  -7 -80  -14.45   26.36
   7   0 -80  124.89   59.78
  -7   0  80   47.48   41.12
  -7   0  80   64.21   47.22
   0  -7 -77   -4.57   26.56
   7   0 -77   72.06   47.01
  -7   0  77   21.36   21.79
  -7   0  77  -17.05   26.34
   0  -7 -74    4.58   16.63
  -7   0  74    5.12   22.38
  -7   0  74   -2.05   17.61
   0   7  74   72.61   45.17
   7   0 -74   47.07   40.23
   7   0 -71  228.27   65.56
   0  -7 -71  177.30   50.48
  -7   0  71  217.32   59.65
  -7   0  71  152.40   50.40
   0   7  71  266.63   71.47
   7   0 -68   30.88   30.71
  -7   0  68   38.61   27.96
  -7   0  68   70.73   44.47
   0   7  68   27.39   33.29
   0  -7 -68  -16.23   22.77
   0  -7 -65   12.95   18.37
   7   0 -65  -31.32   19.57
  -7   0  65   12.15   19.92
  -7   0  65    5.68   16.34
   0   7  65    2.06   14.29
   0  -7 -62  117.04   38.41
   7   0 -62  112.97   45.84
  -7   0  62   75.04   34.74
  -7   0  62  107.03   40.43
   0   7  62   79.95   39.09
   0  -7 -59    1.35   20.18
   7   0 -59   72.15   39.64
  -7   0  59   47.00   30.95
  -7   0  59   -9.93   24.98
   0   7  59  -23.07   22.26
   0  -7 -56  163.54   43.05
   7   0 -56  184.43   54.34
  -7   0  56  107.41   40.57
   0   7  56  124.37   44.75
  -7   0  56  102.03   36.21
  -7   0  53   20.83   21.57
  -7   0  53    2.97   25.06
   0   7  53  -13.15   27.71
   0   7  53   -4.24    4.98
   0  -7 -50  152.74   40.78
  -7   0  50  123.32   40.16
  -7   0  50  122.10   39.65
   0   7  50  106.11   39.31
   0   7  50   70.36   15.27
   0   7  50   54.18   16.80
   0   7  47   74.37   27.98
   0   7  47   74.59   17.92
   0   7  47   74.59   34.52
  -7   0  47  105.87   42.28
   0   7  44  459.58   76.92
   0   7  44  397.40   46.06
  -7   0  44  492.61   83.48
   0   7  44  481.44   78.88
   0   7  41   22.31   18.56
   0   7  41    7.21   14.72
   0   7  41   23.19   11.30
  -7   0  41   14.71   16.18
   0   7  38   64.76   28.73
   0   7  38   78.39   20.46
   0   7  38  108.47   35.50
  -7   0  38  122.73   43.91
   0   7  35  715.54   65.93
   0   7  35  738.50   87.90
  -7   0  35  758.55   97.46
   0   7  35  711.72   89.90
   0   7  32  172.09   44.18
   0   7  32  141.41   31.39
   0   7  32  145.39   40.75
  -7   0  32  137.47   44.17
  -7   0  32   81.62   30.21
   0   7  29    3.47   13.66
   0   7  29    2.86    8.00
   0   7  29   -4.96   10.75
  -7   0  29    1.86   11.44
  -7   0  29   39.57   22.93
   0   7  26   -6.43   15.05
   0   7  26   -5.80   11.20
   0   7  26    0.20   14.15
   0  -7 -26  -11.50   14.37
  -7   0  26  -42.34   25.54
  -7   0  26   -0.31   10.45
   0   7  23   70.22   24.77
  -7   0  23   52.73   30.04
   0   7  23   65.58   22.64
   0  -7 -23  106.21   28.27
   0   7  23   37.13   20.12
  -7   0  23    9.50   19.82
  -7   0  20   12.41   18.43
   0   7  20   -0.05   12.34
   0   7  20   13.19   15.00
   0   7  20   -2.70   12.75
   0  -7 -20   22.26   18.50
  -7   0  20  -24.40   18.05
  -7   0  17  247.85   52.93
   0   7  17  189.99   35.35
   0   7  17  218.28   42.00
   0  -7 -17  206.29   40.76
  -7   0  17  173.95   39.98
  -7   0  14   37.32   21.20
  -7   0  14    1.83   13.91
   0   7  14   21.25   16.07
   0   7  14   48.14   17.21
   0  -7 -14   37.62   19.10
  -7   0  11   36.67   23.10
  -7   0  11   34.05   19.68
   0   7  11   22.48   12.59
   0   7  11   17.12   14.68
   0   7  11    3.63    4.76
   0  -7 -11   14.63   10.02
  -7   0   8  925.34   97.20
   0   7   8  889.28   67.75
  -7   0   8  870.75   83.23
   0  -7  -8  911.45   87.69
   0   7   8  709.05   39.23
   0   7   8 1037.35   93.39
   7   0  -5  203.31   46.54
   0   7   5  154.31   27.89
  -7   0   5  167.85   40.74
   0   7   5  206.01   43.08
   0  -7  -5  193.53   42.50
   0   7   2   -6.25    6.05
  -7   0   2  -14.15   17.87
   0   7   2   14.02    9.97
   7   0  -2    1.13   16.59
   0  -7  -2    9.75    9.50
  -7   0  -1  141.83   38.89
   0   7  -1  124.07   32.91
   7  -7  -1   50.72    9.40
   7   0   1   59.08   29.87
   0  -7   1   88.92   31.17
   7   0   4 1723.40  128.26
  -7   0  -4 1598.78  122.90
   0  -7   4 1635.41  124.03
   7  -7  -4 1443.54   57.85
   0   7  -4 1760.45  126.75
  -7   0  -7   86.69   27.26
   0   7  -7  107.64   32.48
   7   0   7   56.79   22.74
   7  -7  -7   33.19    9.36
   0  -7   7  123.48   32.95
  -7   0 -10   13.57   12.71
   7   0  10   17.74   15.44
   7  -7 -10   31.93   11.50
   0  -7  10   11.81   12.35
  -7   0 -13  166.58   40.79
   7  -7 -13  180.07   27.73
   7   0  13  150.36   36.61
   0  -7  13  121.65   34.80
   0  -7  16  -13.54   17.21
  -7   0 -16    9.44   13.02
  -7   0 -19   -4.58    8.98
   7  -7 -19   -7.45    8.86
   0  -7  19   -7.09   14.69
  -7   0 -22    5.35   14.58
   7  -7 -22   16.38   11.18
   0  -7  22    8.37   12.03
  -7   0 -25  -12.00   11.04
   7  -7 -25   12.27    9.95
   0  -7  25   -8.83   16.68
   0  -7  28   -8.72   12.58
  -7   0 -28    2.71   14.08
   7  -7 -28   21.63   16.65
  -7   7  28  -14.67   19.70
  -7   7  31  817.39   90.21
   7  -7 -31  806.17   80.51
   0  -7  31  729.28   94.42
  -7   0 -31  669.58   73.84
  -7   0 -34  224.09   42.72
  -7   7  34  192.94   45.75
   7  -7 -34  132.94   33.43
   0  -7  34   67.20   27.86
   7   0  37   16.49   21.63
  -7   0 -37   19.61   13.88
   0  -7  37    4.08   13.20
   7  -7 -37   29.19   19.39
  -7   7  37    3.16    9.06
   7   0  40  328.15   63.88
  -7   0 -40  374.47   52.44
   0  -7  40  501.27   80.93
   7  -7 -40  385.44   60.77
  -7   0 -43  279.64   45.58
   7   0  43  371.34   70.42
   0  -7  43  335.24   67.07
  -7   7  43  375.73   62.38
  -7   0 -46   80.13   23.56
   7   0  46   92.98   40.15
   0  -7  46   88.43   35.30
  -7   7  46  115.34   34.39
  -7   0 -49    1.84   10.24
  -7   7  49   10.95   20.31
   7   0  49   -6.09   17.56
  -7   7  49   -4.52   13.65
   0  -7  49   38.77   28.50
  -7   0 -52  292.63   44.89
  -7   7  52  344.24   59.21
  -7   7  52  391.14   75.23
   7   0  52  321.92   67.60
   0  -7  52  363.11   73.87
  -7   0 -55    9.11   13.97
  -7   7  55  -21.96   18.46
  -7   7  55   16.30   23.63
   7   0  55   10.39   19.43
   0  -7  55   12.02   18.77
   7   0  58   70.14   36.54
  -7   7  58   57.45   33.30
   0  -7  58   94.80   42.06
  -7   0 -58   59.50   18.87
  -7   7  58   36.73   16.39
  -7   7  61    6.80   17.59
  -7   7  61   22.07   18.54
   7   0  61    6.68   13.89
   0  -7  61  -12.24   12.38
  -7   0 -61    2.24    9.39
   0  -7  64   30.62   31.48
  -7   7  64    5.26    9.99
  -7   7  64   15.46   19.07
  -7   0 -64    4.33    7.78
   7   0  64  -39.94   31.09
   0  -7  67  127.58   46.25
  -7   7  67  138.16   50.44
  -7   7  67  154.93   40.41
   7   0  67   84.00   36.30
  -7   7  70  122.99   39.35
  -7   7  70   62.10   41.24
   0  -7  70   54.25   26.07
   7   0  70   78.37   38.14
  -7   7  73   32.04   16.64
  -7   7  73   13.17   21.72
   7   0  73    9.55   18.39
   0  -7  73   32.93   20.86
   7   0  76   12.31   24.81
  -7   7  76   -1.71   13.26
  -7   7  76   -8.06   19.01
   0  -7  76   21.90   27.45
  -7   7  79  340.64   86.77
   0  -7  79  332.47   86.44
   7   0  79  376.51   86.19
  -7   7  82  -33.72   27.19
   0  -7  82   21.50   21.51
   7   0  82   -4.21   19.82
  -7   7  85  -18.85   32.32
   0  -7  85   62.52   37.97
   7   0  85   20.49   26.31
  -7   7  88  -17.70   35.83
   0  -7  88   46.97   35.66
   0   7 -88   50.61   35.24
  -7   7  91   89.18   44.80
   0   7 -91   62.61   32.97
   0  -7  91   69.76   38.65
   0  -7  94  -79.34   40.52
   0   7 -94   20.57   29.99
   1  -8  90  -51.40   45.75
   7   1  90   -1.15   18.55
  -8   7  87   64.92   48.84
   7   1  87  113.40   54.16
   1  -8  87   67.51   44.78
   7   1  84   -7.23   26.86
  -8   7  84  -15.35   29.42
   1  -8  84   20.82   26.00
   1  -8  81  -22.03   28.53
   7   1  81   37.01   30.97
  -8   7  81   14.76   18.06
  -8   7  78  -31.60   39.81
   1  -8  78   12.85   18.90
   7   1  78   -3.44   22.43
  -8   7  75  199.82   52.68
  -8   7  75  264.96   79.86
   1  -8  75  291.65   74.24
   7   1  75  277.10   76.09
  -8   7  72   -7.84   18.08
   1  -8  72   -5.23   19.76
  -8   7  72    9.95   20.14
   7   1  72   -0.89   20.49
  -8   7  69   85.28   34.19
  -8   7  69   60.72   37.04
   1  -8  69   93.80   42.61
   7   1  69   62.94   40.05
   7   1  66  339.89   82.04
  -8   7  66  258.61   68.44
  -8   7  66  321.66   63.60
   1  -8  66  302.64   72.44
   7   1  63   28.07   33.09
   1  -8  63  -15.94   16.37
  -8   7  63  -38.09   30.57
  -8   7  63   21.79   24.93
  -8   7  60   -6.22   13.04
  -7  -1 -60   38.87   17.18
  -8   7  60   12.63   17.29
   7   1  60   12.63   26.55
   1  -8  60   14.79   20.44
   7   1  57   14.99   13.23
  -8   7  57   29.74   28.95
  -7  -1 -57   25.06   14.02
   1  -8  57   10.91   25.73
  -8   7  57   37.90   20.57
   7   1  54   14.46   20.75
  -8   7  54    6.26   19.43
   1  -8  54   29.26   23.40
  -7  -1 -54  -28.53   13.63
  -8   7  54   -2.02   20.14
  -8   7  51   11.95   11.36
   1  -8  51    1.04   16.77
  -7  -1 -51    3.40   11.39
  -7  -1 -48  554.93   65.42
  -8   7  48  610.85   84.22
   1  -8  48  509.07   85.50
   7   1  48  445.52   82.87
  -8   7  45   21.00   21.37
   7   1  45   23.23   23.25
   1  -8  45   57.26   32.18
  -7  -1 -45   11.61   12.56
   1  -8  42  132.81   45.23
  -8   7  42  174.20   47.68
  -7  -1 -42  183.68   40.48
  -7  -1 -39  720.47   78.52
   1  -8  39  707.03   97.24
   7   1  39  634.66   91.53
  -8   7  39  832.05   98.38
   1  -8  36  126.60   41.96
  -8   7  36  187.94   47.92
  -7  -1 -36  116.57   31.47
   8  -7 -36  142.82   36.52
   1  -8  33   -2.31   15.10
   8  -7 -33   26.12   15.40
  -8   7  33   37.52   25.81
  -7  -1 -33   15.15   18.37
   1  -8  30   23.15   15.87
  -8   7  30    8.91   15.88
   8  -7 -30   44.18   23.50
  -7  -1 -30   65.60   23.80
  -8   7  27  745.40   90.50
  -7  -1 -27  737.11   81.83
   1  -8  27  703.65   91.43
   8  -7 -27  798.04   79.83
  -7  -1 -24  171.41   39.59
  -8   7  24  155.77   40.54
   7   1  24  190.62   41.31
   1  -8  24  210.99   51.22
   8  -7 -24  239.39   39.91
   7   1  21   74.37   25.77
  -8   7  21   45.30   24.15
   1  -8  21   67.31   31.90
  -7  -1 -21   78.72   32.41
   7   1  18    1.91    9.82
   1  -8  18   -0.42   13.57
  -7  -1 -18   16.76   18.29
   7   1  15   12.20   12.39
   1  -8  15   19.73   19.58
  -1   8 -15    0.62    2.96
  -7  -1 -15   15.38   15.70
   7   1  12   66.65   26.68
  -1   8 -12   22.32    7.83
   1  -8  12   44.27   22.63
  -7  -1 -12   57.55   24.97
  -1   8  -9  171.73   22.81
   7   1   9  247.77   51.14
   1  -8   9  176.48   44.59
  -7  -1  -9  225.57   47.49
  -1   8  -6   23.45   10.41
   1  -8   6   13.30   12.13
  -7  -1  -6   28.38   18.31
   7   1   6   18.88   14.24
  -1   8  -3  191.89   28.98
   1  -8   3  207.64   47.12
  -7  -1  -3  193.80   47.54
  -1   8   0 1800.52   90.11
  -7  -1   0 1741.64  135.80
   1  -8   0 1539.73  123.86
  -7  -1   3  140.08   30.07
   1  -8  -3   67.46   26.21
  -1   8   3   86.32   30.61
  -1   8   3   56.73   18.05
  -7  -1   3  144.64   41.15
  -7  -1   6   54.31   22.73
  -1   8   6   72.84   28.72
  -1   8   6   87.65   23.18
   1  -8  -6   37.87   19.19
  -7  -1   6  108.40   37.27
  -1   8   9  515.90   56.60
  -7  -1   9  535.51   77.77
  -1   8   9  430.10   63.01
   1  -8  -9  452.78   64.79
  -7  -1   9  419.42   57.20
  -1   8   9  394.68   37.21
  -1   8  12  119.82   34.73
  -1   8  12   70.53   22.61
   1  -8 -12   83.23   28.30
  -7  -1  12  119.76   40.29
  -7  -1  12   81.33   25.22
  -1   8  12   56.56   15.07
  -1   8  15   81.53   26.62
  -7  -1  15   46.90   27.44
  -1   8  15   57.39   19.56
   1  -8 -15   29.89   17.35
  -1   8  15   50.28   20.64
  -1   8  15   38.74   10.86
  -7  -1  15   32.43   14.51
  -1   8  18  203.15   41.25
  -1   8  18  168.66   36.96
  -1   8  18  107.77   21.69
  -7  -1  18  180.45   48.38
  -1   8  18  158.47   37.23
  -7  -1  18  112.82   33.19
  -1   8  21  109.81   28.15
  -1   8  21  122.80   32.32
  -1   8  21  102.82   31.33
  -7  -1  21  141.94   43.87
  -1   8  21   89.03   21.45
  -7  -1  21  132.66   38.14
  -1   8  24   16.54   18.35
  -1   8  24   29.62   20.47
  -1   8  24   27.59   20.90
  -7  -1  24   35.27   25.53
  -7  -1  24   23.34   20.27
  -1   8  27  293.14   47.32
  -1   8  27  307.81   54.35
  -1   8  27  308.16   55.37
  -7  -1  27  324.03   66.28
  -7  -1  27  228.33   50.07
  -1   8  30   21.49   13.68
  -1   8  30  -10.52   14.53
  -1   8  30   15.65   20.77
  -7  -1  30   28.62   23.12
  -7  -1  30  -11.72   20.13
  -1   8  33   13.68   12.56
  -1   8  33    9.24   13.83
  -1   8  33   -7.57   17.07
  -7  -1  33   22.78   24.07
  -1   8  36  283.27   43.96
  -1   8  36  291.88   56.65
  -1   8  36  263.28   53.18
  -7  -1  36  233.33   59.10
  -1   8  39  327.83   62.50
  -1   8  39  267.82   40.34
  -7  -1  39  359.56   73.55
  -1   8  39  263.71   56.23
  -1   8  42  102.05   39.06
  -1   8  42   66.69   17.65
  -7  -1  42   91.28   35.98
  -1   8  42   79.30   30.47
  -7  -1  45   25.52   24.80
  -1   8  45    0.98    9.19
  -1   8  45   20.56   22.01
  -1   8  48  919.38  113.66
  -7  -1  48 1003.73  124.96
  -7  -1  48  847.83   96.23
  -1   8  48  896.74  109.39
  -1   8  48  872.94   69.60
  -1   8  51  156.35   48.42
  -7  -1  51  152.61   45.42
  -7  -1  51  154.37   53.04
  -1   8  51  184.63   52.57
   7   1 -54   29.68   33.99
  -1   8  54  -13.30   26.18
  -7  -1  54   49.82   27.69
  -7  -1  54   -8.29   20.45
  -1   8  54  -17.97   22.79
   7   1 -57   49.52   36.54
  -1   8  57   37.91   28.47
  -7  -1  57   64.07   31.41
  -7  -1  57  -37.72   32.69
  -1   8  57    1.29   23.96
   7   1 -60   77.11   31.32
  -1   8  60   52.71   26.63
  -7  -1  60   30.94   21.97
  -7  -1  60   49.66   30.08
  -1   8  60   67.46   38.89
   7   1 -63   24.83   26.78
  -1   8  63  -14.38   21.54
  -1   8  63   12.31   23.95
  -7  -1  63   62.69   35.05
  -7  -1  63   37.33   31.23
   7   1 -66  157.46   54.73
  -1   8  66  124.91   43.96
  -7  -1  66  161.23   47.66
  -7  -1  66  193.16   61.84
  -1   8  66  200.38   57.43
   7   1 -69   21.96   26.51
  -1   8  69  -22.17   36.98
  -7  -1  69    0.57   14.87
  -7  -1  69   -7.19   26.60
  -1   8  69   15.77   33.31
  -7  -1  72   96.08   43.07
  -7  -1  72   51.41   38.10
   7   1 -72   72.79   42.32
   7   1 -75  245.56   72.51
  -7  -1  75  170.28   56.17
  -7  -1  75  160.94   60.71
   7   1 -78   16.56   32.70
   1  -8 -78   21.19   35.35
  -7  -1  78  -16.85   28.17
  -7  -1  78   -3.74   22.80
   7   1 -81    7.48   24.69
   1  -8 -81   25.68   35.24
  -7  -1  81  -20.86   31.54
  -7  -1  81   -7.46   24.70
   1  -8 -84   92.53   43.19
   7   1 -84   61.50   37.11
  -7  -1  84   27.73   41.96
   7   1 -87  110.44   58.21
   1  -8 -87  157.62   55.82
  -7  -1  87   86.86   51.38
   7   1 -90   48.50   38.90
   1  -8 -90   51.04   35.32
  -7  -1  90   51.61   34.52
  -8   6  91  -47.56   43.98
   6   2  91   61.31   66.89
  -8   6  88  107.24   50.30
   6   2  88  118.42   54.53
  -8   6  85  -42.85   35.14
   6   2  85   27.82   29.13
  -8   6  82  -42.13   38.69
   2  -8  82   -2.41   21.71
   6   2  82  -44.57   38.90
   6   2  79  130.57   48.74
  -8   6  79  146.52   63.11
   2  -8  79  109.33   43.63
  -8   6  79  200.52   54.11
   6   2  76   -8.31   17.95
  -8   6  76   10.03   17.76
   2  -8  76   12.12   31.62
  -8   6  76    8.87   18.66
  -8   6  73   79.72   42.86
   2  -8  73   54.35   31.21
   6   2  73   52.53   33.41
  -8   6  73   72.17   35.23
  -8   6  70  303.57   62.75
  -8   6  70  133.99   55.15
   2  -8  70  233.19   63.97
   6   2  70  222.85   65.33
  -8   6  67  -18.73   14.01
   6   2  67   48.74   36.96
  -8   6  67   64.72   36.77
   2  -8  67   39.68   30.69
  -8   6  64   11.06   15.06
  -8   6  64   45.48   32.73
   2  -8  64   18.64   24.40
   6   2  64   13.44   23.28
  -8   6  61   20.89   18.29
  -8   6  61    4.07   23.20
   6   2  61    4.43   15.98
   2  -8  61  -16.34   16.80
  -6  -2 -58   41.09   14.14
  -8   6  58   25.16   24.11
   2  -8  58   23.39   17.61
   6   2  58   -1.79   12.89
   2  -8  55    0.35   14.48
  -6  -2 -55   -8.59   11.83
  -8   6  55   10.29   11.19
   6   2  55    9.64   15.90
  -8   6  52  362.30   67.03
   6   2  52  315.87   72.56
  -2   8 -52  265.60   39.67
   2  -8  52  364.10   71.79
  -6  -2 -52  388.28   46.99
  -2   8 -49   44.00   16.53
  -6  -2 -49   90.06   24.10
   6   2  49   80.24   35.50
   2  -8  49   82.00   33.54
  -8   6  49   94.43   33.84
  -8   6  46  187.18   46.72
  -2   8 -46  138.29   27.13
   6   2  46  164.93   52.67
   2  -8  46  169.16   49.61
  -6  -2 -46  177.58   34.04
  -2   8 -43  307.02   38.22
  -6  -2 -43  462.76   57.47
  -8   6  43  389.45   66.14
   2  -8  43  445.82   77.46
   6   2  43  437.83   79.03
  -2   8 -40  107.38   23.58
   2  -8  40  139.43   41.99
  -8   6  40  151.46   43.46
   6   2  40   79.70   34.75
  -6  -2 -40  142.70   33.79
   6   2  37    2.21   15.73
   2  -8  37   68.12   30.35
  -6  -2 -37  110.84   30.09
  -8   6  37   84.66   33.75
  -2   8 -37   32.66   12.43
  -6  -2 -34  181.08   40.37
   2  -8  34  129.84   41.80
  -8   6  34  130.58   40.65
  -6  -2 -31 1425.42  107.05
   6   2  31 1238.92   94.99
   2  -8  31 1304.66  123.70
  -8   6  31 1308.04  122.30
  -8   6  28  132.70   40.01
   6   2  28  103.63   30.24
   2  -8  28  115.59   37.48
  -6  -2 -28  127.16   34.88
   2  -8  25  144.14   40.37
   6   2  25  135.87   32.96
  -8   6  25  118.11   37.80
  -6  -2 -25  137.88   35.79
   2  -8  22   21.55   20.42
   6   2  22   49.17   22.96
  -6  -2 -22   13.13   17.94
  -8   6  22   59.27   25.69
  -8   6  19  190.57   43.87
  -6  -2 -19  140.25   34.97
   2  -8  19  136.21   39.23
   6   2  19  176.14   39.68
  -8   6  16  182.32   43.97
   2  -8  16  276.11   55.44
  -6  -2 -16  224.17   46.92
   6   2  16  223.64   47.02
  -6  -2 -13  561.64   71.74
   6   2  13  566.75   71.21
   2  -8  13  537.45   76.33
  -8   6  13  547.97   74.96
   6   2  10   59.67   27.64
  -8   6  10   49.51   19.97
  -6  -2 -10   56.67   27.38
   2  -8  10   72.32   29.55
   2  -8   7  163.42   39.83
   6   2   7  162.37   38.09
  -6  -2  -7  136.51   36.57
   6   2   4 1069.34   99.64
  -6  -2  -4 1044.55  101.02
   2  -8   4 1092.25  102.18
   6   2   1  413.30   63.59
  -2   8  -1  358.96   43.34
  -6  -2  -1  428.05   66.09
   2  -8   1  342.40   57.10
  -2   8  -1  388.33   65.33
  -6  -2  -1  301.32   39.68
  -2   8   2   19.89   12.51
   2  -8  -2   44.19   18.84
  -6  -2   2   35.46   20.33
  -6  -2   2  -19.62   15.90
  -2   8   2   35.62   22.66
   6   2  -2   41.15   22.23
   6   2  -5  742.64   85.27
  -2   8   5  697.71   65.99
  -6  -2   5  641.74   83.12
  -2   8   5  776.23   85.45
  -6  -2   5  564.85   57.12
  -2   8   8  438.07   54.20
  -6  -2   8  496.99   75.12
  -2   8   8  407.41   52.95
  -2   8   8  489.30   68.10
  -6  -2   8  341.67   46.56
  -6  -2  11   39.56   16.01
  -2   8  11   85.49   25.12
  -6  -2  11   90.00   33.58
  -2   8  11   48.87   18.17
  -2   8  11   45.35   23.59
  -2   8  14   33.44   14.23
  -2   8  14   37.61   17.67
  -6  -2  14   57.69   26.52
  -6  -2  14   18.98   13.60
  -2   8  14   40.85   21.44
  -2   8  14   18.42   11.82
  -6  -2  17  322.97   63.25
  -2   8  17  263.45   44.67
  -2   8  17  232.87   33.80
   8  -6  17  244.93   26.84
  -2   8  17  261.99   44.14
  -2   8  17  281.42   48.91
  -6  -2  17  195.17   40.58
  -2   8  20  144.63   33.89
  -2   8  20  102.49   31.75
  -6  -2  20  103.15   38.14
   8  -6  20   98.07   17.76
  -6  -2  20   83.31   23.19
  -2   8  20  137.32   33.63
  -2   8  20   78.74   20.56
  -2   8  23   27.70   17.14
  -2   8  23   46.70   21.64
  -6  -2  23   29.71   15.07
   8  -6  23   23.51    8.92
  -2   8  23    1.40    8.50
  -2   8  23   24.08   17.72
  -2   8  26  199.86   43.24
  -2   8  26  156.36   35.84
  -6  -2  26  156.16   44.37
   8  -6  26  108.83   19.93
  -2   8  26   64.26   17.58
  -2   8  26  158.88   37.09
  -2   8  29   -3.72   11.99
  -2   8  29    3.18   13.28
  -6  -2  29    5.55   15.78
   8  -6  29   10.00    7.12
  -2   8  29  -15.54   15.32
  -2   8  29   11.11   17.98
  -2   8  32   88.17   29.90
  -6  -2  32   83.58   37.09
   8  -6  32   91.16   19.72
  -2   8  32   53.98   21.31
  -2   8  32   78.85   24.60
  -2   8  32   67.08   23.95
  -2   8  35  339.80   61.87
  -6  -2  35  329.87   66.19
  -2   8  35  305.58   47.15
  -2   8  35  323.16   57.89
  -2   8  38   -1.11   15.88
  -6  -2  38   28.98   16.16
  -2   8  38   14.94   17.17
  -2   8  38    0.38    8.86
  -2   8  41   59.55   31.27
  -6  -2  41    9.49   20.43
  -2   8  41    9.42   15.86
  -2   8  41   42.48   21.13
  -6  -2  44 1043.11  122.25
  -2   8  44 1068.83  117.16
  -2   8  44 1022.79  107.95
  -6  -2  44 1057.66   96.65
  -2   8  44 1033.37   81.41
   6   2 -44 1043.15  107.49
  -2   8  47   69.47   23.20
   6   2 -47  107.09   40.38
  -2   8  47  141.42   49.31
  -6  -2  47   54.12   25.19
  -6  -2  47   54.21   35.94
  -2   8  47   95.74   38.72
  -2   8  50  -14.95   17.65
   6   2 -50   -2.15   14.85
  -2   8  50   15.22   17.97
  -6  -2  50   11.50   15.52
  -6  -2  50    2.68   18.16
  -2   8  50   17.74   21.36
  -2   8  53   35.04   13.56
  -2   8  53   24.69   19.79
  -6  -2  53   92.96   33.41
   6   2 -53   87.29   36.78
  -6  -2  53   82.89   39.85
  -2   8  53   35.91   21.27
  -2   8  56  288.32   67.99
  -6  -2  56  178.05   47.10
  -6  -2  56  317.17   74.58
  -2   8  56  272.84   64.08
   6   2 -56  216.73   58.26
   6   2 -59  117.43   41.49
  -2   8  59   97.99   43.84
  -6  -2  59   44.16   23.95
  -6  -2  59   98.15   41.40
  -2   8  59   85.02   20.09
  -2   8  59   96.50   39.21
  -2   8  62  309.13   74.63
  -6  -2  62  335.89   63.27
  -6  -2  62  350.65   79.94
  -2   8  62  414.50   81.46
   6   2 -62  280.67   68.61
   6   2 -65  -24.35   22.14
  -2   8  65    6.79   15.06
  -6  -2  65   11.33   15.83
  -6  -2  65   43.04   36.97
   6   2 -68   -1.12   29.08
  -2   8  68   41.38   34.78
  -6  -2  68   72.49   34.75
  -6  -2  68   -3.92   19.64
   6   2 -71  100.18   48.88
  -2   8  71   66.37   41.50
  -6  -2  71  111.63   40.22
  -6  -2  71   67.93   33.91
   6   2 -74  121.88   51.67
  -2   8  74  161.15   57.94
  -6  -2  74  100.99   49.82
  -6  -2  74   75.97   36.09
   6   2 -77   13.04   20.33
  -2   8  77    5.74   16.90
  -6  -2  77   37.17   36.09
  -6  -2  77   59.89   37.96
   6   2 -80   70.51   41.50
  -2   8  80   48.40   45.45
  -6  -2  80   96.25   52.30
  -6  -2  80  125.89   44.95
   6   2 -83  135.28   54.28
  -2   8  83  136.41   55.28
  -6  -2  83  158.42   62.28
   6   2 -86  -32.95   32.86
  -6  -2  86   13.38   23.39
   6   2 -89   12.40   19.79
  -6  -2  89  -49.10   32.89
   6   2 -92    3.26   26.70
  -6  -2  92   27.58   25.44
  -8   5  92   32.90   36.29
  -5  -3 -92    2.26   40.95
   5   3  89    9.27   28.35
  -8   5  89   12.89   23.05
  -5  -3 -89  -21.49   34.20
   5   3  86    6.74   25.94
  -8   5  86  -29.38   38.92
  -5  -3 -86  -41.56   40.40
  -8   5  83   86.23   48.73
  -8   5  83  122.67   42.07
   5   3  83  124.76   54.77
  -5  -3 -83   95.84   46.37
   5   3  80   28.74   32.98
  -8   5  80   38.78   39.66
  -8   5  80   -3.45   18.71
  -8   5  77   31.03   27.56
   5   3  77   -5.38   20.61
  -8   5  77    6.23   19.43
  -8   5  74   51.15   32.12
   5   3  74   28.75   25.56
  -8   5  74   50.74   22.70
  -8   5  71   72.40   37.79
   5   3  71  101.38   45.41
  -8   5  71   59.15   34.89
  -8   5  68    7.34   23.90
  -8   5  68  -31.98   35.38
   5   3  68   54.29   36.32
  -8   5  65   93.09   37.96
  -8   5  65   50.88   32.48
   5   3  65   37.02   25.73
   5   3  62   91.67   37.47
  -8   5  62  161.90   48.08
  -8   5  62   93.07   39.01
   3  -8  62  113.51   41.20
  -8   5  59   36.08   25.45
   5   3  59   -9.93   21.14
  -8   5  59    6.00   19.95
   3  -8  59    6.90   17.15
  -3   8 -56  132.19   35.16
  -8   5  56   95.03   38.06
   5   3  56   56.85   31.31
  -5  -3 -56   44.37   10.92
   3  -8  56  110.81   42.89
  -3   8 -53   14.58   17.97
  -8   5  53    4.19   13.94
   3  -8  53   -1.95   21.42
   5   3  53   -4.62   17.53
  -5  -3 -53   -3.25    5.54
  -3   8 -50   15.46   19.02
   3  -8  50  -23.15   25.07
  -8   5  50   14.92   18.79
   5   3  50   18.26   24.40
  -5  -3 -50   32.69   14.01
  -5  -3 -47   76.72   21.16
  -3   8 -47   87.44   26.23
   3  -8  47  195.62   50.91
  -8   5  47  105.29   38.78
   5   3  47  120.33   48.72
   3  -8  44  306.18   62.21
   5   3  44  244.99   58.44
  -8   5  44  280.58   59.08
  -5  -3 -44  298.28   42.09
  -5  -3 -41   27.16   15.07
   5   3  41   16.46   25.68
   3  -8  41  -20.09   18.28
  -8   5  41    7.17   11.59
  -8   5  38   89.71   34.04
   5   3  38  135.77   30.93
  -5  -3 -38  165.26   39.54
   3  -8  38  203.94   50.53
   5   3  38  185.51   56.79
  -5  -3 -35 1105.54   87.11
   5   3  35  943.02  108.35
  -8   5  35 1001.70  104.47
   3  -8  35  968.14  104.78
   5   3  35  842.84   72.62
   3  -8  32   42.24   22.62
  -8   5  32   14.88   10.97
  -5  -3 -32   17.12   11.13
   5   3  32   60.58   23.38
  -5  -3 -29    5.70   15.16
   5   3  29   20.26   14.93
  -5  -3 -29    7.23   12.68
  -8   5  29   28.88   19.34
   3  -8  29   16.03   10.84
  -5  -3 -26   41.17   26.47
   5   3  26   26.63   18.49
  -5  -3 -26   22.21   20.20
   3  -8  26   40.20   25.02
  -8   5  26   20.56   20.76
  -5  -3 -23  616.95   70.00
   5   3  23  552.10   63.30
   3  -8  23  642.61   82.49
  -8   5  23  562.11   79.05
   5   3  20  230.11   43.17
  -8   5  20  246.05   51.98
  -5  -3 -20  225.38   44.45
   3  -8  20  331.82   59.43
   5   3  17  952.26   86.35
  -5  -3 -17  915.08   87.94
  -8   5  17  933.33   99.54
  -5  -3 -14  142.94   37.14
  -8   5  14  123.75   36.78
   5   3  14  123.30   33.54
  -5  -3 -11   37.62   18.59
   5   3  11   41.33   18.28
  -8   5  11   61.00   24.71
  -5  -3  -8   54.24   14.40
  -8   5   8  113.93   35.51
  -5  -3  -8  171.13   40.55
   5   3   8  141.83   35.63
   5   3   5  238.20   46.02
  -5  -3  -5  232.30   45.65
  -8   5   5  226.75   46.97
  -3   8  -5  206.48   43.16
  -5  -3  -5  110.12   18.46
  -3   8  -2  -27.25   23.41
  -5  -3  -2   -7.02   12.86
   5   3   2   11.20   12.53
  -5  -3  -2  -35.45   14.82
  -8   5   2    8.11    8.76
   5   3  -1  198.06   42.15
  -5  -3   1  172.66   43.31
  -3   8   1  210.56   45.58
  -8   5  -1  171.04   41.81
  -5  -3   1  142.24   22.10
  -3   8   1  147.71   27.14
  -8   5  -4  726.27   84.04
  -3   8   4  775.33   83.12
  -5  -3   4  711.62   85.45
  -3   8   4  707.13   60.94
  -5  -3   4  603.50   48.15
   5   3  -4  772.65   83.44
   5   3  -7   52.35   21.16
  -5  -3   7   48.13   22.79
  -3   8   7   32.12   14.37
  -8   5  -7   38.36   21.48
  -3   8   7   42.36   21.47
  -3   8  10   19.43   14.16
  -5  -3  10   39.21   24.42
  -3   8  10   54.29   25.86
  -5  -3  13  406.41   65.85
  -3   8  13  470.70   58.84
  -3   8  13  443.71   51.83
  -3   8  13  484.53   64.71
  -3   8  16   55.12   20.77
  -3   8  16   51.14   21.95
  -5  -3  16   43.44   22.27
  -3   8  16   34.44   17.54
  -3   8  16   24.85   14.55
  -3   8  19    8.61   12.86
  -3   8  19    5.73   15.96
  -5  -3  19   -1.69   11.57
  -3   8  19   27.89   15.22
  -3   8  19   27.90   15.29
  -3   8  22   51.95   17.39
  -3   8  22   95.06   31.48
  -5  -3  22   87.13   33.34
   8  -5  22   87.77   20.70
  -3   8  22   80.57   22.96
  -3   8  22   80.67   22.64
   8  -5  25   28.66   12.67
  -3   8  25   23.50   11.81
  -3   8  25   70.61   26.45
  -5  -3  25   79.81   34.86
  -3   8  25   47.86   19.49
  -3   8  25   41.97   18.59
  -5  -3  28  -30.31   23.19
   8  -5  28    1.13    7.98
  -3   8  28   10.83    8.34
  -3   8  28   -3.71   11.49
  -3   8  28   -5.53   12.27
  -3   8  31  266.34   51.16
  -5  -3  31  311.39   62.89
   8  -5  31  298.00   41.00
  -3   8  31  319.20   52.38
  -3   8  31  291.06   46.15
   5   3 -31  314.77   49.91
  -3   8  31  290.02   46.44
   5   3 -34   15.40   15.90
  -3   8  34   50.56   23.55
   8  -5  34    2.92    8.87
  -3   8  34   25.04   21.09
  -5  -3  34    6.92   14.74
  -3   8  34   25.80   11.12
  -3   8  34    9.23   11.47
   5   3 -37   47.37   23.23
  -3   8  37   36.09   25.90
  -5  -3  37   40.52   24.06
  -5  -3  37   -7.64   14.49
   8  -5  37   30.13   14.42
  -3   8  37   25.57   19.16
  -3   8  37   47.11   19.08
  -3   8  37    2.25   11.83
  -5  -3  40  681.78   99.42
  -3   8  40  714.07   91.80
  -5  -3  40  687.97   67.52
  -3   8  40  789.96   74.98
   5   3 -40  674.85   80.82
   8  -5  40  765.30   71.96
  -3   8  40  766.49   88.42
  -3   8  40  721.68   79.74
   5   3 -43   48.50   22.50
  -5  -3  43   39.73   31.17
  -3   8  43  110.23   40.97
  -5  -3  43   45.20   22.02
  -3   8  43   72.25   32.39
   8  -5  43   22.83   16.66
  -3   8  43   60.87   25.17
  -3   8  43   69.61   25.75
   5   3 -46  -35.89   28.41
  -5  -3  46   12.20   14.42
  -3   8  46  -29.70   22.57
  -5  -3  46  -10.06   13.01
   8  -5  46   -5.70    8.72
  -3   8  46  -10.89   19.52
  -3   8  46   -0.29    7.91
   5   3 -49   20.56   22.08
   8  -5  49   21.28   17.59
  -5  -3  49    8.66   10.45
  -3   8  49   36.40   25.94
  -3   8  49   -0.24   14.23
  -3   8  49   20.90   18.50
  -5  -3  52  630.50   72.83
  -3   8  52  796.65  106.46
  -3   8  52  746.19   67.64
   5   3 -52  643.91   89.19
  -5  -3  52  794.22  112.98
  -5  -3  55  143.21   37.52
  -5  -3  55  225.60   60.15
  -3   8  55  194.79   58.28
  -3   8  55  193.29   37.05
  -3   8  55  149.45   30.13
   5   3 -55   80.52   34.80
  -5  -3  58  116.12   32.77
  -5  -3  58  137.67   48.69
  -3   8  58  161.16   52.44
  -3   8  58  125.18   27.46
   5   3 -58   84.96   33.72
  -3   8  61    7.25    7.15
  -5  -3  61   33.20   22.70
  -5  -3  61   88.82   43.05
  -3   8  61   11.25   19.71
   5   3 -61   64.50   32.63
  -5  -3  64   54.67   26.57
  -3   8  64   59.42   34.02
  -5  -3  64   81.40   44.53
   5   3 -64   48.20   33.23
  -5  -3  67   69.41   41.23
  -5  -3  67   -2.21   14.77
  -3   8  67   23.13   27.97
   5   3 -67    3.41   20.51
  -5  -3  70  244.59   67.22
  -5  -3  70  159.40   43.82
  -3   8  70  214.89   62.47
   5   3 -70  135.37   53.82
  -5  -3  73   70.92   30.66
  -5  -3  73   23.13   29.24
  -3   8  73  121.94   54.82
   5   3 -73   80.76   34.93
  -5  -3  76   69.56   45.69
  -3   8  76    9.12   20.75
   5   3 -76   44.00   29.52
  -5  -3  79  137.40   55.45
  -3   8  79  198.68   67.19
   5   3 -79  196.94   63.08
  -5  -3  82   23.58   28.14
  -3   8  82  -15.54   32.97
   5   3 -82   58.27   39.28
  -5  -3  85  -38.89   38.41
  -3   8  85   22.18   28.34
   5   3 -85   -8.42   21.01
  -5  -3  88    0.48   17.50
   5   3 -88   30.99   27.65
  -3   8  91   79.44   47.04
  -5  -3  91    2.32   21.13
   5   3 -91  126.01   53.58
  -5  -3  94   -3.41   25.70
   5   3 -94  -35.99   44.93
  -8   4  93  -11.86   35.68
  -4  -4 -93  -70.34   33.07
  -8   4  90  -56.66   43.03
   4   4  90    0.58   22.68
  -4  -4 -90  -47.04   44.43
  -8   4  87   72.82   41.09
   4   4  87   75.71   38.42
  -4  -4 -87   97.64   48.28
  -8   4  84    3.39   25.02
  -4  -4 -84   -7.92   31.45
  -8   4  84    8.82   21.31
   4   4  84   12.66   21.82
  -8   4  81  -23.37   33.49
   4   4  81  -27.11   35.32
  -4  -4 -81    8.78   35.58
  -8   4  81   -8.89   28.35
  -8   4  78    5.58   20.63
  -8   4  78   31.25   16.70
   4   4  78  -20.68   20.78
  -4  -4 -78  -14.54   23.27
  -8   4  75  108.40   46.32
   4   4  75  139.32   57.30
  -8   4  75  117.03   39.58
  -4  -4 -75  108.20   41.11
  -8   4  72  -16.57   24.23
  -4  -4 -72  -31.25   33.53
   4   4  72   23.86   21.30
  -8   4  72   33.03   30.75
  -8   4  69  113.37   46.99
   4   4  69  111.09   43.59
  -8   4  69   93.39   39.36
  -4  -4 -69   72.95   27.65
  -4  -4 -66  -16.22   24.58
  -8   4  66  -25.11   32.15
   4   4  66   22.60   23.78
  -8   4  66   20.24   17.84
  -8   4  63   30.70   31.08
   4   4  63   34.03   28.03
  -4  -4 -63  -19.75   29.09
  -8   4  63   68.59   29.48
  -8   4  60  254.40   58.14
  -8   4  60  169.65   55.28
   4   4  60  224.39   60.99
  -4  -4 -60  119.05   38.36
  -4   8 -57   76.07   48.01
  -8   4  57   10.39   20.49
  -8   4  57   -1.80   17.35
   4   4  57    6.96   17.19
  -4   8 -57  108.57   29.41
  -4  -4 -57   10.05   14.91
  -8   4  54   55.88   25.84
  -4   8 -54   34.26   14.72
   4   4  54   29.51   25.72
  -8   4  51  106.61   40.07
  -4  -4 -51   55.22   14.32
  -4   8 -51   55.64   19.50
   4   4  51   84.52   40.54
  -4  -4 -48  494.71   47.36
   4   4  48  477.82   84.64
  -8   4  48  518.27   79.50
   4   4  45   26.17   20.05
   4   4  45   11.60    8.69
  -8   4  45   17.19   19.56
  -4  -4 -45   69.17   19.83
   4   4  42   33.16   25.91
   4   4  42   34.35   12.94
  -8   4  42   28.23   19.44
  -4  -4 -42   55.83   21.75
   4   4  39  557.87   54.74
  -4  -4 -39  658.08   64.22
   4   4  39  546.44   85.73
  -8   4  39  586.76   83.52
  -4  -4 -36   23.98   14.11
   4   4  36    0.40    7.12
   4   4  36   18.05   19.97
  -8   4  36   46.92   26.29
   4   4  33  -30.42   17.94
  -4  -4 -33    9.39   13.21
   4   4  33   -7.45   21.10
  -8   4  33   -7.32   20.43
  -4  -4 -30   88.92   29.78
  -4  -4 -30   53.70   29.77
   4   4  30   84.34   27.10
  -8   4  30   54.65   27.11
  -4  -4 -27  401.92   65.70
  -8   4  27  355.70   62.42
   4   4  27  362.06   48.22
  -4  -4 -27  456.23   57.77
  -4  -4 -24   57.75   25.77
  -4  -4 -24   19.74   14.28
  -8   4  24    9.60   10.34
   4   4  24   58.79   21.95
  -4  -4 -21  227.26   43.52
  -4  -4 -21  225.92   44.43
  -8   4  21  213.88   45.55
   4   4  21  237.94   41.22
  -4  -4 -18   89.77   28.97
  -4  -4 -18   82.46   26.12
   4   4  18   30.58   16.58
  -8   4  18   45.73   19.27
  -4  -4 -18   26.52    6.55
  -4  -4 -15   23.33   15.98
  -4  -4 -15   40.71   21.50
   4   4  15   40.45   15.66
  -8   4  15   32.67   20.41
  -4  -4 -12  155.58   33.33
  -4  -4 -12  158.33   36.39
   4   4  12  132.31   29.88
  -8   4  12  150.76   40.56
  -4  -4  -9   25.18   12.64
   4   4   9   40.49   16.10
  -4  -4  -9   58.84   23.18
  -8   4   9   22.20   14.84
  -8   4   6   51.85   21.08
   4   4   6   17.08   14.66
  -4  -4  -6   14.30   12.84
  -4   8  -6   29.78   10.40
   4   4   3   16.82   12.42
  -8   4   3   -5.00    9.75
  -4  -4  -3   10.79   10.52
  -4   8  -3   -7.87    9.07
  -4   8  -3   16.89   15.20
  -4  -4   0  673.93   79.85
   4   4   0  658.19   74.61
  -4   8   0  689.20   80.44
  -4   8   0  677.64   49.72
  -8   4   0  588.19   74.94
   4   4  -3   22.29   15.62
  -8   4  -3   26.37   17.58
  -4  -4   3   19.27   14.89
  -4   8   3   42.51   22.01
  -4   8   3   32.70   12.39
  -4   8   6  115.16   22.01
   4   4  -6  124.87   35.17
  -4  -4   6   92.23   28.91
  -8   4  -6  129.84   36.90
  -4   8   6  134.51   36.21
  -8   4  -9   78.57   29.48
   4   4  -9  101.40   29.46
  -4  -4   9   85.84   31.31
  -4   8   9  109.25   29.77
  -4   8   9   99.45   21.32
  -4  -4  12   91.87   31.68
  -8   4 -12   71.71   28.94
  -4   8  12  101.57   22.51
  -4   8  12  123.03   34.13
  -4  -4  15   49.07   22.34
  -8   4 -15   57.86   20.69
  -4   8  15   28.36   13.89
  -4   8  15   67.84   19.70
  -4  -4  18  266.53   54.84
  -4   8  18  303.25   42.31
  -8   4 -18  289.08   49.34
  -4   8  18  351.66   54.86
  -4   8  18  326.75   48.53
   4   4 -21  218.56   32.51
  -4  -4  21  305.05   60.26
  -4   8  21  299.20   51.26
  -4   8  21  337.94   45.55
  -4   8  21  330.37   50.22
  -8   4 -21  231.34   45.86
  -4   8  24   70.95   23.45
   4   4 -24   91.20   24.08
  -4  -4  24  106.90   35.99
  -8   4 -24   31.87   14.83
  -4   8  24  101.17   33.57
  -4   8  24   76.05   23.09
  -4   8  24   62.65   25.41
  -4  -4  27  401.29   35.26
  -4   8  27  553.65   72.90
  -4   8  27  609.87   70.60
   8  -4  27  578.87   62.56
  -4   8  27  596.62   66.12
  -8   4 -27  503.26   66.62
  -4   8  27  547.47   65.77
   4   4 -27  510.45   56.53
  -4  -4  27  580.63   85.68
   4   4 -30   18.47   17.58
  -8   4 -30   83.52   32.18
  -4   8  30   71.37   29.25
  -4  -4  30   51.07   25.11
  -4  -4  30   18.54    9.17
  -4   8  30   82.67   33.14
   8  -4  30   23.25   16.96
  -4   8  30   57.39   26.66
  -4   8  30   15.74   17.14
   8  -4  33   -0.55   10.86
  -4  -4  33  -58.13   37.38
  -8   4 -33   -8.06   14.43
  -4  -4  33  -12.91    8.64
  -4   8  33  -16.50   16.92
  -4   8  33  -10.03   16.56
  -4   8  33   12.27   14.05
  -4   8  33  -31.57   23.11
   4   4 -33   -5.18   11.89
  -8   4 -36  276.57   47.97
  -4  -4  36  204.97   27.90
  -4  -4  36  301.71   62.17
  -4   8  36  365.84   64.56
  -4   8  36  338.21   50.59
   8  -4  36  314.25   50.61
  -4   8  36  249.80   47.09
   4   4 -36  294.12   48.22
  -4   8  39  210.91   40.57
  -4  -4  39   92.61   20.87
  -4  -4  39  146.02   46.30
  -8   4 -39  142.12   36.01
  -4   8  39  220.38   53.90
   8  -4  39  137.97   34.84
   4   4 -39  113.34   31.10
  -4  -4  42   94.81   20.94
  -4  -4  42   85.85   38.22
  -4   8  42  118.00   36.98
  -4   8  42  131.52   29.89
   8  -4  42  126.03   35.17
   4   4 -42   91.51   26.55
  -4  -4  45  -11.58   10.64
  -4  -4  45  -21.96   25.11
  -4   8  45   -6.71   11.34
  -4   8  45   19.63   21.99
   8  -4  45    5.97   11.63
   4   4 -45  -27.25   24.30
  -4  -4  48  481.89   51.77
  -4   8  48  677.85   94.09
  -4  -4  48  573.66   94.76
  -4   8  48  652.36   69.00
   8  -4  48  592.34   74.44
   4   4 -48  536.31   76.36
  -4  -4  51    4.96   10.33
  -4  -4  51   14.71   26.29
  -4   8  51   56.69   38.69
  -4   8  51   71.68   31.44
   8  -4  51   28.78   16.63
   4   4 -51  -17.48   17.00
  -4   8  51   36.95   22.38
  -4  -4  54   43.04   27.73
  -4   8  54   70.59   29.87
  -8   4 -54   22.55   11.23
  -4   8  54   36.96   17.10
   8  -4  54   49.76   24.43
   4   4 -54    5.87   17.26
  -4   8  54   78.37   24.02
  -4  -4  57   49.24   36.19
  -4   8  57  -17.83   14.14
  -4   8  57   22.13   25.45
  -4   8  57   43.50   20.42
   8  -4  57   26.56   19.86
   4   4 -57  -26.78   25.79
  -4  -4  60   85.79   40.06
  -4   8  60   81.63   37.52
   8  -4  60  104.99   34.66
  -4   8  60   63.68   22.79
   4   4 -60   27.07   20.32
  -8   4 -60   62.61   24.55
  -4  -4  63   17.64   24.73
  -4   8  63    1.88    7.03
  -4   8  63  -14.41   25.77
  -8   4 -63   14.96   16.53
   4   4 -63   -8.77   22.91
  -4  -4  66   49.54   36.95
  -8   4 -66   40.79   20.49
  -4   8  66   23.16   14.45
   4   4 -66  -10.95   23.62
  -4  -4  69   70.54   32.74
  -4   8  69   73.62   34.36
  -8   4 -69   55.40   19.91
   4   4 -69   61.26   36.10
  -4  -4  72    2.86   18.62
  -4   8  72  -43.13   42.37
  -8   4 -72  -12.05   14.82
   4   4 -72   -5.47   23.13
  -4   8  75   91.12   43.05
   4   4 -75  101.63   46.74
  -4  -4  75  115.60   50.04
  -4   8  78  -21.27   35.84
   4   4 -78  -53.75   36.03
  -4  -4  78   14.42   16.61
  -4   8  81  -45.71   40.10
  -4  -4  81  -35.80   43.06
   4   4 -81  -45.98   38.23
  -4   8  84   11.84   28.48
  -4  -4  84  -13.61   32.30
   4   4 -84   14.81   21.04
  -4   8  87   89.84   41.34
  -4  -4  87   53.61   27.23
   4   4 -87   35.84   28.85
  -4  -4  90  -21.42   28.13
   4   4 -90  -33.66   30.56
  -4  -4  93   70.44   45.94
   4   4 -93   19.46   34.09
  -8   3  94  -27.73   37.44
  -3  -5 -94   -6.75   22.71
  -8   3  91  147.03   61.19
  -3  -5 -91   67.19   38.61
  -8   3  88   11.24   25.55
  -8   3  88   40.03   30.92
   3   5  88   19.84   23.46
  -8   3  85   -8.75   30.64
  -8   3  85  -17.98   29.04
   3   5  85   -7.74   25.86
  -3  -5 -85  -45.49   45.67
  -8   3  82   26.54   29.60
  -3  -5 -82  -13.42   28.30
  -8   3  82   34.64   25.82
   3   5  82   36.87   39.59
  -8   3  79  149.98   60.54
  -8   3  79  162.22   56.77
   3   5  79  146.57   57.83
  -3  -5 -79  140.85   51.79
  -8   3  76   99.69   49.30
  -8   3  76   29.49   32.24
  -3  -5 -76   -4.41   22.78
   3   5  76   62.76   40.18
  -8   3  73  126.62   53.22
  -8   3  73  146.80   48.00
   3   5  73  115.73   50.44
  -3  -5 -73   59.48   31.10
  -8   3  70  -49.89   28.98
  -8   3  70   13.23   26.03
   3   5  70   49.41   30.61
  -3  -5 -70  -12.40   19.35
  -8   3  67  197.54   53.79
  -8   3  67  168.32   55.45
   3   5  67  115.56   49.39
  -3  -5 -67  122.21   40.77
  -8   3  64   10.77   20.52
   3   5  64   64.00   41.49
  -8   3  64   59.56   30.43
  -3  -5 -64   32.50   27.42
   3   5  61  130.06   49.16
  -8   3  61  143.02   48.10
  -8   3  61  113.33   38.21
  -3  -5 -61   77.04   30.81
  -8   3  58   48.89   31.47
  -5   8 -58   87.44   29.68
   3   5  58   -1.87   20.96
  -3  -5 -58   24.95   17.14
  -8   3  58   28.83   18.51
  -8   3  55   69.90   34.18
  -5   8 -55   92.43   25.30
   3   5  55   20.31   22.35
  -3  -5 -55   84.29   30.64
  -8   3  52  873.58  109.18
   3   5  52  847.18  113.36
  -5   8 -52  799.34   69.26
  -3  -5 -52  785.20   86.23
  -8   3  49   56.85   30.66
   3   5  49   58.96   36.75
   3   5  49   22.05    8.68
  -5   8 -49   35.95   16.97
  -3  -5 -49   30.05   20.65
  -8   3  46   40.82   22.09
   3   5  46   32.30   23.21
   3   5  46   37.98   11.35
  -3  -5 -46   24.95   10.44
  -5   8 -46   19.93   12.12
  -3  -5 -46    2.30   16.33
   3   5  43  453.61   44.57
  -3  -5 -43  296.40   47.48
   3   5  43  350.78   70.96
  -3  -5 -43  427.66   47.20
  -5   8 -43  360.05   39.72
  -8   3  43  400.13   71.49
   3   5  40  103.56   40.07
  -5   8 -40  107.18   21.31
  -8   3  40  121.26   40.96
  -3  -5 -40  112.24   25.16
   3   5  40   98.88   22.61
  -3  -5 -40   68.75   18.35
  -8   3  37  154.90   42.79
   3   5  37  168.42   29.51
  -5   8 -37  131.01   21.59
   3   5  37   98.73   33.38
  -3  -5 -37  128.05   25.36
  -3  -5 -37  190.78   34.13
   3   5  34  149.18   43.42
   3   5  34  202.00   33.23
  -8   3  34  219.02   50.95
  -5   8 -34  162.93   21.74
  -3  -5 -34  193.01   36.60
  -3  -5 -34  136.97   24.34
  -5   8 -31  151.85   19.69
  -3  -5 -31  172.47   42.52
   3   5  31  188.61   44.95
  -8   3  31  194.36   46.13
   3   5  31  165.71   31.15
  -3  -5 -31  216.66   38.07
  -3  -5 -31  164.89   24.54
   3   5  28    5.14    8.13
  -3  -5 -28    9.50   10.55
  -8   3  28    8.36   12.75
  -5   8 -28    2.31    3.16
  -3  -5 -28   -0.66   14.54
  -3  -5 -28   15.58    9.42
  -3  -5 -25   43.53   10.92
   3   5  25   29.68   12.30
  -3  -5 -25   27.64   16.49
  -8   3  25    7.04   11.89
  -5   8 -25   22.13    5.90
  -3  -5 -25   29.55   14.11
   3   5  22    3.83   13.46
  -3  -5 -22    1.40   10.07
  -8   3  22    6.84   12.67
  -3  -5 -22    1.30    9.79
   3   5  19   -0.99   14.83
  -3  -5 -19   43.21   21.23
  -3  -5 -19   22.46   13.61
  -8   3  19   39.16   22.60
  -3  -5 -16  261.02   47.40
  -8   3  16  249.02   53.16
  -3  -5 -16  203.55   39.82
   3   5  16  223.16   41.71
  -8   3  16  252.42   52.25
  -3  -5 -13   62.98   25.49
  -8   3  13   72.52   27.68
  -3  -5 -13   84.28   22.02
   3   5  13   57.42   23.23
  -3  -5 -10  128.39   34.97
  -8   3  10  114.93   33.10
  -3  -5 -10  111.95   26.77
   3   5  10  106.37   30.44
  -3  -5  -7   92.77   29.17
  -3  -5  -7   67.82   21.56
  -8   3   7  111.90   35.87
   3   5   7  121.12   30.16
  -3  -5  -4  804.60   62.95
  -8   3   4  939.19   95.07
   3   5   4  918.42   87.27
  -3  -5  -4  856.16   88.82
  -3  -5  -1  137.44   37.39
  -3  -5  -1   88.42   19.93
  -8   3   1   72.89   24.71
   3   5   1  135.14   35.06
  -3  -5   2   19.98   13.72
  -3  -5   2    0.41    6.78
  -5   8   2  -21.00   17.82
  -8   3  -2    6.59   12.23
   3   5  -2  -14.67   16.89
  -3  -5   5   55.38   24.35
  -3  -5   5   51.50   12.66
  -5   8   5   62.67   26.88
  -8   3  -5   86.53   30.00
   3   5  -5   45.68   20.31
  -3  -5   8  141.97   17.69
  -3  -5   8  236.50   50.19
  -5   8   8  260.45   49.35
  -8   3  -8  197.69   45.52
   3   5  -8  237.91   45.74
  -3  -5  11   30.41   19.84
  -3  -5  11    7.50    4.36
  -5   8  11   32.94   19.86
  -8   3 -11   26.43   20.54
  -5   8  14  610.49   76.44
  -8   3 -14  542.49   72.43
  -3  -5  14  554.38   77.72
   3   5 -14  494.96   37.72
  -8   3 -17  170.17   41.40
  -3  -5  17  171.01   44.35
  -5   8  17  186.71   43.07
   3   5 -17  220.10   29.98
  -3  -5  20  376.67   65.86
  -5   8  20  476.92   65.34
   3   5 -20  373.38   40.29
  -8   3 -20  434.09   63.85
  -5   8  20  355.21   54.95
  -5   8  23  593.80   74.15
   3   5 -23  482.36   49.83
  -3  -5  23  547.85   81.75
  -8   3 -23  517.00   69.27
  -5   8  23  595.93   72.35
  -3  -5  26   43.22   32.28
  -8   3 -26   70.79   28.59
  -5   8  26   13.10   15.60
   3   5 -26  -13.74   10.07
  -5   8  29    7.58    9.88
  -3  -5  29    8.85   16.36
  -8   3 -29   55.03   24.38
   8  -3  29   30.67   21.71
   5  -8 -29   58.23   23.34
   3   5 -29   -0.87   10.46
  -3  -5  32  204.39   52.39
   5  -8 -32  274.24   47.19
  -8   3 -32  291.21   51.33
   8  -3  32  297.04   50.55
   3   5 -32  279.10   43.78
  -8   3 -35  449.47   63.18
  -5   8  35  553.62   80.09
   5  -8 -35  552.60   69.62
  -3  -5  35  523.65   83.40
   3   5 -35  447.92   60.06
   8  -3  35  412.10   61.39
  -8   3 -38  713.93   79.51
  -5   8  38  643.76   87.64
   5  -8 -38  724.87   85.07
   8  -3  38  703.74   83.24
  -3  -5  38  576.60   90.23
   3   5 -38  580.78   70.32
  -3  -5  41  -23.15   26.43
  -5   8  41   42.43   30.18
  -8   3 -41    0.75   11.41
   8  -3  41   15.93   17.64
   3   5 -41   11.01   14.91
  -3  -5  44  213.46   57.29
  -5   8  44  219.76   53.03
  -8   3 -44  130.54   32.09
   8  -3  44  157.17   41.25
   3   5 -44  188.87   44.51
  -3  -5  47   23.42   25.58
  -5   8  47  111.27   44.50
  -8   3 -47  110.51   32.18
   8  -3  47   87.25   35.67
   3   5 -47   48.56   19.13
  -3  -5  50   40.93   29.50
  -5   8  50   37.39   18.23
  -8   3 -50   44.33   20.83
  -5   8  50   26.44   20.28
   8  -3  50   18.95   12.96
   3   5 -50   31.63   20.97
   3   5 -53  -33.26   23.54
  -8   3 -53   -4.82   14.58
  -5   8  53    1.91   17.58
  -5   8  53   13.18    8.38
   8  -3  53    7.40   12.37
  -3  -5  53  -20.56   28.48
  -3  -5  56  128.97   49.07
  -5   8  56  211.39   43.37
  -8   3 -56  176.71   38.97
   3   5 -56  155.38   44.47
  -5   8  56  264.45   60.64
   8  -3  56  120.84   37.80
  -8   3 -59    7.28   12.17
  -5   8  59  -10.95   27.89
  -5   8  59    5.53   10.95
  -8   3 -59  -16.55   19.20
   8  -3  59   32.06   26.66
   3   5 -59   29.72   27.15
  -3  -5  59  -10.09   25.78
  -8   3 -62    6.88   13.07
  -5   8  62   14.86    8.92
  -5   8  62   56.85   30.87
   8  -3  62   50.13   27.99
   3   5 -62   37.10   22.93
  -3  -5  62   20.58   15.34
  -5   8  65  -15.11   24.28
   8  -3  65   46.18   25.89
  -5   8  65   60.11   23.58
   3   5 -65   48.74   31.50
  -3  -5  65    3.98   34.21
  -8   3 -65   40.05   20.95
  -5   8  68  -25.40   25.18
   8  -3  68   15.59   21.98
  -8   3 -68  -18.71   15.37
  -5   8  68   -6.25    8.09
   3   5 -68   16.25   17.81
  -3  -5  68  -12.09   20.55
  -5   8  71  200.34   61.61
  -8   3 -71  174.62   40.36
   8  -3  71  210.41   67.73
   3   5 -71  215.71   60.46
  -3  -5  71  160.46   55.21
   3   5 -74   13.16   29.18
  -5   8  74  -16.95   24.34
  -3  -5  74   34.20   25.96
  -5   8  77  -17.39   33.35
  -3  -5  77   -4.49   28.89
   3   5 -77   17.68   21.06
  -5   8  80  -16.62   25.34
   3   5 -80   20.44   20.12
  -5   8  83  110.37   45.92
  -3  -5  83  140.27   57.04
   3   5 -83  159.24   57.13
  -5   8  86    4.38   17.97
  -3  -5  86   88.84   52.22
   3   5 -86   79.56   40.38
  -5   8  89   -9.37   30.71
  -3  -5  89   -9.93   24.73
   3   5 -89   26.29   27.92
  -3  -5  92   21.52   22.06
   3   5 -92    1.10   19.42
  -8   2  92   17.86   24.87
  -2  -6 -92   94.80   38.36
  -8   2  89    8.84   25.12
  -8   2  89   21.25   34.02
  -2  -6 -89   -7.72   29.88
  -8   2  86   34.13   17.46
  -8   2  86  117.69   80.78
   2   6  86   75.21   43.89
  -2  -6 -86   -7.06   19.42
  -8   2  83  294.08   81.38
  -8   2  83  228.80   65.74
   2   6  83  303.77   87.46
  -2  -6 -83  207.53   61.89
   2   6  80   67.91   49.98
  -8   2  80  -11.25   20.26
  -8   2  80   25.25   20.85
  -2  -6 -80  -41.89   38.69
  -8   2  77   -2.81   20.73
  -8   2  77   16.66   16.76
  -2  -6 -77  -22.58   32.60
   2   6  77   64.54   41.58
  -8   2  74   50.05   33.27
   2   6  74   59.33   34.67
  -8   2  74   43.73   36.49
  -2  -6 -74   46.75   31.30
  -8   2  71  219.42   64.00
  -8   2  71  206.18   60.88
   2   6  71  201.71   64.21
  -2  -6 -71  201.45   54.86
  -8   2  68   10.93   21.01
  -8   2  68   86.85   45.15
   2   6  68   39.03   33.76
  -2  -6 -68   58.32   25.54
  -8   2  65  149.34   51.03
   2   6  65  150.34   49.54
  -8   2  65  115.56   42.81
  -2  -6 -65  138.64   41.99
  -8   2  62   44.15   27.25
   2   6  62   29.06   15.24
  -8   2  62   49.66   34.79
  -2  -6 -62   37.97   21.97
  -8   2  59   98.99   38.90
   2   6  59   55.29   31.84
  -8   2  59  132.17   47.24
  -2  -6 -59   65.12   33.45
  -8   2  56  460.69   85.70
  -8   2  56  482.92   86.10
   2   6  56  516.47   92.71
  -2  -6 -56  445.37   66.70
   2   6  53   17.65   19.82
  -6   8 -53  -12.55   12.80
  -8   2  53   56.84   35.10
  -2  -6 -53   36.38   24.78
  -6   8 -50   -0.58    7.21
   2   6  50   19.39   25.32
  -8   2  50    1.64   27.23
   2   6  50  -14.19    9.89
  -2  -6 -50  -18.00   20.07
  -2  -6 -47  311.03   50.19
  -6   8 -47  318.11   37.94
   2   6  47  425.22   80.04
   2   6  47  291.42   32.23
  -8   2  47  349.10   72.36
  -2  -6 -44  331.90   48.88
   2   6  44  366.30   72.51
  -8   2  44  427.59   78.97
  -6   8 -44  302.79   34.68
   2   6  44  328.08   37.30
  -2  -6 -41  295.64   41.45
  -8   2  41  211.55   54.27
  -2  -6 -41  344.84   45.72
  -6   8 -41  252.83   29.71
   2   6  41  369.87   71.24
   2   6  41  274.90   34.97
  -2  -6 -38  103.35   23.38
   2   6  38   82.16   22.12
  -8   2  38   95.11   37.04
   2   6  38   77.33   31.31
  -2  -6 -38  112.49   27.60
  -8   2  35  287.32   60.46
   2   6  35  306.01   42.47
  -2  -6 -35  301.42   44.08
   2   6  35  321.42   62.12
  -8   2  32   36.75   23.87
  -2  -6 -32    9.34   19.86
   2   6  32   22.57   20.54
  -2  -6 -32   40.54   20.34
   2   6  32   13.94   12.24
  -8   2  29   26.67   14.92
  -2  -6 -29  -15.07   18.50
   2   6  29  -13.07   18.20
  -2  -6 -29    3.04   13.02
   2   6  29   -4.82   11.44
  -8   2  26  110.31   37.39
  -2  -6 -26   93.38   28.76
  -2  -6 -26   87.04   26.20
   2   6  26   93.17   25.09
  -2  -6 -23   75.54   27.70
  -8   2  23  115.22   38.09
   2   6  23   97.97   27.63
  -2  -6 -23   59.29   21.14
  -2  -6 -20  201.52   39.34
  -8   2  20  201.66   48.14
  -8   2  20  262.48   53.89
   2   6  20  231.90   41.00
  -2  -6 -20  236.32   43.98
  -8   2  17   80.78   34.24
  -2  -6 -17   44.44   16.67
  -8   2  17   65.49   27.53
   2   6  17   65.71   23.92
  -2  -6 -17   58.06   23.05
  -8   2  14   48.94   25.03
  -2  -6 -14   29.79   16.01
  -8   2  14    5.46   13.28
   2   6  14   18.02   15.80
  -2  -6 -14    3.95   12.12
  -2  -6 -11   35.37   18.16
   2   6  11   46.12   22.88
  -8   2  11   31.53   20.62
  -2  -6 -11   53.11   26.79
  -8   2   8  808.69   91.90
  -2  -6  -8  706.65   63.15
   2   6   8  857.98   85.31
  -2  -6  -8  861.42   88.23
   2   6   5  131.32   34.12
  -8   2   5   69.33   27.73
  -2  -6  -5  101.58   24.94
  -2  -6  -5   90.65   32.17
   2   6   2   59.75   25.69
  -8   2   2   33.90   19.95
  -2  -6  -2   48.52   23.31
   2   6  -1  199.53   41.86
  -2  -6   1  214.93   48.46
  -8   2  -1  198.10   43.81
  -8   2  -4 1029.46  100.26
   2   6  -4 1223.58  107.98
  -2  -6   4 1076.91  106.51
  -8   2  -7  324.28   55.81
   2   6  -7  393.37   62.89
  -2  -6   7  398.73   65.20
  -8   2 -10  298.56   54.25
   2   6 -10  168.89   17.83
  -2  -6  10  238.31   50.78
  -8   2 -13   63.25   27.07
   2   6 -13   19.27    7.38
  -2  -6  13   92.11   36.34
  -8   2 -16  349.48   56.02
  -2  -6  16  362.03   65.93
   2   6 -16  299.35   32.39
  -8   2 -19  231.48   46.41
   6  -8 -19  261.07   39.07
   2   6 -19  216.38   30.62
  -2  -6  19  268.88   56.94
  -8   2 -22   74.38   27.84
   6  -8 -22  115.29   27.32
   2   6 -22   73.43   17.88
  -2  -6  22  127.51   39.83
   6  -8 -25   75.96   21.81
  -8   2 -25   57.23   24.57
   2   6 -25   53.33   18.63
  -2  -6  25   37.29   19.13
  -8   2 -28  288.84   50.86
   6  -8 -28  303.30   47.13
   2   6 -28  265.22   41.51
  -2  -6  28  272.73   61.29
  -8   2 -31  815.20   85.12
   6  -8 -31  890.48   83.51
  -2  -6  31  819.91  104.05
   2   6 -31  711.20   70.65
  -2  -6  34  444.23   80.24
  -8   2 -34  513.30   67.81
   6  -8 -34  506.22   65.32
   2   6 -34  421.65   56.86
   8  -2  37    2.73   10.91
   6  -8 -37   -3.61   15.00
   2   6 -37  -36.49   22.34
  -2  -6  37   13.01   16.05
   8  -2  40  254.11   53.00
  -8   2 -40  334.01   53.07
  -6   8  40  332.67   64.12
   2   6 -40  234.07   46.00
  -2  -6  40  384.31   76.03
  -8   2 -43  171.74   39.11
  -6   8  43  205.43   54.17
  -6   8  43  271.96   52.46
   8  -2  43  192.90   49.00
   2   6 -43  119.14   35.03
  -2  -6  43  159.27   50.12
  -8   2 -46  163.17   38.06
  -6   8  46  243.65   48.89
  -6   8  46  207.89   54.99
   8  -2  46  168.30   45.84
   2   6 -46  117.24   34.98
  -2  -6  46  126.26   44.39
  -8   2 -49  175.00   39.23
  -6   8  49  164.28   47.91
   8  -2  49  140.21   41.94
   2   6 -49  110.22   35.92
  -6   8  49  175.91   40.05
  -2  -6  49  114.47   46.81
  -8   2 -52  331.99   52.27
  -6   8  52  384.00   75.15
   8  -2  52  273.62   61.37
  -6   8  52  362.64   60.12
   2   6 -52  197.24   49.11
  -2  -6  52  286.14   68.19
  -8   2 -55   -7.52    8.64
   8  -2  55    3.07   18.90
  -6   8  55   11.08   20.09
  -6   8  55    3.60   14.50
   2   6 -55   -6.83   16.50
  -2  -6  55  -20.52   19.61
  -8   2 -58    6.79    9.98
  -6   8  58   38.06   25.18
  -6   8  58   13.18   12.87
   8  -2  58  -21.67   21.64
   2   6 -58   -4.19   16.18
  -2  -6  58   49.95   31.44
  -6   8  61   58.73   24.06
  -6   8  61   57.09   30.10
   8  -2  61   32.88   18.00
   2   6 -61   41.41   26.19
  -2  -6  61   87.33   39.33
  -8   2 -61   43.85   19.95
   2   6 -64   -0.61   14.79
  -6   8  64  -24.77   25.23
   8  -2  64    9.23   12.89
  -2  -6  64  -10.05   16.10
  -8   2 -64   -7.65   17.66
  -6   8  64    8.94   13.30
  -6   8  67  269.58   72.02
  -6   8  67  264.94   46.30
   8  -2  67  254.42   62.29
  -8   2 -67  232.61   42.46
  -2  -6  67  278.92   73.19
   2   6 -67  258.81   63.77
   8  -2  70   -8.12   14.86
  -6   8  70   44.01   31.92
  -6   8  70   -4.86   16.16
  -2  -6  70   28.62   22.05
   2   6 -70   23.74   20.04
  -6   8  73   44.57   17.32
   8  -2  73   97.07   45.19
  -2  -6  73  101.69   48.80
   2   6 -73   91.23   42.58
  -6   8  76   -1.78   24.81
   2   6 -76  -16.43   19.85
   8  -2  76   45.55   27.73
  -6   8  79  231.91   70.10
   8  -2  79  249.38   70.24
  -2  -6  79  186.67   64.59
   2   6 -79  208.94   65.76
  -2  -6  82   14.50   22.63
  -6   8  82   -0.19   24.14
   2   6 -82   40.07   30.40
  -6   8  85   30.06   24.02
  -2  -6  85   27.26   19.44
   2   6 -85   -3.87   19.23
  -6   8  88   42.01   31.09
  -2  -6  88   21.39   23.08
   2   6 -88   29.79   23.97
  -2  -6  91   68.10   42.79
   2   6 -91   77.03   43.82
  -1  -7 -90  -13.22   26.33
  -8   1  90  -59.75   44.05
  -8   1  90   26.52   27.69
  -1  -7 -87  106.06   43.70
  -8   1  87   46.42   40.06
  -8   1  87  103.46   54.65
  -1  -7 -84   -7.95   17.38
  -8   1  84  -24.12   31.05
  -8   1  84    5.63   31.43
  -1  -7 -81  -10.32   34.80
  -8   1  81   -6.96   19.04
  -8   1  81   39.65   35.14
   1   7  81   45.67   34.83
  -1  -7 -78   13.24   24.60
  -8   1  78  -23.37   23.26
  -8   1  78    5.37   17.52
   1   7  78   17.33   27.42
  -8   1  75  177.36   60.94
  -8   1  75  196.69   61.00
  -1  -7 -75  169.54   51.61
   1   7  75  303.18   77.86
  -1  -7 -72   28.75   17.95
  -8   1  72   92.05   43.11
  -8   1  72   58.18   37.16
   1   7  72   60.93   30.94
   1   7  69    2.66   28.75
  -1  -7 -69   17.98   15.14
  -8   1  69   63.66   36.77
  -8   1  69   55.11   39.41
  -8   1  66   19.80   23.55
  -8   1  66    3.35   20.18
  -1  -7 -66   56.29   32.15
   1   7  66   12.44   14.87
  -1  -7 -63    9.21   17.81
  -8   1  63   17.31   14.39
  -8   1  63   31.08   30.39
   1   7  63   19.37   19.85
  -1  -7 -60   57.79   25.21
  -8   1  60   66.86   32.61
  -8   1  60   31.59   32.83
   1   7  60   39.91   26.24
  -1  -7 -57   27.74   21.55
  -8   1  57   74.01   35.50
   1   7  57   10.29   16.69
  -8   1  57   44.12   28.97
  -1  -7 -54  -30.75   21.56
   1   7  54   13.38   12.94
  -8   1  54  -11.64   14.54
  -1  -7 -51  125.75   35.51
   1   7  51   79.44   37.48
  -8   1  51  169.02   56.35
  -8   1  48  555.83   90.71
   1   7  48  436.89   43.54
   1   7  48  598.38   92.69
   1   7  45  117.01   44.31
  -8   1  45   70.35   32.96
   1   7  45   57.70   19.59
   1   7  42  181.96   50.83
   1   7  42  155.71   26.55
  -8   1  42  200.82   51.77
   1   7  39  408.01   49.24
  -8   1  39  472.84   81.80
   1   7  39  529.55   82.81
   1   7  36  255.69   38.89
   1   7  36  219.33   52.47
  -8   1  36  212.11   57.86
  -8   1  33   46.15   30.27
   1   7  33   23.99   12.65
  -1  -7 -33   18.54   12.03
   1   7  33    3.03   11.97
   1   7  30   25.56   14.20
  -1  -7 -30   39.45   20.40
  -8   1  30   68.40   32.58
   1   7  30   28.47   20.43
   1   7  27  321.04   59.11
  -8   1  27  326.73   65.30
   1   7  27  358.43   49.99
  -1  -7 -27  436.76   59.80
  -8   1  24    8.32   13.53
   1   7  24   -7.97    8.85
   1   7  24   -9.89   19.88
  -1  -7 -24   21.50   13.46
  -8   1  21  111.18   36.84
   1   7  21   98.52   26.56
  -1  -7 -21  140.30   33.35
  -8   1  21   71.01   30.57
  -8   1  18   19.82   19.67
  -8   1  18   38.65   22.01
   1   7  18   48.13   21.47
  -1  -7 -18   37.15   18.96
  -8   1  15    6.12   19.26
  -8   1  15   -9.29   10.33
  -1  -7 -15   18.77   17.20
   1   7  15   22.87   12.80
  -8   1  12  280.27   53.35
   1   7  12  389.96   57.65
  -1  -7 -12  391.66   59.39
  -8   1  12  341.15   63.99
  -8   1   9  143.44   42.05
  -8   1   9  116.03   37.14
   1   7   9  153.81   35.81
  -1  -7  -9  133.32   35.99
   1   7   6  344.10   56.70
  -8   1   6  259.12   52.74
  -1  -7  -6  275.36   51.63
   1   7   3  138.36   37.07
  -8   1   3  154.67   42.58
  -1  -7  -3  107.66   35.22
   1   7   0 1506.49  119.44
  -8   1   0 1431.58  122.62
  -1  -7   0 1374.63  117.95
  -8   1  -3  177.82   43.25
  -1  -7   3  280.86   54.83
  -8   1  -6   17.70   18.03
  -1  -7   6   17.99   16.82
  -8   1  -9   21.99   18.94
  -1  -7   9   34.58   21.62
   7  -8 -12  254.51   30.76
  -1  -7  12  234.76   52.63
  -8   1 -12  217.41   46.79
  -8   1 -15   11.95   15.16
   7  -8 -15   18.49    8.46
  -1  -7  15   16.42   11.06
  -8   1 -18   18.87   20.84
   7  -8 -18   19.43    7.98
  -1  -7  18   26.75   16.85
  -1  -7  21  -27.47   24.72
  -8   1 -21   11.66   15.31
   7  -8 -21   -0.28    9.88
   7  -8 -24  128.96   28.87
  -8   1 -24  140.49   36.89
  -1  -7  24   85.64   33.94
   7  -8 -27  565.66   63.63
  -1  -7  27  583.60   86.30
  -8   1 -27  557.33   72.46
   7  -8 -30   85.75   28.48
  -8   1 -30  114.09   32.30
  -1  -7  30   89.91   35.42
  -8   1 -33   53.58   25.12
  -1  -7  33   53.09   26.70
   7  -8 -33   40.86   23.48
   8  -1  36  265.60   54.21
  -8   1 -36  312.22   52.85
  -7   8  36  334.41   58.65
   7  -8 -36  306.00   52.31
  -1  -7  36  305.19   64.14
  -8   1 -39  342.73   54.36
  -7   8  39  443.70   69.28
   8  -1  39  376.64   68.61
   7  -8 -39  360.07   60.45
  -1  -7  39  370.12   74.30
  -7   8  42  317.90   60.01
   8  -1  42  366.66   72.07
  -8   1 -42  149.51   38.92
  -1  -7  42  171.71   48.44
  -8   1 -45   73.56   27.94
  -7   8  45  102.90   32.42
   8  -1  45  108.24   39.24
  -1  -7  45   88.40   43.47
  -7   8  48  470.10   80.22
   8  -1  48  455.52   78.83
  -1  -7  48  438.08   81.78
  -8   1 -48  393.26   57.01
  -7   8  48  529.74   75.13
  -7   8  51   64.91   37.11
  -8   1 -51   16.66   17.37
   8  -1  51   99.87   39.10
  -1  -7  51   12.41   24.85
  -7   8  51   64.74   29.28
  -8   1 -54    8.40   16.44
  -7   8  54  -17.41   20.92
  -7   8  54   -9.90   18.29
   8  -1  54    4.73   14.85
  -1  -7  54  -11.70   15.22
  -7   8  57  -22.80   19.19
  -8   1 -57   -5.62   13.77
  -7   8  57  -18.48   26.47
   8  -1  57  -17.03   23.54
  -1  -7  57    0.55   17.67
  -7   8  60   76.97   39.77
  -1  -7  60  -10.67   22.21
   8  -1  60   29.18   23.56
  -8   1 -60   34.73   18.31
  -7   8  60   61.93   34.56
  -8   1 -63  120.02   31.13
  -7   8  63  127.91   47.39
   8  -1  63   84.21   35.38
  -1  -7  63  136.38   49.97
  -7   8  63  158.21   39.88
  -1  -7  66   63.82   29.60
  -7   8  66   59.27   33.83
  -7   8  66   32.54   11.95
   8  -1  66    2.87   20.97
  -7   8  69  101.55   43.53
   8  -1  69   64.71   31.57
  -1  -7  69   71.82   37.11
  -7   8  69   97.71   31.58
  -7   8  72  -31.21   29.14
  -7   8  72  -10.25   17.12
   8  -1  72   20.02   25.08
  -1  -7  72    3.79   16.61
   1   7 -72   -7.21   22.71
  -7   8  75  350.94   86.62
  -1  -7  75  228.54   70.54
   8  -1  75  300.53   77.51
   1   7 -75  169.01   56.44
  -7   8  78   14.89   19.42
  -1  -7  78   -4.54   17.18
   8  -1  78   40.62   25.45
   1   7 -78  -12.58   18.29
   8  -1  81   13.69   17.45
  -7   8  81  -35.44   26.12
  -1  -7  81   -1.57   25.70
   1   7 -81  -22.68   30.26
  -7   8  84  -33.00   30.30
  -1  -7  84    2.83   30.37
   8  -1  84    3.65   27.81
   1   7 -84    5.40   29.01
  -7   8  87   99.04   48.25
  -1  -7  87  118.68   58.22
   1   7 -87  131.11   54.91
  -1  -7  90   16.87   24.58
   1   7 -90   46.02   28.47
   0  -8 -88   21.04   22.71
   8   0 -88   66.22   52.49
  -8   0  88   18.02   35.43
   0  -8 -85   48.83   37.43
  -8   0  85  -32.78   32.10
  -8   0  85    1.29   25.01
   0  -8 -82   -2.27   17.20
  -8   0  82  -10.04   27.73
  -8   0  82   18.52   26.68
   0  -8 -79  188.75   57.93
  -8   0  79  105.32   46.27
  -8   0  79   76.40   37.91
   0   8  79  196.52   68.50
  -8   0  76   12.62   27.31
  -8   0  76   16.92   26.52
   0   8  76   35.38   33.85
   0   8  73   40.38   37.75
  -8   0  73   -7.19   24.88
  -8   0  73  -22.61   37.22
  -8   0  70   -0.89   21.60
  -8   0  70   31.00   22.91
   0   8  70   63.76   34.72
  -8   0  67   40.74   27.34
  -8   0  67    1.57   18.13
   0   8  67   58.16   41.75
  -8   0  64   28.58   23.60
  -8   0  64   14.63   22.14
   0   8  64   10.77   17.68
  -8   0  61   -9.45   19.47
   0   8  61  -10.43   18.49
  -8   0  58    8.19   20.21
   0   8  58   24.64   19.58
  -8   0  55   60.27   33.34
   0   8  55   38.81   26.86
  -8   0  55   46.25   30.41
  -8   0  52  477.65   89.43
   0   8  52  374.25   77.70
  -8   0  49   49.13   30.06
   0   8  49   14.90   20.39
  -8   0  46  173.03   52.91
   0   8  46  126.20   23.81
   0   8  46  125.88   42.64
   0   8  43  117.24   28.87
   0   8  43  131.54   44.83
  -8   0  43  130.81   48.26
   0   8  40  242.74   55.36
   0   8  40  289.53   43.63
   0   8  40  277.95   58.20
  -8   0  40  327.18   70.75
   0   8  37   48.87   23.89
   0   8  37    9.09   13.71
   0   8  37   13.70   20.79
  -8   0  37   36.43   30.08
   0   8  34   73.42   31.09
   0   8  34   75.68   24.54
   0   8  34  150.77   44.92
  -8   0  34   97.47   37.80
   0   8  31  899.09   83.39
   0   8  31  977.54  100.08
  -8   0  31  987.18  117.08
   0   8  31  916.31  103.70
   0   8  28   64.49   30.06
   0   8  28   14.14   22.44
   0   8  28   41.65   23.15
  -8   0  28   12.30   19.63
   0   8  25   73.32   26.68
   0   8  25   11.99   12.64
   0   8  25   44.85   21.54
   0  -8 -25   26.87   13.99
  -8   0  25   54.32   25.77
  -8   0  25  -13.01   18.59
   0   8  22   82.95   28.81
   0   8  22   49.59   22.55
   0  -8 -22   51.38   23.33
   0   8  22   71.61   26.75
  -8   0  22   -3.04   23.58
  -8   0  22   42.95   24.36
   0   8  19   16.05   15.54
   0   8  19    0.47   12.26
  -8   0  19    9.57   17.53
   0   8  19   -3.00   18.42
   0  -8 -19  -11.36   19.32
  -8   0  19  -22.03   27.83
  -8   0  16   44.67   21.02
   0   8  16   16.24   13.79
   0   8  16    8.20    9.33
   0  -8 -16   26.70   19.17
  -8   0  16   24.98   15.48
  -8   0  13  226.79   46.26
  -8   0  13  268.51   58.15
   0   8  13  240.90   46.78
   0  -8 -13  213.05   45.94
  -8   0  10  127.83   37.20
  -8   0  10  167.90   45.41
   0   8  10  150.06   37.13
   0  -8 -10  106.49   33.74
   0   8  10   52.95   11.31
  -8   0   7   97.30   33.30
  -8   0   7   77.93   29.80
   0  -8  -7   36.05   19.95
  -8   0   4  966.64  106.28
   0  -8  -4  904.23   96.06
  -8   0   4  871.41   89.26
  -8   0   1  119.08   41.04
   0  -8  -1   92.90   32.97
   0  -8   2   35.04   19.74
  -8   0  -2   63.12   31.82
  -8   0  -5   11.85   11.66
   8  -8  -5   10.70    5.67
   0  -8   5    7.04   10.79
  -8   0  -8  187.07   46.02
   8  -8  -8  169.75   22.44
   0  -8   8  214.94   49.10
  -8   0 -11   29.53   20.49
   8  -8 -11   18.22    6.62
   0  -8  11   34.33   20.37
  -8   0 -14    4.80   17.11
   0  -8  14    3.09   14.95
   8  -8 -14    2.54    7.45
  -8   0 -17   35.32   21.19
   8  -8 -17   45.70   14.76
   0  -8  17   33.24   20.90
  -8   0 -20  -17.37   18.67
   8  -8 -20    8.72   10.30
   0  -8  20   27.17   18.00
  -8   0 -23  139.49   37.23
   8  -8 -23  146.82   32.04
   0  -8  23  139.00   43.29
  -8   0 -26    6.63   12.65
   8  -8 -26   -9.47   12.73
   0  -8  26  -26.15   21.00
  -8   0 -29  142.66   39.17
   0  -8  29   70.71   33.41
   8  -8 -29  107.34   30.51
  -8   0 -32   64.42   27.32
  -8   8  32   35.03   18.60
   8  -8 -32   80.22   29.24
   0  -8  32   58.54   30.44
  -8   8  35  670.59   89.91
   0  -8  35  619.27   93.72
   8  -8 -35  587.68   72.67
  -8   0 -35  588.95   75.70
  -8   0 -38  145.89   36.78
   8  -8 -38   89.93   31.71
   0  -8  38   76.98   37.34
  -8   8  38  149.16   44.62
  -8   0 -41   45.86   22.71
   8   0  41   33.69   25.54
  -8   8  41   58.54   29.39
   0  -8  41   67.73   33.48
   8   0  44  361.64   72.86
   0  -8  44  453.16   82.85
  -8   0 -44  439.94   62.32
  -8   8  44  586.33   84.15
  -8   0 -47   70.45   31.05
   8   0  47   18.01   29.02
   0  -8  47   47.47   27.63
  -8   8  47   43.69   25.65
  -8   0 -50   26.68   19.77
   0  -8  50    7.37   17.46
   8   0  50  -10.12   16.97
  -8   8  50  -14.57   21.77
  -8   8  53   -0.27   19.64
  -8   8  53   -9.30   18.57
   8   0  53   10.93   18.39
  -8   0 -53   11.37   15.28
   0  -8  53   32.12   28.87
  -8   8  56  203.55   48.24
  -8   8  56  248.08   62.33
   8   0  56  224.87   60.46
   0  -8  56  140.22   50.82
  -8   0 -56  179.29   40.91
  -8   8  59   19.20   22.76
  -8   8  59   30.72   25.52
   8   0  59   45.16   26.39
   0  -8  59   -3.37   15.11
  -8   0 -59   -8.55   11.24
   8   0  62  285.46   70.90
   0  -8  62  231.28   64.66
  -8   8  62  176.38   57.55
  -8   8  62  201.96   48.51
   8   0  65   32.27   23.46
  -8   8  65   38.70   25.89
  -8   8  65   95.52   28.51
   0  -8  65   52.79   23.33
  -8   8  68    4.52   14.90
   8   0  68  -32.24   29.43
  -8   8  68  -15.65   17.35
   0  -8  68   -8.82   16.15
  -8   8  71  160.46   58.00
  -8   8  71  155.17   47.24
   0  -8  71  141.40   54.25
   8   0  71   93.63   42.33
  -8   8  74   19.92   22.45
  -8   8  74   -1.20   21.37
   8   0  74  -26.93   35.37
   0  -8  74  -18.94   32.68
   8   0  77   52.40   36.03
   0  -8  77   -4.61   24.40
  -8   8  80   26.25   26.62
   0  -8  80   13.20   27.50
   8   0  80  -11.62   21.95
  -8   8  83  217.17   73.88
   0  -8  83   88.92   49.96
   8   0  83  237.74   75.60
  -8   8  86   14.14   40.63
   0  -8  86   65.74   44.36
   8   0  86   74.68   44.10
   0   8 -86   56.77   39.78
   8   0  89   34.25   40.81
   0   8 -89  -23.99   34.47
   0  -8  89   20.26   32.40
   1  -9  85   62.70   42.02
   8   1  85  -29.06   29.40
  -9   8  82   27.56   37.53
   1  -9  82   31.48   33.85
   8   1  82   35.19   28.17
   8   1  79  123.15   49.81
  -9   8  79  113.20   57.78
   1  -9  79  149.70   62.00
  -9   8  76  -15.11   21.12
   1  -9  76   -7.23   28.96
   8   1  76  -40.08   34.02
  -9   8  73   53.26   35.48
  -9   8  73   48.75   40.42
   8   1  73   61.96   38.73
   1  -9  73  155.94   56.33
   1  -9  70  223.94   72.25
  -9   8  70  104.91   41.81
  -9   8  70  136.56   54.99
   8   1  70  126.61   53.88
  -9   8  67   11.58   18.58
  -9   8  67   20.34   14.71
   1  -9  67    6.78   16.26
   8   1  67   16.32   15.75
   1  -9  64    6.75   25.57
  -9   8  64   36.42   28.38
  -9   8  64    8.96   26.00
   8   1  64    6.50   19.94
  -9   8  61  110.53   50.59
   1  -9  61  174.73   56.41
   8   1  61  134.13   49.31
  -9   8  61   89.42   33.76
  -9   8  58  134.48   49.44
   8   1  58  131.06   49.64
   1  -9  58  159.53   55.68
  -9   8  58  160.86   49.92
  -9   8  55   37.48   17.32
  -8  -1 -55   46.25   24.71
   8   1  55   51.67   35.98
   1  -9  55   29.74   33.12
   1  -9  52  245.06   65.76
  -9   8  52  244.24   58.08
  -8  -1 -52  266.30   50.09
   8   1  52  195.79   60.86
  -8  -1 -49   57.68   26.79
  -9   8  49   61.19   24.24
   1  -9  49   10.82   18.72
   8   1  49   51.67   35.48
   8   1  46  109.23   46.87
   1  -9  46   18.49   23.00
  -8  -1 -46   51.43   23.40
  -9   8  46   41.32   24.71
   8   1  43  157.97   50.91
   1  -9  43  100.60   40.97
  -8  -1 -43  121.20   36.71
  -9   8  43  126.36   44.07
  -9   8  40  341.14   69.57
   1  -9  40  283.05   65.81
  -8  -1 -40  304.08   55.16
   8   1  40  288.26   66.10
  -9   8  37    8.35   14.06
   1  -9  37   33.29   20.32
  -8  -1 -37   29.48   11.76
  -9   8  34   41.17   24.97
   9  -8 -34   42.94   24.15
  -8  -1 -34  -10.37   16.92
   1  -9  34  -23.32   22.98
  -9   8  31  664.32   93.73
  -8  -1 -31  638.64   81.99
   9  -8 -31  667.26   77.78
   1  -9  31  550.77   86.78
   1  -9  28   30.94   23.45
  -9   8  28   -0.90   16.85
   9  -8 -28   56.64   20.59
  -8  -1 -28   15.46   17.40
   1  -9  25   34.84   23.97
   9  -8 -25   50.66   21.56
  -8  -1 -25   33.11   18.49
  -9   8  25   22.44   15.67
  -9   8  22   -5.95   24.26
   9  -8 -22    5.35   11.52
   1  -9  22  -11.05   12.23
  -8  -1 -22  -11.27   18.97
  -9   8  19   41.28   14.10
   1  -9  19   31.89   15.70
   9  -8 -19   44.99   19.07
  -8  -1 -19   60.97   25.63
   1  -9  16   33.92   20.05
   9  -8 -16   19.18    9.75
  -8  -1 -16    4.42   16.39
   9  -8 -13   97.65   20.96
   1  -9  13   82.25   32.49
  -8  -1 -13  111.38   35.93
  -1   9 -10   -9.28    6.90
   1  -9  10   11.24   15.76
   9  -8 -10    5.41    6.13
  -8  -1 -10   -7.89   18.91
  -1   9  -7   21.19    9.08
   9  -8  -7   10.25    7.90
   1  -9   7   21.41   20.50
  -8  -1  -7   21.00   17.77
  -1   9  -4  458.46   42.18
  -8  -1  -4  574.80   82.57
   1  -9   4  505.48   77.36
   9  -8  -4  466.03   37.85
   1  -9   1   24.15   13.52
  -1   9  -1   38.00   13.19
   9  -8  -1   26.27    8.43
  -8  -1  -1   67.92   32.35
   1  -9  -2  151.07   41.27
  -8  -1   2   72.45   26.01
  -1   9   2   99.85   23.87
   9  -8   2   57.29    8.19
  -8  -1   2  119.93   39.39
  -8  -1   5  229.41   46.29
  -1   9   5  328.68   44.60
   1  -9  -5  340.59   61.77
  -8  -1   5  283.31   59.84
  -1   9   5  250.04   30.19
  -1   9   8  136.12   30.34
   1  -9  -8  111.27   35.52
  -8  -1   8  133.04   42.01
  -8  -1   8   99.60   31.60
  -1   9   8   81.29   17.08
  -1   9  11   40.48   18.95
   1  -9 -11   23.78   15.99
  -8  -1  11   22.53   14.02
  -1   9  11   64.22   19.16
  -8  -1  11   46.90   19.24
  -1   9  14  177.85   38.78
   1  -9 -14  186.33   45.43
  -1   9  14  169.89   41.55
  -8  -1  14  193.74   52.50
  -1   9  14  302.09   33.55
  -8  -1  14  132.04   35.99
  -8  -1  17  236.32   57.98
  -1   9  17  180.86   39.25
  -1   9  17  224.80   47.26
  -1   9  17  168.28   27.15
  -8  -1  17  109.48   34.21
  -1   9  20   -2.59   16.53
  -1   9  20   16.31   18.51
  -8  -1  20   -8.32   16.22
  -1   9  20    0.96    6.90
  -8  -1  20   15.84   12.80
  -1   9  23  192.41   45.73
  -1   9  23  187.64   41.36
  -1   9  23  175.71   41.26
  -8  -1  23  157.35   47.89
  -8  -1  23  198.75   48.59
  -1   9  26   61.93   25.98
  -1   9  26   85.71   28.00
  -8  -1  26   55.22   30.86
  -1   9  26   88.56   31.97
  -8  -1  26   44.41   23.60
  -1   9  29   56.49   25.94
  -1   9  29   52.36   18.36
  -8  -1  29   85.77   39.42
  -1   9  29   57.92   28.95
  -1   9  32   60.37   32.63
  -1   9  32   60.20   27.17
  -8  -1  32   26.39   29.19
  -1   9  32   34.82   25.14
  -1   9  35  695.35   90.89
  -8  -1  35  510.20   90.76
  -1   9  35  525.38   80.57
  -1   9  35  514.95   64.84
  -1   9  38   37.13   20.93
  -1   9  38   35.24   16.00
  -8  -1  38   65.51   38.18
  -1   9  38   49.01   29.96
  -1   9  41   38.77   26.23
  -1   9  41   17.96   11.24
  -8  -1  41   87.50   44.83
  -1   9  41   47.15   31.66
  -1   9  44  591.00   91.25
  -8  -1  44  644.66  105.90
  -1   9  44  506.23   82.32
  -1   9  47   24.02   24.12
  -8  -1  47  -23.15   28.08
  -1   9  47   12.97   17.00
  -1   9  50   -5.24   13.40
  -8  -1  50   16.59   19.82
  -1   9  50   23.99   21.23
  -1   9  53    9.31   14.12
  -8  -1  53   53.74   32.72
  -8  -1  53   35.13   28.74
  -1   9  53   12.52   21.97
  -1   9  56  142.14   50.73
  -8  -1  56  104.00   41.13
  -8  -1  56   88.05   42.14
  -1   9  56  153.36   51.57
  -1   9  59  -28.36   33.29
  -8  -1  59   44.44   28.12
  -8  -1  59  -11.90   26.09
  -1   9  59   57.57   34.29
  -1   9  62   42.07   17.02
  -8  -1  62   49.65   25.86
  -8  -1  62   55.36   34.28
  -1   9  62   72.97   35.96
  -8  -1  65  -26.95   23.58
  -8  -1  65   10.55   20.42
  -8  -1  68   14.15   17.51
  -8  -1  68   -5.63   26.08
  -1   9  68   58.69   36.89
  -8  -1  71   40.83   32.55
  -8  -1  71   65.17   38.41
  -1   9  71  116.82   49.58
  -8  -1  74  -48.42   33.69
  -8  -1  74  -54.89   37.42
  -1   9  74   56.89   42.99
  -8  -1  77   47.99   42.90
  -8  -1  80  159.70   78.98
  -8  -1  83  100.98   59.81
  -8  -1  86  -26.27   28.84
  -9   7  86  -34.66   37.52
   7   2  86  -18.61   31.89
  -9   7  83   21.87   22.27
   2  -9  83  103.32   46.19
   7   2  83   47.14   39.07
  -9   7  80   24.11   39.01
   2  -9  80   29.21   21.10
   7   2  80  -18.58   26.77
  -9   7  77   56.68   32.41
   2  -9  77   55.46   36.24
  -9   7  77   25.28   36.00
   7   2  77   28.18   19.07
  -9   7  74   40.72   29.31
  -9   7  74   38.53   30.16
   2  -9  74   84.80   42.83
   7   2  74   22.45   21.45
  -9   7  71  140.34   51.88
  -9   7  71   94.93   50.81
   2  -9  71   76.19   41.73
   7   2  71  144.00   56.94
  -9   7  68    0.91   17.28
  -9   7  68   15.27   29.34
   2  -9  68   53.61   33.98
   7   2  68   39.83   36.01
   2  -9  65  159.55   54.51
  -9   7  65  136.13   42.73
  -9   7  65  138.90   55.19
   7   2  65   90.91   36.60
   2  -9  62  238.96   64.61
  -9   7  62  183.34   59.85
  -9   7  62  157.12   49.28
   7   2  62  128.08   50.57
   2  -9  59   12.27   20.09
  -9   7  59   13.66   26.18
  -9   7  59   15.23   16.93
   7   2  59  -22.00   31.45
  -7  -2 -56   36.74   21.14
   2  -9  56    7.60   24.22
   7   2  56   31.10   24.60
  -9   7  56   58.68   30.33
  -7  -2 -53  118.57   30.19
   2  -9  53   67.50   32.95
  -9   7  53  123.12   42.79
   7   2  53  167.68   58.28
  -9   7  50   39.49   25.83
  -7  -2 -50   27.28   14.21
   2  -9  50   13.02   21.42
   7   2  50   25.42   27.97
  -9   7  47   23.34   24.45
  -7  -2 -47   42.38   18.32
   2  -9  47   33.88   29.35
   7   2  47   10.75   12.06
  -9   7  44  294.77   61.71
  -7  -2 -44  348.07   55.08
   7   2  44  278.95   66.56
   2  -9  44  246.22   59.85
   2  -9  41   96.25   39.62
  -2   9 -41   47.18   10.93
  -7  -2 -41  152.96   38.33
  -9   7  41  128.04   43.53
   7   2  41  158.61   47.48
   7   2  38  152.93   53.11
  -2   9 -38   36.37   11.61
  -7  -2 -38   97.48   33.70
  -9   7  38   81.13   37.39
   2  -9  38   78.49   45.69
  -7  -2 -35 1023.92   99.97
  -9   7  35  959.78  113.21
   2  -9  35  909.97  112.11
  -9   7  32   59.34   31.81
  -2   9 -32   -0.17    5.25
   2  -9  32   -8.00   14.97
  -7  -2 -32   48.03   23.65
   7   2  32  -23.72   20.99
  -9   7  29   82.21   33.51
   7   2  29   66.93   27.39
   2  -9  29   57.36   31.27
  -7  -2 -29   98.81   30.83
  -9   7  26   -7.77   13.32
   2  -9  26    2.78   20.91
  -7  -2 -26   22.17   21.85
   7   2  26    8.87   11.48
   7   2  23  593.98   75.87
  -9   7  23  607.46   86.12
  -7  -2 -23  668.14   83.66
   2  -9  23  591.92   85.77
   7   2  20  188.50   44.35
  -9   7  20  186.44   45.54
  -7  -2 -20  228.66   49.69
   2  -9  20  186.88   50.45
   7   2  17  209.45   48.16
   2  -9  17  140.79   41.66
  -7  -2 -17  170.74   44.39
  -9   7  17  139.25   40.85
  -9   7  14   32.77   14.10
  -2   9 -14   45.88   14.58
  -7  -2 -14   79.35   29.30
   2  -9  14   61.87   25.93
  -2   9 -11    2.20    5.83
  -9   7  11  -19.45   19.73
  -7  -2 -11   28.39   19.93
   2  -9  11   18.99   19.69
  -2   9  -8  157.08   28.64
   2  -9   8  181.81   45.77
  -7  -2  -8  169.11   45.09
  -9   7   8  204.97   50.16
  -7  -2  -5  181.49   33.27
  -2   9  -5  273.71   37.56
  -7  -2  -5  231.96   52.76
   2  -9   5  262.26   55.74
  -7  -2  -2   18.07   10.20
  -7  -2  -2   74.85   31.13
  -2   9  -2   59.54   18.02
   2  -9   2   90.22   32.10
  -2   9   1  401.07   50.62
   2  -9  -1  413.68   67.61
  -7  -2   1  392.00   69.14
  -7  -2   1  336.06   46.74
  -2   9   4  516.58   57.63
  -7  -2   4  599.25   87.43
  -7  -2   4  413.01   52.31
  -2   9   7   75.05   21.27
  -7  -2   7  105.38   38.35
  -7  -2   7   79.61   23.14
  -2   9  10  103.66   23.59
  -2   9  10   55.81   20.64
  -2   9  10  101.33   28.57
  -7  -2  10   63.69   27.03
  -7  -2  10   43.41   17.05
  -2   9  13  216.14   33.04
  -2   9  13  232.57   42.81
   9  -7  13  148.00   19.52
  -7  -2  13  299.48   64.17
  -2   9  13  231.16   42.54
  -7  -2  13  203.25   40.57
  -2   9  16   15.72   11.61
  -7  -2  16   51.34   26.20
  -2   9  16   19.12   11.79
   9  -7  16   10.22    5.83
  -7  -2  16    9.70   11.90
  -2   9  16    7.92    7.46
  -2   9  19   44.61   27.20
  -7  -2  19    8.94   14.85
  -2   9  19   36.45   21.34
  -2   9  19   27.73   17.46
   9  -7  19    6.12    3.33
  -7  -2  19    3.36   16.08
  -2   9  19   -1.12   10.30
  -2   9  22  361.58   57.96
  -2   9  22  326.35   54.56
  -2   9  22  305.66   54.29
  -7  -2  22  316.66   64.66
   9  -7  22  202.98   22.41
  -2   9  22  258.09   38.75
  -2   9  25   93.42   31.37
  -2   9  25   66.97   24.77
  -7  -2  25   88.77   37.44
  -2   9  25   69.18   25.98
   9  -7  25   49.09   11.89
  -2   9  25   45.13   17.95
  -2   9  28   16.75   13.67
  -2   9  28  -28.78   23.57
  -2   9  28   -9.42   18.65
  -7  -2  28   15.42   22.10
  -2   9  28  -15.94   14.68
  -2   9  31  205.98   40.36
  -2   9  31  281.06   54.53
  -7  -2  31  195.23   54.77
  -2   9  31  213.48   46.79
  -2   9  31  143.37   30.23
  -2   9  34   11.35   14.88
  -2   9  34   24.63   12.78
  -7  -2  34   52.50   30.63
  -2   9  34   62.21   25.91
  -2   9  37   -3.16   10.27
  -2   9  37   36.93   27.72
  -7  -2  37   30.15   27.88
  -2   9  37   -9.63   10.90
  -2   9  40  503.78   78.79
  -2   9  40  472.84   74.26
  -7  -2  40  492.44   88.44
  -2   9  40  411.42   56.11
  -2   9  43   24.44    9.32
  -2   9  43   75.38   34.68
  -7  -2  43   29.68   27.42
  -2   9  43   89.07   32.63
  -2   9  46  -40.43   23.35
  -2   9  46  -21.89   27.18
  -7  -2  46  -16.05   32.95
  -7  -2  46    9.43   16.05
  -2   9  46   -9.61   22.20
  -2   9  49   99.13   42.63
  -7  -2  49  132.97   53.21
  -7  -2  49  133.84   40.44
  -2   9  49   54.10   30.02
  -2   9  52  489.18   87.20
  -7  -2  52  540.35   77.69
  -7  -2  52  441.64   88.95
  -2   9  52  514.68   85.67
  -2   9  55   90.70   39.35
  -7  -2  55   31.41   22.77
  -7  -2  55  103.26   49.49
  -2   9  55  100.63   42.32
   7   2 -58  118.59   43.85
  -2   9  58  140.51   50.26
  -7  -2  58  104.74   38.71
  -7  -2  58   62.91   38.10
  -2   9  58  185.93   55.66
   7   2 -61   44.40   34.01
  -2   9  61   74.96   41.30
  -7  -2  61   35.07   29.05
  -7  -2  61    9.55   16.68
  -2   9  61   18.66   19.31
   7   2 -64   29.02   17.40
  -2   9  64  155.83   54.30
  -7  -2  64   28.48   22.66
  -7  -2  64   45.52   37.24
  -2   9  64  142.98   53.79
   7   2 -67   45.45   32.73
  -2   9  67  -34.15   27.06
  -7  -2  67   35.51   25.87
  -7  -2  67   17.55   21.65
   7   2 -70   85.41   41.25
  -2   9  70  120.05   47.59
  -7  -2  70   43.27   23.24
  -7  -2  70   58.86   41.80
   7   2 -73    6.35   24.25
  -2   9  73  -14.60   27.39
  -7  -2  73   36.78   32.68
   7   2 -76   91.69   45.98
  -2   9  76    4.21   21.39
  -7  -2  76   21.90   29.77
   7   2 -79  190.96   67.36
  -2   9  79  144.95   52.95
  -7  -2  79  130.46   49.78
   7   2 -82   26.95   36.19
  -7  -2  82    1.30   24.60
   7   2 -85   47.43   38.92
  -7  -2  85   24.86   33.62
   7   2 -88  123.81   61.00
  -7  -2  88   43.81   43.36
  -9   6  87    1.67   21.34
   6   3  87   -8.10   22.80
  -6  -3 -87   -9.79   33.34
  -9   6  84   17.74   20.27
   6   3  84    9.25   21.75
  -6  -3 -84   -4.71   41.52
  -9   6  81    5.20   34.90
   6   3  81    5.14   19.53
  -9   6  81   20.92   28.94
  -9   6  78    5.19   20.41
   6   3  78    5.24   17.06
  -9   6  78   22.14   21.34
  -9   6  75  102.22   51.73
   6   3  75  163.54   64.44
  -9   6  75   56.50   36.04
  -9   6  72   77.18   36.20
  -9   6  72   27.65   25.10
   6   3  72   16.19   20.85
  -9   6  69  191.61   55.25
  -9   6  69  175.80   60.30
   6   3  69  125.24   51.14
  -9   6  66  212.56   57.54
  -9   6  66  192.67   62.37
   6   3  66  117.45   47.95
  -9   6  63   18.47   25.94
  -9   6  63   -3.70   23.50
   6   3  63   31.86   32.98
  -9   6  60  -10.97   20.95
   6   3  60   -0.12   22.08
  -9   6  60   17.35   21.97
   3  -9  60    7.53   20.74
   6   3  57   69.71   33.44
  -9   6  57   80.13   37.57
   3  -9  57   96.67   41.55
  -6  -3 -54   -3.65   13.52
   3  -9  54   15.28   13.86
   6   3  54   -7.95   16.62
  -6  -3 -51   16.45   15.32
  -9   6  51    3.46   14.96
   3  -9  51   43.75   26.61
   6   3  51   11.71   23.39
   6   3  48  272.92   66.58
  -9   6  48  322.86   66.07
  -6  -3 -48  327.16   50.27
   3  -9  48  336.83   70.32
  -3   9 -45   75.12   21.85
  -6  -3 -45  123.32   33.21
   6   3  45   75.73   38.47
  -9   6  45  111.30   37.56
   3  -9  45   83.89   32.88
  -9   6  42  172.97   47.50
   3  -9  42   96.68   41.10
   6   3  42  156.51   55.26
  -6  -3 -42  192.31   42.70
  -6  -3 -39  608.40   71.35
  -9   6  39  516.37   79.16
   3  -9  39  559.36   86.23
   6   3  39  440.13   55.94
   6   3  39  539.30   88.62
   6   3  36  102.10   30.91
  -9   6  36   88.68   33.95
  -6  -3 -36   46.68   18.75
   3  -9  36   44.80   28.77
  -6  -3 -33  149.83   37.79
  -9   6  33  144.90   46.29
   6   3  33   84.24   23.70
   3  -9  33   72.01   30.15
   6   3  30   36.15   22.12
  -6  -3 -30   55.82   28.42
   3  -9  30   91.40   39.46
  -9   6  30   93.16   41.22
  -6  -3 -27 1257.76  108.40
   3  -9  27 1276.13  125.85
  -9   6  27 1248.81  126.19
   6   3  27 1134.29   99.71
  -9   6  24  253.59   56.88
  -6  -3 -24  258.14   51.91
   3  -9  24  216.33   52.24
   6   3  24  238.84   45.95
  -6  -3 -21  382.49   62.08
   6   3  21  313.93   53.53
   3  -9  21  348.57   65.13
  -9   6  21  467.97   75.55
   6   3  18   52.24   24.13
  -9   6  18   71.92   32.89
   3  -9  18   26.66   22.77
  -6  -3 -18   45.15   24.39
   6   3  15  108.64   33.45
  -6  -3 -15  117.04   38.29
  -9   6  15  112.38   36.23
   6   3  12   14.72   14.36
  -6  -3 -12   27.04   23.00
  -9   6  12   30.35   23.96
  -6  -3  -9   73.14   19.20
   6   3   9  138.20   38.44
  -9   6   9  105.29   32.44
  -6  -3  -9  181.16   45.59
  -6  -3  -6   -0.64   17.22
  -9   6   6   -2.28   14.74
  -6  -3  -6  -22.42   13.81
  -6  -3  -3  182.90   46.51
  -6  -3  -3  132.02   23.66
  -9   6   3  177.31   44.20
  -6  -3   0  738.79   90.96
  -9   6   0  644.99   86.23
  -6  -3   0  536.91   47.76
  -6  -3   3   98.81   35.36
  -3   9   3   24.86   13.48
  -9   6  -3   63.76   28.32
  -6  -3   3   46.56   16.02
  -9   6  -6   78.15   34.10
  -3   9   6   48.30   19.24
  -3   9   6   62.84   23.56
  -6  -3   6   36.71   20.18
  -6  -3   6   51.63   14.90
  -3   9   9  430.40   57.53
  -6  -3   9  356.35   66.28
  -3   9   9  343.98   47.70
  -3   9  12  141.29   36.55
  -6  -3  12   95.03   36.55
  -3   9  12   93.79   28.15
  -3   9  15  115.48   27.24
  -3   9  15  119.94   34.03
  -6  -3  15  115.08   40.18
  -3   9  15   86.93   25.87
  -3   9  18  320.13   54.64
  -6  -3  18  296.02   61.13
  -3   9  18  337.90   58.16
  -3   9  18  273.63   45.68
  -3   9  18  298.31   43.12
  -3   9  21  260.88   50.23
  -6  -3  21  182.08   49.80
  -3   9  21  173.04   38.53
   9  -6  21  151.66   27.03
  -3   9  21  192.57   41.90
  -3   9  21  159.72   31.40
  -3   9  24   48.19   22.02
  -6  -3  24   51.64   29.46
   9  -6  24   12.56    7.53
  -3   9  24   32.79   18.49
  -3   9  24   20.58   15.05
  -3   9  27  136.62   35.04
  -3   9  27   87.43   30.88
  -6  -3  27  120.46   41.56
   9  -6  27   80.44   19.36
  -3   9  27  120.81   32.98
  -3   9  27   46.12   11.63
   9  -6  30  204.85   32.24
  -3   9  30  214.14   48.80
  -6  -3  30  186.63   53.41
  -3   9  30  208.55   44.99
  -3   9  30  226.60   44.77
  -3   9  30  126.90   28.40
  -3   9  33   38.30   25.20
  -3   9  33   10.76   15.00
  -6  -3  33  -23.76   24.00
   9  -6  33    0.29    9.57
  -3   9  33   18.66   19.84
  -3   9  33   -0.82    9.62
  -3   9  36  270.73   57.49
  -6  -3  36  197.77   54.23
   9  -6  36  278.94   39.49
  -3   9  36  198.65   40.99
  -3   9  36  258.14   49.69
  -3   9  36  257.60   45.41
  -3   9  39   82.33   28.33
  -6  -3  39   60.41   30.83
  -6  -3  39   87.20   28.10
   9  -6  39   91.10   23.94
  -3   9  39  101.88   34.10
  -3   9  39   72.67   26.65
  -3   9  39   79.24   23.26
   6   3 -42  -23.55   20.58
  -3   9  42   29.18   17.42
  -6  -3  42   -8.96   26.40
  -6  -3  42   17.54   12.27
  -3   9  42   21.85   18.46
   9  -6  42   -8.06   11.40
  -3   9  42  -59.87   23.20
   6   3 -45  180.78   50.55
  -3   9  45  144.48   49.64
  -6  -3  45  147.54   52.24
  -6  -3  45  132.10   34.86
  -3   9  45  104.87   41.33
  -3   9  45   72.24   27.55
  -6  -3  48  936.23  125.67
  -3   9  48  939.78  116.59
  -6  -3  48  786.33   81.09
  -3   9  48  874.42   81.16
  -3   9  48  997.58  112.34
   6   3 -48  940.72  105.06
   6   3 -51  124.61   43.62
  -3   9  51  156.09   52.74
  -6  -3  51  150.28   55.95
  -6  -3  51   69.80   26.88
  -3   9  51  120.38   43.59
   6   3 -54  130.84   43.48
  -3   9  54  101.42   39.67
  -6  -3  54   92.89   44.90
  -6  -3  54   14.07   18.70
  -3   9  54   53.61   26.35
   6   3 -57   56.81   33.29
  -3   9  57    3.43   16.70
  -6  -3  57   26.20   22.06
  -6  -3  57   29.83   44.04
   6   3 -60  229.53   60.30
  -3   9  60  236.37   62.73
  -6  -3  60  153.69   40.83
  -6  -3  60  206.00   66.23
   6   3 -63   68.44   38.88
  -6  -3  63   -4.85   17.66
  -6  -3  63   29.61   36.42
  -3   9  63   -0.12   18.17
   6   3 -66  238.53   62.44
  -6  -3  66  181.54   46.57
  -3   9  66  205.73   63.32
  -6  -3  66  161.20   55.11
   6   3 -69   70.39   38.52
  -6  -3  69   45.89   37.24
  -3   9  69   60.23   40.14
   6   3 -72   95.22   45.72
  -6  -3  72  128.23   57.72
  -3   9  72   21.52   25.34
   6   3 -75  118.92   52.54
  -6  -3  75  110.72   56.29
  -3   9  75   75.17   45.44
   6   3 -78  -26.35   25.79
  -6  -3  78  -31.28   32.02
  -3   9  78  -36.40   43.42
   6   3 -81   -4.66   22.76
  -6  -3  81   37.52   21.48
  -3   9  81   24.03   29.71
   6   3 -84   53.68   36.48
  -6  -3  84   63.80   49.88
  -3   9  84   86.09   51.65
   6   3 -87   21.62   24.07
  -6  -3  87  105.08   47.92
  -3   9  87   83.09   47.42
  -9   5  88   14.54   23.12
  -5  -4 -88    5.46   24.49
  -9   5  85  -11.70   20.60
  -5  -4 -85  -58.32   54.44
   5   4  85  -38.65   38.04
  -9   5  82  -68.73   39.82
  -9   5  82   -9.41   18.63
   5   4  82   10.92   21.90
  -5  -4 -82  -23.47   43.64
  -9   5  79   49.86   34.92
  -9   5  79   89.89   45.72
   5   4  79  151.91   58.33
  -5  -4 -79   65.52   34.73
  -9   5  76   35.43   36.14
   5   4  76    7.76   17.76
  -9   5  76   54.73   33.12
  -5  -4 -76  -15.53   35.57
  -9   5  73   84.86   43.10
   5   4  73   92.14   45.38
  -5  -4 -73   47.81   30.42
  -9   5  73   38.22   31.22
  -9   5  70   37.69   27.02
   5   4  70   49.60   36.92
  -5  -4 -70   42.24   31.24
  -9   5  70  119.68   71.16
  -9   5  67   57.11   35.75
  -9   5  67    6.53   15.85
   5   4  67   -5.46   15.67
  -5  -4 -67  -30.15   34.71
  -9   5  64   -5.46   15.43
  -9   5  64   24.35   24.51
   5   4  64   24.13   28.64
  -5  -4 -64    9.52   13.84
  -9   5  61  173.93   49.27
  -9   5  61  259.24   68.74
   5   4  61  253.57   70.39
  -9   5  58   61.94   27.18
   5   4  58   22.88   23.00
  -9   5  55   24.17   19.34
   5   4  55  -10.42   21.64
  -5  -4 -55   -9.20    9.58
  -9   5  52  212.38   54.86
   5   4  52  273.12   68.35
  -5  -4 -52  182.54   33.76
  -9   5  49   50.57   27.26
   5   4  49   16.41   19.79
  -5  -4 -49    9.28    9.63
   5   4  46    4.81   12.08
  -5  -4 -46   -0.18    9.89
  -9   5  46  -13.73   25.79
  -5  -4 -43  211.45   39.53
   5   4  43  202.33   58.58
  -9   5  43  238.59   56.10
   5   4  43  145.34   28.85
  -9   5  40  167.47   47.40
  -5  -4 -40  237.36   42.42
   5   4  40  194.38   35.08
   5   4  40  192.94   53.85
  -5  -4 -37   23.23   13.28
   5   4  37   31.91   18.37
  -9   5  37  -18.81   25.80
   5   4  37    5.92   12.61
  -9   5  34   66.95   32.22
  -5  -4 -34   99.22   38.21
   5   4  34   74.09   30.93
  -9   5  31  801.60   98.67
   5   4  31  665.14   70.12
  -5  -4 -31  753.59   80.52
   5   4  28   52.07   25.35
  -5  -4 -28   92.46   31.44
  -9   5  28   37.92   27.20
  -5  -4 -25  200.11   49.75
  -5  -4 -25  233.54   48.16
  -9   5  25  212.41   49.90
   5   4  25  201.53   40.54
  -5  -4 -22   56.87   30.31
  -5  -4 -22    7.79   13.54
  -9   5  22   40.21   21.38
   5   4  22   13.00   13.08
  -9   5  19  285.16   59.01
  -5  -4 -19  317.30   57.71
  -5  -4 -19  293.78   53.17
   5   4  19  288.53   49.67
  -5  -4 -16   45.02   23.69
  -5  -4 -16   40.38   19.96
   5   4  16   17.64   13.65
  -9   5  16   24.58   21.67
  -5  -4 -13  438.70   67.47
  -5  -4 -13  360.38   57.55
  -9   5  13  446.46   72.12
   5   4  13  394.02   61.39
  -9   5  10   50.41   27.70
  -5  -4 -10   87.00   31.10
   5   4  10   89.24   29.96
  -9   5   7   85.42   33.77
  -5  -4  -7  113.56   37.25
   5   4   7  110.10   30.50
  -5  -4  -4  455.84   70.16
  -9   5   4  399.29   67.23
  -4   9  -4  399.80   41.01
  -5  -4  -1   61.78   25.76
  -9   5   1   50.04   22.45
  -4   9  -1   45.05   14.84
  -5  -4   2    0.64   18.37
  -4   9   2    4.70    6.88
  -9   5  -2   -0.64   11.73
  -9   5  -5  122.79   35.30
  -5  -4   5  129.88   37.77
  -4   9   5  135.75   27.62
  -9   5  -8   68.58   27.86
  -5  -4   8  108.91   34.73
  -4   9   8  114.49   23.76
  -4   9  11   24.32   13.32
  -5  -4  11   28.29   14.75
  -9   5 -11   18.68   19.76
  -5  -4  14  263.12   57.36
  -4   9  14  252.60   39.59
  -9   5 -14  191.55   44.38
  -9   5 -17  230.48   50.39
  -4   9  17  274.19   44.87
  -5  -4  17  264.02   58.68
  -4   9  17  259.29   41.93
  -4   9  20   26.04   17.53
  -5  -4  20   25.62   21.04
  -9   5 -20    5.18   10.16
  -4   9  20   19.68   21.60
  -4   9  20   16.05    9.96
  -4   9  20    6.95   12.36
  -4   9  23  208.46   40.17
  -5  -4  23  229.03   54.59
  -4   9  23  259.77   50.87
  -9   5 -23  262.42   60.65
  -4   9  23  214.53   38.59
  -4   9  23  262.29   49.18
  -9   5 -26  116.69   34.79
  -5  -4  26  108.63   41.92
  -4   9  26  149.66   37.71
   9  -5  26  109.68   27.08
  -4   9  26  133.32   36.50
  -4   9  26  151.17   37.78
  -4   9  26   64.62   19.58
  -5  -4  29   18.58   18.15
  -4   9  29   70.88   28.99
  -4   9  29   70.68   20.02
  -4   9  29   78.24   25.90
   9  -5  29   80.59   24.73
  -9   5 -29   79.65   28.29
  -4   9  29   44.17   19.45
   5   4 -32   36.82   19.08
  -5  -4  32   68.42   31.67
  -5  -4  32   57.84   16.96
  -4   9  32   76.92   30.14
  -9   5 -32   40.84   18.84
   9  -5  32   79.66   24.20
  -4   9  32   98.11   27.99
  -4   9  32   52.45   23.51
  -4   9  32   49.29   17.57
   5   4 -35  281.48   48.42
  -5  -4  35  231.40   33.26
  -5  -4  35  260.01   61.85
  -9   5 -35  221.14   49.13
  -4   9  35  257.65   54.42
  -4   9  35  243.80   48.25
   9  -5  35  213.59   39.85
  -4   9  35  240.44   49.90
  -4   9  35  183.80   39.43
   5   4 -38    1.88   12.84
  -5  -4  38  -12.38   21.30
  -5  -4  38   10.28    8.38
  -4   9  38   -2.45   13.37
  -4   9  38   21.23   25.47
   9  -5  38   39.94   20.30
  -4   9  38   21.28   21.36
   5   4 -41   65.72   26.10
  -5  -4  41    7.52   21.66
  -5  -4  41   57.25   19.60
  -4   9  41   20.04   14.33
   9  -5  41   72.98   24.56
  -4   9  41   28.59    9.38
  -5  -4  44  520.34   52.97
  -4   9  44  645.44   74.72
  -4   9  44  661.34   94.56
   9  -5  44  644.28   73.77
   5   4 -44  641.23   80.76
  -5  -4  44  640.95  100.99
   5   4 -47   37.19   25.34
  -5  -4  47   28.66   14.68
  -5  -4  47   78.16   45.76
  -4   9  47   47.18   28.54
  -4   9  47   46.71   23.32
   9  -5  47   -1.80   10.56
   5   4 -50   -6.05   19.71
  -5  -4  50   33.71   15.82
  -5  -4  50   17.56   29.04
  -4   9  50   32.39   27.27
   9  -5  50  -10.07   18.09
  -4   9  50   10.76   10.78
   5   4 -53   14.03   22.91
  -5  -4  53    2.32    9.65
  -5  -4  53   51.32   35.67
  -4   9  53   16.07   26.54
   9  -5  53   35.29   21.60
   5   4 -56  246.04   55.99
  -5  -4  56  136.93   31.75
  -5  -4  56  241.39   66.90
  -4   9  56  249.89   64.15
  -4   9  56  255.20   46.18
   9  -5  56  275.69   53.66
  -4   9  59    3.30   11.97
  -5  -4  59    3.70   13.38
  -5  -4  59  -16.51   17.09
  -4   9  59  -18.90   21.66
   5   4 -59   -7.20   25.67
  -5  -4  62   93.65   49.66
  -4   9  62  181.35   55.20
   5   4 -62  155.05   50.40
  -9   5 -65  162.36   44.37
  -5  -4  65   27.67   25.80
  -4   9  65  104.15   44.70
   5   4 -65  118.46   45.12
  -5  -4  68  193.03   64.24
  -4   9  68  179.60   58.45
  -9   5 -68  120.42   37.48
   5   4 -68   91.75   41.50
  -5  -4  71   45.42   33.12
  -9   5 -71   43.48   24.38
  -4   9  71   60.58   37.90
   5   4 -71   54.76   33.63
  -5  -4  74   64.04   44.30
  -4   9  74   32.50   15.90
   5   4 -74  -10.29   27.12
  -5  -4  77   11.95   29.39
  -4   9  77   -0.41   26.13
   5   4 -77   14.09   24.94
  -4   9  80    3.36   23.85
   5   4 -80   26.73   22.28
  -5  -4  80   11.32   29.72
  -4   9  83   55.64   35.43
  -5  -4  83  180.44   67.02
   5   4 -83   87.83   49.11
  -4   9  86   17.82   30.08
  -5  -4  86   49.23   40.42
   5   4 -86    9.88   27.55
  -5  -4  89    0.87   24.34
   5   4 -89   -1.12   24.68
  -9   4  89   21.66   34.41
  -9   4  86   15.17   25.52
   4   5  86    1.65   24.05
  -4  -5 -86  -45.07   45.82
  -9   4  86   65.08   32.34
  -9   4  83  149.10   58.40
  -9   4  83  181.53   58.85
   4   5  83  119.96   56.68
  -4  -5 -83  141.00   53.91
  -9   4  80   10.72   24.46
  -9   4  80  -20.91   24.78
   4   5  80   11.71   18.83
  -4  -5 -80   29.75   28.19
  -9   4  77    9.62   27.39
  -9   4  77   28.16   14.56
   4   5  77    3.43   21.23
  -4  -5 -77   27.18   21.87
  -9   4  74   -6.49   24.53
   4   5  74  -36.60   34.90
  -9   4  74    4.57   15.30
  -4  -5 -74   10.96   24.90
  -9   4  71   23.73   30.45
   4   5  71   32.64   29.73
  -9   4  71   -5.96   25.09
  -4  -5 -71   22.72   17.82
   4   5  68   32.87   31.00
  -9   4  68   25.10   30.47
  -9   4  68    4.59   17.22
  -4  -5 -68   14.40   28.46
  -9   4  65  262.99   72.42
   4   5  65  295.77   76.13
  -4  -5 -65  220.65   55.21
  -9   4  65  253.60   63.00
   4   5  62   14.00   28.60
  -9   4  62  109.97   48.48
  -4  -5 -62   36.61   34.03
  -9   4  62   15.64   20.99
  -9   4  59   40.04   27.33
   4   5  59   -1.94   15.06
  -4  -5 -59    2.14   11.75
  -9   4  56  296.40   68.50
  -4  -5 -56  251.51   51.50
   4   5  56  197.59   59.52
  -9   4  53   35.74   32.45
  -4  -5 -53   13.49    9.89
   4   5  53   25.59   28.58
  -4  -5 -53    1.57   17.43
  -9   4  50   88.05   37.17
  -4  -5 -50   56.28   16.75
   4   5  50  127.51   50.76
  -4  -5 -50   66.86   24.55
   4   5  47  144.19   28.15
  -9   4  47  174.66   51.10
  -5   9 -47  151.48   27.33
  -4  -5 -47  135.59   26.83
   4   5  47  208.31   58.90
  -4  -5 -47  150.07   36.85
   4   5  44  352.18   74.33
  -4  -5 -44  510.55   59.38
  -5   9 -44  439.72   44.24
  -9   4  44  447.76   77.86
  -4  -5 -44  338.94   47.49
   4   5  44  419.43   46.67
   4   5  41   88.52   20.02
  -9   4  41  126.12   38.44
  -5   9 -41   83.23   18.40
  -4  -5 -41  128.70   31.94
   4   5  41  104.32   41.78
  -4  -5 -41  125.34   28.02
   4   5  38   36.27   14.80
  -9   4  38   39.20   20.96
   4   5  38   -0.46   18.45
  -5   9 -38   35.35   11.23
  -4  -5 -38   39.44   20.60
  -4  -5 -38   13.88    9.15
   4   5  35  157.82   46.05
  -9   4  35  258.28   55.05
  -5   9 -35  177.21   23.82
   4   5  35  219.57   37.33
  -4  -5 -35  142.65   23.70
  -4  -5 -35  282.42   47.40
  -9   4  32    1.32   15.10
   4   5  32  -14.73   13.30
  -4  -5 -32   13.85    7.79
  -4  -5 -32  -15.85   18.12
  -4  -5 -29    5.32   10.40
  -4  -5 -29   28.46   22.20
   4   5  29    0.84    8.05
  -9   4  29    2.36   14.76
  -4  -5 -29    4.45    6.45
  -4  -5 -26   73.02   10.39
  -4  -5 -26  150.75   37.81
  -4  -5 -26  158.46   43.80
   4   5  26  190.40   38.10
  -9   4  26  165.84   46.49
  -4  -5 -23  187.17   41.61
  -4  -5 -23  125.24   36.28
   4   5  23  136.98   31.91
  -9   4  23  179.43   47.97
  -9   4  20   65.49   28.75
  -4  -5 -20  112.43   32.05
  -4  -5 -20   69.10   26.66
   4   5  20   48.70   19.03
  -4  -5 -17  387.75   57.16
  -9   4  17  399.28   67.98
  -5   9 -17  216.67   19.51
   4   5  17  428.11   60.12
  -4  -5 -17  397.27   61.34
  -4  -5 -14   35.70   22.01
   4   5  14   65.78   25.77
  -4  -5 -14   64.48   26.00
  -9   4  14   73.57   31.29
  -4  -5 -11   36.83   23.12
   4   5  11   20.19   15.67
  -4  -5 -11   16.77   14.01
  -9   4  11   33.71   24.63
  -5   9 -11    6.71    4.06
  -4  -5  -8  353.36   48.50
   4   5   8  471.57   64.33
  -9   4   8  423.22   68.47
  -5   9  -8  339.82   28.08
  -4  -5  -8  406.14   64.31
   4   5   5   37.18   19.62
  -4  -5  -5   38.18   20.00
  -9   4   5   22.19   16.97
  -4  -5  -5   38.39   20.00
  -5   9  -5   23.51    8.80
  -4  -5  -2   21.78   10.52
  -4  -5  -2   15.79   10.80
  -5   9  -2   11.10    6.32
  -9   4   2   25.93   14.24
  -4  -5   1   25.75   12.20
  -4  -5   1   19.43   14.39
  -5   9   1   21.81    8.20
  -9   4  -1   44.06   24.39
  -4  -5   4  170.48   26.63
  -4  -5   4  206.69   48.78
  -5   9   4  266.32   31.90
  -9   4  -4  207.60   49.35
  -9   4  -7  161.39   42.51
  -4  -5   7  116.88   21.57
  -4  -5   7  184.84   45.60
  -5   9   7  154.95   25.02
  -4  -5  10  228.29   26.40
  -4  -5  10  365.58   65.97
  -5   9  10  336.57   39.33
  -9   4 -10  355.15   62.38
  -4  -5  13   45.36   10.29
  -4  -5  13  125.80   40.24
  -9   4 -13   60.26   24.61
  -5   9  13  100.49   23.61
  -4  -5  16   53.87    9.87
  -4  -5  16  144.48   41.24
  -9   4 -16  115.97   36.06
  -4  -5  19  270.30   61.59
  -9   4 -19  300.63   55.75
  -5   9  19  327.99   53.12
  -5   9  22  182.07   40.11
  -4  -5  22  218.43   53.72
  -9   4 -22  249.22   50.50
  -5   9  25  242.03   46.82
   4   5 -25  208.07   33.66
  -4  -5  25  205.48   52.89
  -9   4 -25  243.78   50.04
   4   5 -28   81.78   23.00
  -4  -5  28   83.98   33.97
  -5   9  28  151.89   42.94
  -9   4 -28   89.88   34.11
   9  -4  28   76.09   26.04
  -9   4 -31  634.66   79.68
  -5   9  31  616.16   83.15
  -5   9  31  679.60   82.12
   9  -4  31  642.68   74.04
   4   5 -31  496.24   59.69
  -4  -5  31  613.07   93.45
  -4  -5  34  305.87   71.12
  -5   9  34  283.38   59.79
  -5   9  34  370.41   60.91
   9  -4  34  318.89   54.81
  -9   4 -34  304.74   58.07
   4   5 -34  255.43   44.04
  -4  -5  37  -22.22   22.61
  -5   9  37   20.86   22.01
  -5   9  37  -23.95   16.76
   9  -4  37    7.62    9.51
  -9   4 -37  -18.50   19.65
   4   5 -37  -30.35   22.05
  -4  -5  40  136.36   52.45
  -5   9  40  188.02   41.38
  -5   9  40  190.79   51.30
   9  -4  40  169.08   40.36
  -9   4 -40  166.39   41.60
   4   5 -40  174.64   39.15
  -4  -5  43    2.25   24.57
  -5   9  43   38.62   22.49
  -5   9  43  107.41   33.08
   9  -4  43   47.61   23.63
  -9   4 -43   63.79   29.58
   4   5 -43   24.32   18.12
  -4  -5  46  114.29   47.44
  -5   9  46   67.79   32.59
   9  -4  46   82.09   30.00
  -9   4 -46   59.85   26.24
   4   5 -46  102.35   32.64
  -5   9  46   57.64   21.10
  -4  -5  49   45.68   27.46
  -5   9  49   63.77   29.71
  -5   9  49   69.47   22.85
   9  -4  49   74.62   28.96
   4   5 -49   12.03   13.67
  -4  -5  52  242.16   67.40
  -9   4 -52  179.04   42.02
  -5   9  52  194.39   54.50
  -5   9  52  359.78   58.93
   9  -4  52  239.72   52.80
   4   5 -52  190.81   44.65
  -4  -5  55  -16.39   19.48
  -5   9  55   15.94   19.86
  -5   9  55    4.89   15.67
  -9   4 -55    6.62   10.94
   9  -4  55   21.12   16.12
   4   5 -55  -30.37   30.01
  -4  -5  58   90.44   41.28
  -5   9  58   97.61   37.53
  -5   9  58  109.74   32.51
  -9   4 -58  119.40   35.98
   9  -4  58  100.24   33.70
   4   5 -58   56.66   28.10
  -4  -5  61   12.80   21.44
  -5   9  61   27.39   26.23
  -9   4 -61   31.96   21.51
   9  -4  61   43.87   27.07
  -5   9  61   18.52   12.65
   4   5 -61  -29.17   24.87
  -4  -5  64  103.15   42.61
  -5   9  64  158.87   57.47
  -9   4 -64  153.07   39.80
  -5   9  64  155.34   35.95
   9  -4  64  165.59   48.59
   4   5 -64  139.30   46.04
  -5   9  67   56.60   27.08
  -9   4 -67  102.63   33.99
   9  -4  67  131.02   46.14
   4   5 -67   60.51   35.15
  -4  -5  67   97.90   44.11
  -9   4 -70   18.88   18.09
  -5   9  70  -10.81   15.97
   4   5 -70  -21.08   15.95
  -4  -5  70  -24.00   24.48
  -5   9  73   34.90   31.15
   4   5 -73   32.44   24.05
  -4  -5  73   20.95   30.02
  -5   9  76   38.93   30.65
   4   5 -76   31.03   27.26
  -5   9  79   43.73   41.26
  -4  -5  79   78.52   41.55
   4   5 -79   88.83   47.12
  -5   9  82   58.37   27.47
  -4  -5  82  -17.53   21.97
   4   5 -82  -28.20   32.74
  -5   9  85    7.09   21.32
  -4  -5  85  -36.77   35.94
   4   5 -85  -55.72   41.47
   4   5 -88   -4.90   28.15
  -4  -5  88   25.39   25.59
  -9   3  87  128.85   58.88
  -9   3  87  142.91   57.54
  -9   3  84   26.24   28.85
  -9   3  84   58.73   32.88
   3   6  84  -11.11   19.34
  -3  -6 -84  -11.89   26.38
  -9   3  81   29.00   40.05
   3   6  81    5.37   21.40
  -3  -6 -81  -41.32   36.11
  -9   3  78  -16.98   22.40
  -9   3  78    7.79   24.39
   3   6  78   31.27   34.88
  -3  -6 -78  -27.60   22.20
  -9   3  75   27.94   33.36
   3   6  75   49.41   40.07
  -9   3  75  123.61   52.55
  -3  -6 -75   44.73   31.37
  -9   3  72   19.69   25.00
  -9   3  72   -7.67   21.79
  -3  -6 -72  -25.48   14.71
  -3  -6 -69   91.73   33.74
  -9   3  69   94.44   39.96
   3   6  69   59.16   26.61
  -9   3  69  181.62   55.27
  -9   3  66   72.40   41.70
  -9   3  66   56.59   37.50
   3   6  66   -2.21   19.76
  -3  -6 -66   96.41   34.06
  -9   3  63  -20.83   22.89
   3   6  63   -5.61   25.21
  -9   3  63   40.57   30.54
  -3  -6 -63    2.72   13.60
   3   6  60  131.54   49.00
  -9   3  60  152.03   51.83
  -9   3  60  131.38   44.89
  -3  -6 -60  127.70   37.47
   3   6  57   32.99   24.83
  -9   3  57   85.94   38.82
  -3  -6 -57   42.00   21.96
   3   6  54   49.21   30.91
  -3  -6 -54   -2.37   18.99
  -9   3  54   29.90   19.12
  -9   3  51  130.01   48.64
   3   6  51  109.45   47.54
  -3  -6 -51   62.00   24.33
   3   6  48  712.33  106.34
  -9   3  48  820.24  110.66
  -3  -6 -48  573.38   64.65
  -9   3  45  233.99   61.85
   3   6  45  230.43   62.20
  -3  -6 -45  222.85   38.73
  -6   9 -45  150.04   25.45
   3   6  45  221.82   33.60
  -3  -6 -45  259.46   38.83
  -3  -6 -42  -22.91   12.58
  -9   3  42   -1.43   12.48
   3   6  42  -25.62   14.02
  -3  -6 -42  -15.66   16.09
  -6   9 -42    8.97    4.35
   3   6  42  -20.84   23.67
  -3  -6 -39  140.56   26.21
   3   6  39  138.57   44.14
  -3  -6 -39  193.11   38.50
  -9   3  39  131.92   40.34
   3   6  39  169.07   31.78
  -6   9 -39   99.23   16.43
  -6   9 -36   40.11    9.34
   3   6  36   44.97   14.53
  -9   3  36   75.24   33.40
   3   6  36   69.33   32.35
  -3  -6 -36   51.67   21.91
   3   6  33  146.09   33.56
  -9   3  33  205.81   52.26
   3   6  33   78.08   30.13
  -3  -6 -33  177.03   40.55
   3   6  30  211.30   39.05
  -3  -6 -30  213.66   48.48
  -9   3  30  253.25   61.83
  -3  -6 -30  252.59   48.60
   3   6  30  182.31   47.32
   3   6  27   63.03   21.05
  -3  -6 -27   58.82   24.49
  -9   3  27   83.97   31.88
  -3  -6 -27   34.96   21.30
   3   6  24   23.20    9.45
  -3  -6 -24   35.43   17.01
  -3  -6 -24   28.74   14.60
  -9   3  24   33.93   26.28
  -3  -6 -21  203.44   43.87
  -9   3  21  196.22   47.37
  -3  -6 -21  229.39   45.13
   3   6  21  231.55   43.41
  -3  -6 -18   60.10   27.79
  -9   3  18   49.43   27.36
   3   6  18   68.13   25.33
  -3  -6 -18   77.14   27.32
  -3  -6 -15   43.85   18.94
  -9   3  15   64.68   30.85
   3   6  15   40.19   21.18
  -3  -6 -15   38.60   19.21
  -9   3  12  584.45   83.78
  -3  -6 -12  506.60   60.98
   3   6  12  580.93   72.60
  -3  -6 -12  608.20   79.81
  -3  -6  -9   49.67   20.32
   3   6   9   48.99   21.57
  -9   3   9   38.29   25.37
  -3  -6  -9   77.70   33.09
  -9   3   6  146.53   41.55
  -3  -6  -6  154.79   42.94
  -3  -6  -6  140.39   28.44
   3   6   6  128.67   34.88
  -3  -6  -3   59.57   28.98
  -9   3   3   11.46   19.46
  -3  -6  -3   43.89   17.72
  -9   3   0  713.83   88.32
  -3  -6   0  600.48   50.44
  -3  -6   0  744.47   91.94
  -9   3  -3  353.31   62.78
  -3  -6   3  306.03   33.25
  -3  -6   3  460.01   73.89
  -3  -6   6  151.07   42.08
  -9   3  -6  111.01   37.60
  -3  -6   9   15.66   16.44
  -9   3  -9   -4.89   16.95
  -3  -6  12  112.06   41.23
  -9   3 -12   91.00   32.99
  -3  -6  15  116.29   38.76
  -9   3 -15  108.78   33.46
  -3  -6  18  244.08   55.43
  -9   3 -18  247.54   51.26
   3   6 -18  189.62   26.75
  -3  -6  21  123.45   42.32
  -9   3 -21  122.90   36.74
   3   6 -21  105.53   21.27
  -3  -6  24  286.97   64.21
  -9   3 -24  306.86   57.84
   3   6 -24  194.01   30.74
  -9   3 -27  842.95   94.76
  -3  -6  27  908.51  113.40
   3   6 -27  715.03   65.12
  -3  -6  30  224.15   61.50
  -9   3 -30  191.29   45.29
   3   6 -30  107.16   27.97
  -3  -6  33   60.01   30.84
   9  -3  33   89.96   36.55
   6  -9 -33   46.65   24.13
  -9   3 -33   84.26   31.30
   3   6 -33   36.50   15.72
  -3  -6  36  132.94   46.24
  -6   9  36  213.24   53.31
   6  -9 -36  131.32   33.12
  -9   3 -36  150.58   40.32
   9  -3  36  112.73   36.18
   3   6 -36  103.59   27.03
  -3  -6  39  214.48   58.66
   9  -3  39  228.73   51.44
  -6   9  39  159.80   48.01
  -9   3 -39  131.94   38.24
   3   6 -39  146.86   37.45
  -3  -6  42  417.90   84.64
  -6   9  42  388.38   72.62
   9  -3  42  453.42   73.06
  -9   3 -42  532.33   73.64
   3   6 -42  398.44   61.90
  -9   3 -45  150.86   38.63
  -6   9  45  175.53   49.43
   9  -3  45  155.94   42.33
   3   6 -45   94.54   29.45
  -3  -6  45  126.16   51.17
  -6   9  48  201.75   56.16
  -6   9  48  212.57   47.22
  -9   3 -48  130.42   37.44
   3   6 -48  117.69   36.65
   9  -3  48  117.47   37.79
  -3  -6  48  137.19   45.06
   9  -3  51   62.40   31.87
  -6   9  51   -8.09   18.16
  -6   9  51    9.45   21.50
  -9   3 -51   28.48   22.93
   3   6 -51  -34.19   26.21
  -3  -6  51  -23.42   29.30
   9  -3  54   -4.32   19.95
  -6   9  54   46.12   32.78
  -6   9  54    1.00   10.07
  -9   3 -54   10.20   17.23
   3   6 -54   -4.06   14.32
  -3  -6  54   16.64   24.60
  -6   9  57   24.11   10.24
  -6   9  57   12.63   16.45
  -9   3 -57   28.11   19.92
   9  -3  57   39.23   24.34
   3   6 -57   17.21   21.50
  -3  -6  57  -15.04   27.27
  -6   9  60   85.09   38.53
  -9   3 -60   79.31   29.51
  -6   9  60  157.94   41.40
   9  -3  60   64.75   33.89
   3   6 -60   84.47   33.05
  -3  -6  60   48.83   33.07
  -9   3 -63   90.77   30.09
  -6   9  63  103.60   46.14
  -6   9  63  118.85   35.76
   9  -3  63   82.14   38.51
   3   6 -63  133.35   45.17
  -3  -6  63  107.03   46.79
  -6   9  66   39.69   20.24
  -9   3 -66   40.64   24.14
  -6   9  66   93.32   48.94
   9  -3  66   38.28   21.32
   3   6 -66   28.32   23.59
  -3  -6  66   18.81   22.65
  -6   9  69  111.89   44.91
   9  -3  69   83.85   36.24
  -3  -6  69   69.26   33.26
   3   6 -69   84.68   43.16
  -6   9  72  -19.78   27.87
   9  -3  72   27.98   24.39
  -3  -6  72    5.12   17.54
   3   6 -72    8.28   17.83
  -6   9  75  203.46   62.79
   9  -3  75  184.61   55.48
  -3  -6  75  240.30   73.69
   3   6 -75  236.82   68.87
  -6   9  78   -9.80   33.43
  -3  -6  78   71.50   40.20
   3   6 -78   50.35   27.38
  -6   9  81   -5.97   29.66
  -3  -6  81   30.36   35.82
   3   6 -81  -20.31   23.91
  -6   9  84  -42.48   32.14
  -3  -6  84  -19.90   41.04
   3   6 -84   15.32   23.98
  -3  -6  87  -40.42   40.80
   3   6 -87   29.48   34.38
  -9   2  88  -24.94   28.50
  -9   2  88  -31.41   29.30
  -9   2  85  -16.11   26.85
  -9   2  85  -86.13   43.96
   2   7  85   37.46   42.11
  -9   2  82    1.33   22.56
  -9   2  82  -44.97   38.19
   2   7  82   23.71   32.80
  -2  -7 -79   92.90   43.63
  -9   2  79  109.76   52.88
  -9   2  79  153.49   56.81
   2   7  79  106.08   47.03
  -2  -7 -76  -26.18   25.19
  -9   2  76   59.13   45.13
  -9   2  76   11.18   32.84
   2   7  76   31.42   31.53
  -2  -7 -73   19.43   23.73
  -9   2  73   65.36   37.15
  -9   2  73  -30.35   36.95
   2   7  73   -3.01   15.82
  -2  -7 -70  -28.93   24.72
  -9   2  70  -28.84   28.39
  -9   2  70   13.18   19.38
   2   7  70   19.22   22.49
  -2  -7 -67   20.03   13.74
  -9   2  67    8.28   17.62
  -9   2  67   59.02   41.62
   2   7  67  -18.12   25.02
  -2  -7 -64   25.53   26.25
  -9   2  64   -9.57   23.35
   2   7  64   -2.49   14.91
  -9   2  64   51.15   34.66
  -2  -7 -61  108.13   35.59
  -9   2  61   43.29   28.68
  -9   2  61  141.32   55.46
   2   7  61  107.05   46.26
  -2  -7 -58    9.05   21.12
   2   7  58  -17.76   26.90
  -9   2  58   32.97   27.09
  -2  -7 -55   53.09   28.79
   2   7  55   89.53   43.49
  -9   2  55  103.30   45.48
  -9   2  52  627.91  100.88
   2   7  52  557.14   96.07
  -2  -7 -52  550.60   68.76
   2   7  49  146.54   51.27
  -9   2  49  271.57   69.26
   2   7  46   73.87   35.99
  -9   2  46   31.24   27.59
  -9   2  43  244.46   61.45
   2   7  43  231.32   36.93
   2   7  43  333.84   72.64
   2   7  40  216.53   37.84
  -9   2  40  273.86   65.68
   2   7  40  201.52   53.73
  -2  -7 -40  284.70   49.47
  -9   2  37  103.05   38.39
   2   7  37  103.58   37.95
  -2  -7 -37  157.21   37.08
   2   7  37  109.99   27.80
  -9   2  34   48.67   28.36
  -2  -7 -34   74.79   28.56
   2   7  34   45.38   23.70
   2   7  34   46.79   18.61
   2   7  31  183.65   47.20
  -9   2  31  151.41   43.52
  -2  -7 -31  189.86   41.56
   2   7  31  171.11   33.41
  -9   2  28   27.72   26.05
  -2  -7 -28   48.24   26.23
   2   7  28   -6.95   17.34
  -2  -7 -28    0.08   11.68
   2   7  28  -14.16   22.14
  -9   2  25  124.18   41.92
  -2  -7 -25  111.11   31.15
  -2  -7 -25  193.65   45.62
   2   7  25  112.25   29.05
  -9   2  22  139.41   45.05
  -2  -7 -22  102.23   34.62
   2   7  22  139.27   33.75
  -2  -7 -22  150.97   38.25
  -9   2  19   38.62   28.64
  -2  -7 -19   86.35   28.97
   2   7  19  132.47   35.79
  -2  -7 -19  110.52   34.35
  -9   2  16  293.16   61.92
   2   7  16  237.07   46.95
  -2  -7 -16  253.28   51.71
  -9   2  13  113.88   40.82
   2   7  13  122.47   35.38
  -2  -7 -13  120.14   35.24
  -9   2  10   91.88   35.40
  -2  -7 -10  147.94   39.68
  -9   2   7   57.99   29.79
  -2  -7  -7   76.39   32.30
  -2  -7  -4  865.33   97.45
  -9   2   4  861.31  101.47
  -2  -7  -1  332.15   64.17
  -9   2   1  233.67   50.17
  -9   2  -2   14.15   12.20
  -2  -7   2   41.11   23.77
  -9   2  -5   64.58   27.09
  -2  -7   5   23.73   18.14
  -9   2  -8  253.58   54.07
  -2  -7   8  224.18   52.41
   2   7 -11    5.85    4.46
  -9   2 -11   -3.51   10.38
  -2  -7  11    4.88   14.96
  -9   2 -14   73.61   30.63
  -2  -7  14  101.33   35.39
   2   7 -14   38.44    9.36
  -9   2 -17   20.41   19.68
   2   7 -17  -14.66   10.54
  -2  -7  17   12.03   17.64
   2   7 -20  124.32   23.32
  -9   2 -20  164.06   43.81
  -2  -7  20  170.67   46.07
  -2  -7  23  575.36   87.11
  -9   2 -23  622.73   81.71
   7  -9 -23  603.33   63.44
   2   7 -23  481.71   49.95
   7  -9 -26   31.06   18.94
   2   7 -26  -22.36   17.11
  -2  -7  26    9.43   18.33
  -9   2 -26   28.96   20.53
   7  -9 -29   43.42   20.02
   2   7 -29   29.40   13.16
  -2  -7  29   31.99   20.91
  -9   2 -29   75.99   32.14
   7  -9 -32  189.49   39.97
   2   7 -32  188.96   36.27
  -2  -7  32  165.48   50.68
  -9   2 -32  186.35   43.45
   9  -2  35  285.45   59.01
   2   7 -35  251.39   42.89
  -2  -7  35  331.36   72.41
   7  -9 -35  329.17   55.35
  -9   2 -35  283.00   54.32
   9  -2  38  295.41   60.38
   7  -9 -38  218.44   46.06
   2   7 -38  102.58   30.81
  -2  -7  38  176.63   53.90
  -9   2 -38  268.05   52.14
   9  -2  41   59.03   31.06
   2   7 -41   31.81   13.78
  -2  -7  41   27.06   21.12
  -9   2 -41   82.54   28.46
   9  -2  44  138.32   43.61
  -7   9  44  268.38   56.18
  -7   9  44  236.46   60.14
   2   7 -44  113.42   34.87
  -2  -7  44  256.28   64.44
  -9   2 -44  139.24   36.88
  -7   9  47   60.52   26.87
  -7   9  47   76.87   36.64
   9  -2  47   66.59   37.40
   2   7 -47   -8.38   20.06
  -9   2 -47   -4.49   16.96
  -2  -7  47   53.66   34.34
  -7   9  50   49.44   26.68
  -7   9  50   91.32   37.70
   9  -2  50   32.76   27.13
  -9   2 -50   71.87   30.27
   2   7 -50   39.83   22.54
  -2  -7  50   41.13   26.99
  -7   9  53  122.13   32.75
  -7   9  53  135.36   48.26
  -9   2 -53   43.43   20.88
   2   7 -53   92.18   33.75
  -2  -7  53   66.10   42.22
   9  -2  53   69.10   31.76
  -7   9  56  105.37   44.22
   9  -2  56  147.48   50.14
  -9   2 -56   86.99   25.60
   2   7 -56  175.41   50.67
  -2  -7  56  140.32   50.09
  -7   9  56  185.50   46.39
  -9   2 -59   57.10   23.32
  -7   9  59   88.26   33.54
  -7   9  59   54.82   35.32
   9  -2  59   64.81   34.95
  -2  -7  59  130.92   55.95
   2   7 -59   67.42   33.04
  -7   9  62  181.62   44.22
  -7   9  62   96.02   41.45
  -9   2 -62   69.80   24.12
   9  -2  62  102.82   41.76
  -2  -7  62  135.64   56.60
   2   7 -62  147.19   50.27
  -7   9  65  169.31   44.78
  -7   9  65  156.31   54.58
   9  -2  65   91.99   40.03
  -2  -7  65  104.77   50.19
   2   7 -65   65.93   30.26
  -7   9  68   -7.79   13.98
   9  -2  68   35.49   25.87
  -2  -7  68   37.14   31.23
  -7   9  68   34.36   21.54
   2   7 -68   15.39   17.26
  -7   9  71  255.23   76.41
   9  -2  71  275.99   69.00
  -2  -7  71  185.43   66.79
   2   7 -71  150.49   53.42
  -7   9  74    9.47   25.73
   9  -2  74    0.52   15.81
  -2  -7  74   19.34   31.62
   2   7 -74   -4.79   21.26
  -7   9  77   45.53   36.18
   9  -2  77   37.58   33.05
  -2  -7  77  -14.01   24.33
   2   7 -77   16.53   23.68
  -7   9  80   -9.78   17.46
  -2  -7  80  -32.43   44.99
   9  -2  80   42.35   36.47
  -7   9  83  104.57   49.63
  -2  -7  83   72.28   53.53
   9  -2  83  109.58   49.34
   2   7 -83  105.15   43.98
  -2  -7  86   15.67   30.55
   2   7 -86   26.79   29.63
  -9   1  86  -35.79   35.74
  -9   1  86  -18.78   43.51
   1   8  83  151.45   58.37
  -9   1  83   48.22   25.24
  -9   1  83   79.20   50.71
  -9   1  80   29.98   27.67
  -9   1  80  -51.60   38.45
   1   8  80  -11.73   20.43
  -9   1  77  -21.15   26.38
  -9   1  77   18.73   17.93
   1   8  77   13.42   20.01
  -9   1  74  -20.71   21.91
  -9   1  74  -45.84   33.08
   1   8  74   23.91   27.59
   1   8  71   66.64   41.38
  -9   1  71   44.51   29.15
  -9   1  71  110.44   48.37
  -9   1  68   24.13   23.04
  -9   1  68   86.24   51.20
   1   8  68   19.66   21.49
  -9   1  65   53.25   32.54
  -9   1  65   -0.52   22.68
   1   8  65   21.51   21.33
  -9   1  62   38.07   24.05
  -9   1  62    1.14   18.12
   1   8  62   12.98   21.98
  -9   1  59   29.71   33.25
  -9   1  59   -8.55   15.55
   1   8  59   11.74   23.60
  -9   1  56  135.39   48.40
   1   8  56  333.23   75.34
   1   8  53  -21.29   23.11
  -9   1  53   -1.62   16.07
   1   8  50   60.01   36.52
  -9   1  50   10.51   19.05
   1   8  47  135.35   48.00
  -9   1  47  111.41   46.41
   1   8  44  244.62   62.98
  -9   1  44  204.05   56.25
   1   8  41   49.87   30.71
   1   8  41   13.46   12.58
  -9   1  41   36.07   29.41
   1   8  38  158.87   44.75
   1   8  38  136.04   30.98
  -9   1  38  180.90   53.38
   1   8  35  537.37   64.18
  -9   1  35  515.21   89.13
   1   8  35  473.50   78.75
   1   8  32   86.61   32.98
   1   8  32   63.58   29.40
  -1  -8 -32   49.99   26.95
  -9   1  32   31.30   22.18
  -9   1  29   77.16   34.04
  -1  -8 -29  128.92   38.24
   1   8  29   44.82   18.79
   1   8  29   58.44   26.40
  -9   1  26   19.46   22.73
   1   8  26   -4.60   19.88
   1   8  26    7.15   16.30
  -1  -8 -26   35.14   22.30
  -9   1  23  287.21   62.48
  -1  -8 -23  325.01   57.60
   1   8  23  283.85   48.18
   1   8  23  290.00   56.40
  -9   1  20  -15.96   18.96
   1   8  20   19.53   18.86
  -1  -8 -20    8.63   14.80
  -9   1  17  247.04   58.75
  -1  -8 -17  169.45   41.12
  -1  -8 -14   74.38   28.75
  -9   1  14   94.51   34.70
  -9   1  11   37.64   22.90
  -9   1  11   10.53   14.58
  -1  -8 -11   39.14   22.28
  -9   1   8  325.78   61.67
  -9   1   8  368.72   69.74
  -1  -8  -8  346.25   61.45
  -9   1   5   53.28   30.68
  -1  -8  -5   50.32   27.91
  -9   1   2   91.08   33.23
  -1  -8  -2   52.20   23.85
  -9   1  -1   32.41   19.56
  -1  -8   1   14.19   21.62
  -9   1  -4  303.64   61.20
  -1  -8   4  267.15   57.32
  -9   1  -7   22.48   21.79
  -1  -8   7   -0.16   17.52
   1   8  -7   19.16    6.06
  -9   1 -10   15.00   16.32
  -1  -8  10  -10.07   17.04
  -9   1 -13   54.75   26.28
  -1  -8  13   -9.70   14.05
  -9   1 -16   95.51   37.91
   8  -9 -16   70.46   18.96
  -1  -8  16   71.19   33.28
  -9   1 -19   63.84   27.81
   8  -9 -19   65.75   19.55
  -1  -8  19   76.37   32.27
  -9   1 -22   14.39   17.83
   8  -9 -22  -11.55   14.53
  -1  -8  22   10.88   15.55
  -9   1 -25   -5.40   13.05
   8  -9 -25    2.38    8.86
  -1  -8  25    3.90   16.32
  -9   1 -28   94.93   35.90
   8  -9 -28   63.77   24.48
  -1  -8  28   65.52   35.00
  -9   1 -31  361.86   62.67
   8  -9 -31  337.14   53.54
  -1  -8  31  343.75   71.77
  -9   1 -34   21.58   11.88
   8  -9 -34   41.88   26.51
  -1  -8  34    5.17   14.69
  -9   1 -37   92.93   30.80
   9  -1  37   48.94   26.84
   8  -9 -37   81.33   25.03
  -1  -8  37   54.78   33.98
  -8   9  37   80.41   31.62
   9  -1  40  230.76   56.71
  -9   1 -40  278.99   54.18
  -8   9  40  306.72   61.75
  -1  -8  40  257.76   64.47
  -8   9  43   54.06   29.60
  -9   1 -43   79.82   24.14
   9  -1  43   47.12   28.42
  -1  -8  43   86.79   39.17
   9  -1  46   96.78   35.97
  -8   9  46   65.21   33.48
  -9   1 -46   19.44   15.49
  -1  -8  46    7.92   14.74
  -8   9  49   34.15   20.54
  -9   1 -49   -1.02   15.84
  -8   9  49   89.52   36.04
  -1  -8  49   62.49   32.07
   9  -1  49   53.98   34.71
  -8   9  52  437.87   84.97
  -9   1 -52  298.61   54.54
   9  -1  52  403.40   81.20
  -8   9  52  425.23   76.00
  -1  -8  52  383.52   81.15
  -9   1 -55   46.77   22.09
  -8   9  55   88.17   44.43
   9  -1  55   90.46   41.66
  -8   9  55   36.32   27.26
  -1  -8  55   44.60   38.03
  -9   1 -58  153.83   38.57
  -8   9  58  259.26   65.28
  -8   9  58  247.54   55.65
   9  -1  58  132.90   46.59
  -1  -8  58  171.77   55.61
  -8   9  61  115.46   41.91
  -8   9  61   57.45   29.14
   9  -1  61   79.13   41.97
  -1  -8  61   48.70   29.69
  -8   9  64   13.84   17.46
   9  -1  64   -5.03   24.62
  -1  -8  64   43.66   35.86
  -8   9  67   94.14   47.70
   9  -1  67   85.22   38.19
  -1  -8  67   86.35   42.17
   1   8 -67   67.36   38.84
  -8   9  67   56.97   24.79
  -8   9  70   39.60   33.97
  -1  -8  70   24.41   33.88
   9  -1  70  -23.96   29.61
   1   8 -70   10.81   17.14
  -8   9  70   14.50   13.62
  -8   9  73  107.88   43.86
  -1  -8  73  146.21   59.38
   9  -1  73   65.40   33.38
   1   8 -73  130.68   44.63
  -8   9  76   14.34   23.16
   9  -1  76    8.06   21.89
  -1  -8  76  -17.47   33.74
   1   8 -76  -53.40   37.87
  -8   9  79   90.71   47.94
  -1  -8  79   85.51   52.80
   9  -1  79  160.38   62.74
   1   8 -79  138.05   50.36
  -1  -8  82  -13.89   31.60
  -8   9  82  -33.25   44.28
   9  -1  82  -26.94   32.96
  -1  -8  85   32.93   35.26
   9  -1  85   44.12   36.44
   1   8 -85    7.62   18.46
  -9   0  81   10.89   37.40
   0   9  81  -13.38   18.73
  -9   0  78  -24.63   36.29
   0   9  78   23.53   25.61
  -9   0  75   32.20   18.55
  -9   0  75   30.03   29.56
   0   9  75   67.60   40.35
  -9   0  72   14.16   23.05
  -9   0  72   -5.88   26.32
   0   9  72   51.33   40.94
  -9   0  69   -7.65   20.63
  -9   0  69    7.24   21.45
   0   9  69    7.32   15.83
  -9   0  66   11.45   23.04
  -9   0  66    7.97   26.32
   0   9  66   43.58   27.47
  -9   0  63   27.78   29.04
  -9   0  63   24.44   26.20
   0   9  63   32.48   30.40
  -9   0  60   49.45   34.46
  -9   0  60   72.89   35.98
   0   9  60   31.21   19.12
  -9   0  57    1.21   20.42
  -9   0  57  -42.20   28.07
   0   9  57  -11.61   25.02
  -9   0  54   27.93   27.65
   0   9  54   -2.68   25.99
  -9   0  51   13.62   18.42
   0   9  51   -8.73   15.83
  -9   0  48  152.39   57.19
   0   9  48  174.88   51.25
  -9   0  45   79.12   41.84
   0   9  45   32.19   25.02
   0   9  42   98.59   41.48
  -9   0  42  116.82   41.94
   0   9  39  176.57   38.84
   0   9  39  226.82   56.83
  -9   0  39  208.94   61.18
   0   9  36   67.43   24.42
   0   9  36   42.29   25.74
  -9   0  36   44.59   26.68
   0   9  33   44.22   26.78
   0   9  33   77.79   33.06
  -9   0  33   57.98   38.05
   0   9  30   33.91   23.17
   0   9  30   28.43   26.51
  -9   0  30   61.54   40.91
  -9   0  27  860.13  115.76
   0   9  27  674.73   88.86
   0  -9 -24   23.04   24.27
   0   9  24   18.19   20.23
  -9   0  24   56.07   32.35
   0   9  21  105.03   33.87
   0  -9 -21  158.47   42.25
  -9   0  21  131.21   43.03
   0  -9 -18  105.98   33.75
   0   9  18   75.79   27.20
  -9   0  18  114.58   43.71
   0  -9 -15   34.66   25.65
  -9   0  15   73.06   34.41
  -9   0  15   33.59   20.14
  -9   0  12   21.64   14.24
   0  -9 -12   14.56   13.24
  -9   0  12   -1.54   14.20
  -9   0   9   83.05   35.43
  -9   0   9   85.57   32.17
   0  -9  -9   73.93   29.98
  -9   0   6  102.21   36.45
  -9   0   6  125.18   39.09
   0  -9  -6  108.36   35.77
  -9   0   3    2.08   14.99
  -9   0   3   58.91   25.82
   0  -9  -3   35.39   18.33
  -9   0   0  274.98   58.76
   0  -9   0  288.55   60.18
   0   9   0  153.34   18.72
  -9   0  -3   21.66   23.55
   0  -9   3   12.26   11.96
   0  -9   6   43.53   24.04
  -9   0  -6   59.86   32.88
  -9   0  -9   48.47   28.52
   9  -9  -9   29.72    9.90
   0  -9   9   16.81   18.70
  -9   0 -12   28.31   14.39
   9  -9 -12   30.41   11.12
   0  -9  12   68.37   34.54
  -9   0 -15  -13.63   17.13
   0  -9  15   11.46   15.80
   9  -9 -15   10.99    5.80
   9  -9 -18   15.29   11.79
  -9   0 -18   -6.98   15.35
   0  -9  18   -6.08   14.39
  -9   0 -21   68.66   28.83
   9  -9 -21   91.64   22.13
   0  -9  21   72.34   31.21
  -9   0 -24   -8.24   26.13
   9  -9 -24   -4.34    9.32
   0  -9  24  -39.67   25.43
  -9   0 -27  152.34   43.02
   9  -9 -27  141.75   34.13
  -9   9  27  192.67   52.29
   0  -9  27  184.66   50.86
  -9   0 -30    6.00   20.12
   9  -9 -30  -26.97   20.67
   0  -9  30  -31.37   29.03
  -9   9  30  -20.94   26.09
  -9   0 -33   38.86   24.75
   9  -9 -33   32.08   17.17
   0  -9  33   48.08   33.57
  -9   9  33   19.47   17.31
  -9   0 -36  146.36   41.08
  -9   9  36  157.83   45.95
   0  -9  36  199.92   62.07
  -9   0 -39  126.08   40.29
   9   0  39   91.30   38.10
   0  -9  39  104.70   46.96
  -9   9  39   95.07   38.81
  -9   0 -42   36.53   26.22
  -9   9  42  -33.56   22.59
   9   0  42   21.34   26.99
   0  -9  42    1.10   17.33
  -9   9  45   48.51   26.74
   9   0  45   -3.29   17.77
   0  -9  45   72.08   41.52
  -9   0 -45   -1.58   12.71
  -9   0 -48  521.54   77.54
   9   0  48  378.02   78.79
   0  -9  48  443.44   91.33
  -9   9  48  541.87   88.33
   9   0  51   95.95   46.61
  -9   9  51   51.28   34.60
   0  -9  51  121.43   45.60
  -9   0 -51   26.06   20.96
  -9   9  54   65.47   29.85
  -9   9  54  161.06   49.89
   9   0  54  239.11   68.98
   0  -9  54  210.25   63.57
  -9   0 -54  163.71   43.29
  -9   9  57  106.98   41.98
  -9   9  57  117.26   49.33
   9   0  57  110.69   51.80
   0  -9  57  100.08   46.14
  -9   0 -57  138.13   40.57
  -9   9  60  203.60   51.90
   0  -9  60  156.58   58.78
  -9   9  60  110.08   52.67
   9   0  60  145.15   55.89
   9   0  63    1.45   22.99
  -9   9  63   21.57   27.98
   0  -9  63    3.45   16.72
  -9   9  63   39.26   29.95
  -9   9  66   59.17   29.76
   9   0  66   91.48   45.01
  -9   9  66   53.49   21.74
   0  -9  66   80.37   39.34
  -9   9  69  186.79   64.67
  -9   9  69   73.79   35.68
   0  -9  69   98.62   45.10
   9   0  69  112.78   48.30
  -9   9  72   -2.51   21.47
  -9   9  72    7.85   23.78
   9   0  72   11.64   19.82
   0  -9  72   28.27   25.11
  -9   9  75   43.85   32.73
   0  -9  75   85.88   49.14
   9   0  75   57.72   40.46
  -9   9  78  -11.71   20.60
   0  -9  78  -30.79   36.27
   9   0  78   11.51   29.22
   0  -9  81   45.30   45.40
   9   0  81   72.49   40.58
   0   9 -81  -14.22   33.89
   1 -10  77  118.11   53.36
   9   1  77   14.91   23.09
 -10   9  74   21.06   35.72
   1 -10  74    6.97   28.06
   9   1  74   29.84   23.99
 -10   9  71   29.38   30.16
 -10   9  71   40.05   29.46
   1 -10  71   -2.74   25.39
   9   1  71   35.60   25.71
 -10   9  68   55.52   44.38
 -10   9  68  -23.13   28.75
   1 -10  68   18.70   36.57
   9   1  68  -16.48   31.30
   9   1  65   92.54   45.63
 -10   9  65  168.86   65.98
   1 -10  65   49.95   29.49
 -10   9  65   56.19   32.67
 -10   9  62  103.10   50.00
   1 -10  62  159.11   58.92
 -10   9  62  103.01   43.98
   9   1  62   71.95   39.93
 -10   9  59   83.53   43.28
   1 -10  59   51.05   41.34
   9   1  59   33.14   36.49
 -10   9  59   -0.75   21.06
 -10   9  56  231.64   62.16
   9   1  56  230.51   68.36
   1 -10  56  198.45   64.01
   9   1  53   18.18   26.29
 -10   9  53   -2.42   13.45
  -9  -1 -53    1.95   18.99
   1 -10  53   65.02   40.98
  -9  -1 -50  108.81   40.40
 -10   9  50   49.37   35.02
   9   1  50   59.38   31.17
   1 -10  50   90.85   43.32
   9   1  47    2.85   22.90
 -10   9  47   53.95   28.52
  -9  -1 -47   37.87   24.81
   1 -10  47   38.56   26.52
   9   1  44  172.81   53.31
  -9  -1 -44  237.59   54.76
   1 -10  44  185.73   56.34
 -10   9  44  201.63   58.03
 -10   9  41   28.62   33.18
   9   1  41  -31.93   26.31
   1 -10  41   11.05   14.62
  -9  -1 -41    9.14   12.29
   1 -10  38  -13.50   26.63
 -10   9  38   13.27   14.79
  -9  -1 -38   -5.64   13.55
   1 -10  35  199.84   59.74
  -9  -1 -35  166.70   47.08
 -10   9  35  103.25   40.47
  -9  -1 -32   19.44   12.33
 -10   9  32    0.54   16.74
   1 -10  29   61.77   35.60
 -10   9  29   58.43   31.19
  10  -9 -29   39.64   11.30
  -9  -1 -29   65.64   32.13
   1 -10  26   25.66   27.64
 -10   9  26   11.56   14.39
  10  -9 -26   -2.62   10.31
  -9  -1 -26  -13.07   23.16
 -10   9  23   65.03   27.16
  10  -9 -23   40.89   16.34
 -10   9  20    5.84   16.45
   1 -10  20   37.14   26.07
  10  -9 -20   18.31   14.57
  -9  -1 -20  -18.13   23.64
   1 -10  17  215.04   58.09
 -10   9  17  187.15   51.04
  10  -9 -17  193.81   33.35
  -9  -1 -17  177.43   49.28
   1 -10  14   66.22   35.36
  10  -9 -14   22.16   12.55
  -9  -1 -14   14.98   24.31
  10  -9 -11   -6.96    6.35
   1 -10  11   22.89   16.82
  -9  -1 -11   16.28   12.13
   1 -10   8   94.14   36.34
  10  -9  -8  108.43   18.61
  -9  -1  -8  130.85   42.52
   1 -10   5   19.08   17.24
  10  -9  -5    9.91    5.95
  -9  -1  -5   14.19   15.96
  -9  -1  -2  -26.72   18.83
   1 -10   2   15.03   21.55
  10  -9  -2   11.57    4.12
  -9  -1  -2    4.44   13.73
  -9  -1   1   31.11   19.67
   1 -10  -1   65.25   29.97
  -9  -1   1   90.76   36.30
  -9  -1   4   33.32   21.76
  -1  10   4   50.46   13.48
  -1  10   4   72.21   19.99
   1 -10  -4   71.73   31.29
  -9  -1   4   89.73   34.56
  -1  10   7    9.41    8.00
   1 -10  -7    0.20   19.81
  -9  -1   7   10.65   18.12
  -1  10   7  -25.85   11.63
  -9  -1   7   21.67   19.17
  -1  10  10  189.28   36.13
   1 -10 -10  174.99   46.77
  -9  -1  10  162.92   50.96
  -1  10  10   94.36   18.00
  -9  -1  10   92.63   34.00
  -1  10  13  141.71   34.20
   1 -10 -13  127.30   39.57
  -1  10  13  104.64   33.50
  -9  -1  13  119.98   46.23
  -1  10  13   64.26   15.88
  -9  -1  13   81.85   31.96
  -1  10  16   30.45   17.09
  -1  10  16  -12.62   15.02
  -9  -1  16    3.34   14.63
  -1  10  16  -20.57   11.20
  -9  -1  16    7.29   12.47
  -1  10  19  109.83   33.00
  -1  10  19  138.85   38.80
  -9  -1  19  175.36   52.14
  -9  -1  19   66.57   29.19
  -1  10  22   44.48   22.82
  -1  10  22   52.47   28.11
  -1  10  25  197.46   48.09
  -1  10  25  228.20   48.99
  -9  -1  25  260.09   68.28
  -1  10  28   45.44   34.31
  -1  10  28   42.61   32.27
  -9  -1  28   54.38   38.87
  -1  10  31  457.32   73.77
  -1  10  31  428.14   73.41
  -9  -1  31  443.75   88.19
  -1  10  34   46.13   31.13
  -9  -1  34   15.00   27.11
  -1  10  34   15.19   19.24
  -1  10  37   36.28   23.58
  -1  10  37   40.34   30.09
  -9  -1  37  121.87   55.44
  -1  10  40   92.42   37.71
  -9  -1  40  161.09   57.15
  -1  10  40   77.76   32.43
  -1  10  43   -9.28   23.44
  -9  -1  43    5.20   17.08
  -1  10  43   18.92   15.23
  -1  10  46   32.25   15.35
  -9  -1  46  -21.51   19.21
  -1  10  46   -8.55   21.32
  -1  10  49   -9.00   17.58
  -9  -1  49   30.30   24.76
  -1  10  49  -13.14   18.09
  -9  -1  52   88.91   38.24
  -9  -1  52   84.45   39.38
  -1  10  52   47.64   28.24
  -9  -1  55   14.71   22.39
  -9  -1  55  -16.09   28.53
  -1  10  55    9.78   15.37
  -9  -1  58   14.92   25.62
  -9  -1  58   58.91   31.67
  -1  10  58   64.54   35.49
  -9  -1  61   15.61   25.31
  -9  -1  61   56.34   37.72
  -1  10  61   75.62   40.14
  -9  -1  64   11.44   22.26
  -1  10  64   10.57   26.73
  -9  -1  67    2.74   25.62
  -1  10  67   48.48   38.92
  -9  -1  70   -0.05   20.54
  -1  10  70   72.80   44.52
  -9  -1  73  -45.79   38.54
  -1  10  73   45.62   33.94
  -9  -1  76  -17.38   35.32
  -1  10  76  -11.30   32.21
  -9  -1  79   41.30   34.75
   2 -10  81   48.66   35.22
   8   2  81  -12.80   27.73
 -10   8  78  -10.99   31.39
   2 -10  78   69.37   42.32
   8   2  78   -6.62   26.05
 -10   8  75   91.45   43.15
 -10   8  75  157.22   58.54
   2 -10  75   91.80   46.38
   8   2  75  118.20   54.53
 -10   8  72   52.35   33.22
 -10   8  72    8.51   18.08
   2 -10  72  -12.44   20.73
   8   2  72   29.96   31.88
 -10   8  69   90.12   50.58
 -10   8  69  153.11   62.27
   2 -10  69  102.56   46.06
   8   2  69  186.92   65.45
 -10   8  66   62.92   45.41
 -10   8  66  208.77   64.09
   2 -10  66  156.08   56.48
   8   2  66  180.39   63.15
 -10   8  63   23.66   25.47
   2 -10  63   21.84   21.67
 -10   8  63   -0.14   14.22
   8   2  63   21.19   24.69
 -10   8  60   22.34   30.62
   2 -10  60   30.63   20.34
   8   2  60   54.74   39.03
 -10   8  60   -6.62   19.72
   2 -10  57   40.46   30.85
   8   2  57  109.68   52.89
 -10   8  57   61.85   34.12
   2 -10  54   20.89   19.33
   8   2  54   27.70   33.90
 -10   8  54   15.19   21.62
 -10   8  51   -7.90   19.16
  -8  -2 -51  -45.39   24.33
   8   2  51   -0.19   17.64
   2 -10  51  -43.54   35.28
 -10   8  48   85.02   37.38
   2 -10  48  125.31   51.21
  -8  -2 -48  196.87   46.38
   8   2  48  124.20   47.95
 -10   8  45   49.83   32.98
  -8  -2 -45   28.45   23.37
   2 -10  45   32.31   22.74
   8   2  45   21.12   18.00
  -8  -2 -42   56.77   27.19
   8   2  42   25.30   23.02
   2 -10  42    1.40   19.95
 -10   8  42   32.74   25.50
   8   2  39  157.35   51.83
   2 -10  39  226.29   61.18
  -8  -2 -39  229.67   50.79
 -10   8  39  173.74   52.82
   2 -10  36   -1.24   15.58
  -8  -2 -36   24.31   14.49
 -10   8  36   29.64   25.81
 -10   8  33    2.89   13.13
   2 -10  33   27.94   26.49
  -8  -2 -33   51.05   24.02
 -10   8  30  -15.05   16.95
   2 -10  30   16.46   15.85
  -8  -2 -30  -12.36   19.69
  10  -8 -30    7.29   15.55
 -10   8  27  349.14   70.88
   2 -10  27  427.95   78.77
  -8  -2 -27  370.76   67.38
   2 -10  24   -9.47   24.92
  -8  -2 -24   23.19   20.91
 -10   8  24    7.49   17.67
 -10   8  21  256.41   61.96
  -8  -2 -21  179.43   47.61
   2 -10  21  254.34   59.31
   2 -10  18  103.08   38.12
  -2  10 -18   28.94    9.71
 -10   8  18   75.07   34.45
  -8  -2 -18   62.14   30.10
 -10   8  15    8.46   19.03
  -2  10 -15   17.35    8.09
   2 -10  15   34.91   21.92
  -8  -2 -15   46.13   27.03
  -2  10 -12   13.60    6.86
   2 -10  12   24.79   13.64
  -8  -2 -12    1.31   14.31
 -10   8  12  -12.68   20.65
 -10   8   9   93.30   33.72
  -2  10  -9   75.04   19.57
   2 -10   9   94.03   35.71
  -8  -2  -9   62.72   29.44
  -8  -2  -6  -36.12   22.19
  -2  10  -6    0.72    7.82
   2 -10   6    4.23   15.09
  -8  -2  -6  -16.29   20.41
  -8  -2  -3   43.42   20.95
  -8  -2  -3   31.01   23.03
  -2  10  -3   65.69   20.07
   2 -10   3   57.41   30.94
  -2  10   0  473.25   53.04
  -8  -2   0  437.68   78.23
   2 -10   0  455.21   77.14
  -8  -2   0  311.10   47.67
  -2  10   3    5.91   13.10
  -8  -2   3   53.22   36.48
  -8  -2   3   36.59   16.73
  -2  10   6  164.50   34.26
  -8  -2   6  100.03   41.56
  -8  -2   6   50.50   22.33
  -2  10   9  118.71   23.55
  -2  10   9  168.88   37.43
  -2  10   9  157.91   34.70
  -8  -2   9  147.91   46.69
  10  -8   9   66.29   10.86
  -8  -2   9   98.80   31.92
  -2  10  12   77.86   25.13
  -2  10  12   73.01   26.14
  -8  -2  12   69.60   28.11
  -8  -2  12   55.64   24.48
  -2  10  12    4.41    9.80
  -2  10  15   39.84   23.10
  -8  -2  15   17.70   14.18
  -2  10  15   29.86   13.37
  -8  -2  15   48.63   24.01
  -2  10  15   14.40    7.94
  -2  10  18  200.44   44.68
  -2  10  18  211.54   46.50
  -8  -2  18  168.60   53.26
  -8  -2  18  135.78   35.59
  -2  10  18  180.64   32.50
  -2  10  21  394.08   61.61
  -2  10  21  339.75   58.45
  -8  -2  21  366.92   78.23
  -8  -2  21  245.12   51.23
  -2  10  21  312.71   42.73
  -2  10  24  -13.39   25.68
  -8  -2  24    2.43   13.54
  -2  10  24   32.37   21.31
  -2  10  24    7.59    7.94
  -2  10  27  153.86   42.58
  -8  -2  27  168.15   51.70
  -2  10  27  122.71   29.02
  -2  10  27  148.76   41.34
  -2  10  30   37.77   24.94
  -2  10  30   31.77   20.13
  -8  -2  30    1.06   17.57
  -2  10  33   34.45   20.03
  -8  -2  33  -32.10   32.50
  -2  10  33  -25.47   19.66
  -2  10  36  113.12   37.26
  -8  -2  36   85.47   40.43
  -2  10  36   96.19   29.32
  -2  10  39   78.39   33.21
  -8  -2  39  110.36   42.99
  -2  10  39  154.83   42.90
  -2  10  42    0.25   13.76
  -8  -2  42   11.90   24.24
  -2  10  42   30.09   19.70
  -2  10  45   30.75   29.37
  -2  10  45    4.94   19.25
  -2  10  48  366.71   75.83
  -8  -2  48  355.66   82.29
  -8  -2  48  278.51   57.61
  -2  10  48  358.88   71.15
  -2  10  51    9.74   19.51
  -8  -2  51   36.50   36.30
  -8  -2  51   10.74   18.05
  -2  10  51   35.10   26.14
  -2  10  54   86.63   33.15
  -8  -2  54  155.10   58.39
  -8  -2  54   89.58   36.28
  -2  10  54   81.85   37.97
  -2  10  57  -10.14   16.34
  -8  -2  57   22.31   16.81
  -8  -2  57   16.74   15.53
  -2  10  57   21.57   20.42
  -2  10  60   11.71   17.16
  -8  -2  60   47.05   34.94
  -8  -2  60   75.42   34.50
  -2  10  60  115.94   48.54
  -2  10  63   43.07   32.87
  -8  -2  63  -63.95   43.67
  -2  10  63    6.59   27.89
  -2  10  66    1.13   19.33
  -8  -2  66  -21.53   28.89
  -2  10  69   41.48   33.98
  -8  -2  69   17.85   30.76
  -2  10  72   29.34   25.82
  -8  -2  72    4.39   22.81
  -8  -2  75   43.96   47.35
  -8  -2  78   35.03   38.04
  -8  -2  81   47.67   38.59
 -10   7  82    2.93   23.17
   7   3  82   24.96   24.67
 -10   7  79   96.05   52.49
   7   3  79   98.58   49.10
 -10   7  79   68.98   42.48
 -10   7  76  -17.25   15.00
 -10   7  76  -41.77   33.29
   7   3  76  -28.68   37.26
 -10   7  73   33.85   38.06
 -10   7  73  127.77   50.36
   7   3  73  125.13   56.39
 -10   7  70   33.52   34.02
 -10   7  70   96.59   50.89
   7   3  70   36.26   36.64
   7   3  67   40.13   37.01
 -10   7  67   12.87   22.39
 -10   7  67  -25.77   23.35
 -10   7  64  -26.36   26.88
 -10   7  64    5.50   25.06
   7   3  64   23.41   28.13
 -10   7  61   71.69   39.00
 -10   7  61  112.07   49.58
   7   3  61   83.84   40.62
 -10   7  58   34.74   16.76
   3 -10  58   49.01   31.36
   7   3  58   93.73   46.03
   3 -10  55  -32.78   30.71
   7   3  55   25.71   26.34
 -10   7  55   42.72   25.77
  -7  -3 -52   38.12   23.85
   3 -10  52    4.69   22.42
 -10   7  52   -5.89   23.99
  -7  -3 -49  140.50   36.99
   3 -10  49   94.11   39.70
   7   3  49  128.29   50.28
 -10   7  49  140.27   48.30
 -10   7  46  -22.86   25.16
  -7  -3 -46   39.86   24.27
   3 -10  46  -14.94   24.71
   7   3  46   26.24   28.24
 -10   7  43  102.36   38.28
  -7  -3 -43  154.36   39.29
   3 -10  43   99.54   42.92
   7   3  43   96.21   42.13
 -10   7  40   61.11   30.56
  -7  -3 -40   87.99   28.48
   3 -10  40   77.60   36.90
   7   3  40   82.26   42.54
   7   3  37  100.76   32.74
  -7  -3 -37  183.10   43.48
 -10   7  37  186.05   53.20
   3 -10  37  142.11   45.88
   7   3  34   30.87   18.59
  -7  -3 -34   24.96   18.09
   3 -10  34   88.52   40.72
 -10   7  34   62.78   39.20
  -7  -3 -31  832.98   95.22
   7   3  31  776.07   88.72
   3 -10  31  866.34  111.45
 -10   7  31  873.82  113.42
   7   3  28   19.15   11.93
  -7  -3 -28    8.35   20.53
   3 -10  28   58.12   32.23
 -10   7  28   24.72   23.12
 -10   7  25  198.22   50.64
  -7  -3 -25  230.47   52.32
   3 -10  25  264.81   61.29
 -10   7  22   60.03   31.50
   3 -10  22   85.70   36.08
  -7  -3 -22   97.18   37.38
 -10   7  19  214.51   52.31
  -7  -3 -19  260.78   54.82
  -7  -3 -16   47.61   30.07
 -10   7  16  -11.03   20.95
  -7  -3 -13  141.79   45.14
 -10   7  13   94.83   35.93
  -7  -3 -10   24.71   13.26
  -7  -3 -10   39.28   25.04
  -7  -3  -7   22.94   20.21
 -10   7   7   -5.10   15.90
  -7  -3  -7   -2.88   11.44
  -3  10  -4  270.31   41.84
  -7  -3  -4  226.35   55.46
 -10   7   4  225.55   53.08
  -7  -3  -4  136.19   26.06
  -3  10  -1   47.25   20.21
 -10   7   1    3.48   14.94
  -7  -3  -1   15.12   22.20
  -7  -3  -1  -12.03   15.15
 -10   7  -2  104.33   36.41
  -3  10   2  103.50   28.68
  -7  -3   2   81.60   35.28
  -3  10   2   67.06   21.46
  -7  -3   2   20.93   10.74
  -3  10   5  292.93   48.38
  -7  -3   5  303.75   65.28
  -3  10   5  226.19   40.78
  -7  -3   5  199.79   34.93
 -10   7  -5  288.41   63.54
  -3  10   8  216.46   42.06
  -7  -3   8  174.23   51.13
  -3  10   8  157.54   35.96
 -10   7  -8  226.79   55.48
  -3  10  11  145.86   31.66
  -3  10  11   93.07   26.78
  -3  10  11  198.32   41.54
  -7  -3  11  114.23   41.49
  -3  10  14  183.52   34.45
  -3  10  14  270.20   49.53
  -7  -3  14  339.92   71.45
  -3  10  14  240.20   45.06
  -3  10  17  371.29   60.35
  -7  -3  17  363.49   76.92
  10  -7  17  468.62   44.03
  -3  10  17  416.87   59.83
  -3  10  17  334.95   46.74
  -3  10  20   19.99   11.63
  -7  -3  20   38.84   23.35
  10  -7  20   22.14   10.58
  -3  10  20   19.96   18.41
  -3  10  20    6.28    9.57
  -3  10  23    3.88   12.25
  -7  -3  23  -31.25   32.29
  10  -7  23   -0.46    6.11
  -3  10  23    9.95   12.82
  -3  10  23   -1.31   11.84
  -3  10  26  106.15   33.30
  -7  -3  26  113.91   39.66
  10  -7  26   94.34   20.42
  -3  10  26  119.07   34.81
  -3  10  26   49.81   15.85
  -3  10  29    2.61   17.85
  -7  -3  29  -10.00   31.63
  -3  10  29   39.84   22.74
  10  -7  29   21.73   10.94
  -3  10  29    3.43   15.21
  -3  10  32   -0.16   13.02
  -7  -3  32  -12.47   27.10
  -3  10  32   32.84   23.02
  10  -7  32   59.48   16.90
  -3  10  32   48.24   19.08
  -3  10  35   59.29   29.62
  -7  -3  35   29.07   21.15
  -3  10  35   87.60   30.02
  10  -7  35   88.52   21.29
  -3  10  35   50.40   19.99
  -3  10  38    3.66   16.13
  -7  -3  38   62.76   33.54
  -3  10  38   67.58   29.25
  -3  10  41   40.24   27.65
  -7  -3  41  103.16   48.87
  -7  -3  41  141.16   34.75
  -3  10  41   51.26   27.51
  -3  10  44  328.71   68.27
  -7  -3  44  307.56   73.56
  -7  -3  44  293.12   50.44
  -3  10  44  336.24   65.94
  -3  10  47  -31.18   23.07
  -7  -3  47   39.38   26.46
  -7  -3  47   14.40   17.30
  -3  10  47    0.56   19.49
  -3  10  50   82.45   34.36
  -7  -3  50   64.93   35.32
  -7  -3  50   69.69   27.93
  -3  10  50  103.97   38.85
  -3  10  53   30.11   24.21
  -7  -3  53   30.49   23.43
  -3  10  53   45.13   31.82
  -3  10  56  209.28   61.94
  -7  -3  56  205.81   66.30
  -7  -3  56  173.62   41.59
  -3  10  56  283.90   65.67
   7   3 -59  -23.41   23.14
  -3  10  59  -24.57   18.74
  -7  -3  59  -47.91   46.21
   7   3 -62   71.67   33.88
  -3  10  62   61.74   25.83
  -7  -3  62   66.89   37.17
   7   3 -65   12.97   18.11
  -3  10  65  -11.60   16.88
  -7  -3  65   14.04   31.77
   7   3 -68   61.15   34.90
  -3  10  68   51.37   35.12
  -7  -3  68   18.46   18.02
   7   3 -71   52.69   37.65
  -3  10  71   51.01   28.08
  -7  -3  71   63.58   47.92
  -7  -3  74   -4.31   27.59
  -3  10  74   -6.47   17.23
   7   3 -77   87.69   46.54
  -7  -3  77   33.15   26.52
  -3  10  77   23.33   17.26
   7   3 -80  106.53   50.60
  -7  -3  80    3.33   29.88
  -3  10  80   70.19   47.59
   7   3 -83  171.75   68.14
  -7  -3  83  158.14   71.22
  -3  10  83   80.64   44.32
 -10   6  83   51.40   29.84
 -10   6  80   22.61   36.17
   6   4  80  -33.58   39.28
 -10   6  80   -4.52   17.70
 -10   6  77   36.91   33.63
   6   4  77   44.19   32.56
 -10   6  77   14.00   14.45
 -10   6  74  -13.32   19.75
   6   4  74    3.18   25.50
 -10   6  74   -2.61   24.16
 -10   6  71   54.23   33.92
 -10   6  71   66.68   41.84
   6   4  71   -5.75   20.92
  -6  -4 -71    4.16   19.86
 -10   6  68   44.77   35.19
 -10   6  68  -31.31   30.73
   6   4  68   -2.82   21.81
  -6  -4 -68  -13.96   25.58
 -10   6  65   98.25   50.65
 -10   6  65  183.17   59.96
   6   4  65   98.62   43.46
 -10   6  62   63.92   43.19
   6   4  62  110.59   50.99
 -10   6  62  115.64   52.30
 -10   6  59   28.96   28.31
   6   4  59   -7.02   15.36
   6   4  56   32.67   36.09
 -10   6  56   50.34   32.60
 -10   6  53   74.78   33.50
   6   4  53   84.22   37.39
 -10   6  50    7.72   16.21
   6   4  50    1.48   13.76
  -6  -4 -50   -3.70   10.45
  -6  -4 -47   33.72   19.40
   6   4  47   60.06   38.71
 -10   6  47   11.74   14.81
  -6  -4 -44  158.95   38.67
 -10   6  44  144.56   46.70
   6   4  44  168.20   53.82
   6   4  41   31.44   21.62
  -6  -4 -41   59.81   23.39
   6   4  41    1.83   14.18
 -10   6  41  -32.76   31.67
 -10   6  38  111.31   42.33
  -6  -4 -38  100.64   34.81
   6   4  38   70.50   25.72
   6   4  38   63.78   37.98
 -10   6  35  478.50   81.82
   6   4  35  443.52   62.00
  -6  -4 -35  502.77   71.69
 -10   6  32  -21.50   22.69
   6   4  32   20.86   13.80
  -6  -4 -29  377.98   64.54
 -10   6  29  301.37   64.53
   6   4  29  283.43   49.47
  -6  -4 -26   45.30   22.25
   6   4  26  -14.70   10.35
 -10   6  26   37.92   23.30
   6   4  23  505.60   68.68
 -10   6  23  630.26   92.67
  -6  -4 -23  620.49   83.21
  -6  -4 -20   10.37   21.35
 -10   6  20    7.65   15.99
  -6  -4 -17  185.16   45.44
  -6  -4 -17  255.01   55.82
 -10   6  17  241.46   58.38
 -10   6  14   58.54   34.42
  -6  -4 -14  105.24   34.73
 -10   6  11   83.31   33.74
  -6  -4 -11  104.02   36.88
 -10   6   8  164.96   46.42
  -6  -4  -8  157.50   44.46
  -6  -4  -5   17.20   20.61
 -10   6   5   14.01   14.12
  -4  10  -5   -3.04    9.66
  -6  -4  -2   21.86   22.51
  -4  10  -2   -4.14    9.53
 -10   6   2    2.84   14.46
  -6  -4   1  120.15   37.03
  -4  10   1  145.52   29.23
 -10   6  -1  138.62   42.52
 -10   6  -4   82.39   32.42
  -6  -4   4  205.89   51.59
  -4  10   4  186.62   34.17
  -4  10   7   46.29   18.29
  -6  -4   7   98.30   37.55
 -10   6  -7   39.88   20.74
  -4  10  10  314.40   53.06
  -6  -4  10  297.17   63.66
 -10   6 -10  238.29   53.54
  -4  10  10  258.64   40.62
  -4  10  13  337.61   55.58
  -6  -4  13  316.38   66.20
  -4  10  13  347.22   49.36
 -10   6 -13  337.28   63.69
  -4  10  16   71.95   27.85
 -10   6 -16   67.52   30.05
  -6  -4  16   71.57   36.40
  -4  10  16   67.26   28.03
  -4  10  16   51.52   19.83
  -6  -4  19   33.18   29.56
  -4  10  19   44.20   24.58
 -10   6 -19   42.21   27.82
  -4  10  19   -7.78    9.75
  -4  10  22  158.98   35.32
  -6  -4  22  182.62   54.79
  -4  10  22  198.78   48.68
  10  -6  22  171.57   32.31
  -4  10  22  193.37   41.25
 -10   6 -22  190.48   46.36
  -6  -4  25  170.26   51.80
 -10   6 -25  165.26   45.49
  -4  10  25  172.47   44.19
  10  -6  25  183.63   34.97
  -4  10  25  167.08   39.39
  -4  10  25  128.82   30.81
  -6  -4  28  -15.58   17.16
  -4  10  28   31.19   25.75
  10  -6  28   -2.25    8.93
  -4  10  28   11.12   17.84
 -10   6 -28  -11.41   15.47
  -4  10  28  -48.87   26.58
  -6  -4  31  193.89   52.71
  -4  10  31  203.60   49.67
 -10   6 -31  172.90   44.49
  10  -6  31  229.09   39.45
  -4  10  31  252.40   49.11
  -4  10  31  188.08   39.34
 -10   6 -34    4.88   13.77
  -6  -4  34   28.87   21.54
  -4  10  34   54.96   26.29
  -6  -4  34   31.02   13.01
  10  -6  34   49.35   25.75
  -4  10  34   39.64   23.35
  -6  -4  37   17.76   28.60
  -4  10  37   61.67   29.22
  -6  -4  37    6.76   11.58
  10  -6  37    2.93    8.28
  -4  10  37   43.78   25.74
  -6  -4  40  270.19   69.08
  -4  10  40  234.85   57.24
  -6  -4  40  199.80   33.29
  10  -6  40  224.59   40.76
  -4  10  40  307.37   58.36
  -6  -4  43   31.58   32.44
  -6  -4  43   19.80   14.62
  -4  10  43   11.47   19.34
  10  -6  43    5.01   15.68
  -4  10  43   28.82   25.66
   6   4 -46   56.11   29.06
  -6  -4  46   84.24   38.66
  -6  -4  46   -4.92   10.63
  -4  10  46   32.64   23.97
  10  -6  46    7.96   11.25
   6   4 -49   33.66   31.78
  -6  -4  49   -4.50   21.40
  -6  -4  49   39.92   18.48
  -4  10  49   73.30   38.80
  10  -6  49   10.98   12.59
   6   4 -52  333.83   64.67
  -6  -4  52  224.96   38.90
  -6  -4  52  332.90   80.74
  -4  10  52  317.38   69.54
  10  -6  52  341.44   57.31
   6   4 -55   16.53   24.37
  -6  -4  55   -1.47   17.13
  -4  10  55   30.66   28.27
   6   4 -58  118.70   42.29
  -6  -4  58   92.72   46.89
  -4  10  58  162.56   53.85
   6   4 -61   71.91   34.44
  -6  -4  61   47.39   38.92
  -4  10  61  103.56   45.24
   6   4 -64  162.75   52.98
  -6  -4  64  148.99   59.94
  -4  10  64  108.41   46.97
 -10   6 -64  157.46   43.39
   6   4 -67   40.79   31.59
  -6  -4  67  -27.13   25.75
  -4  10  67   15.55   20.63
 -10   6 -67   45.74   24.22
   6   4 -70   62.27   38.71
  -6  -4  70   28.16   27.63
  -4  10  70   53.79   36.30
 -10   6 -70   19.00   14.94
   6   4 -73   51.65   36.39
  -6  -4  73   25.36   28.41
  -4  10  73   49.98   29.01
   6   4 -76   26.52   25.56
  -6  -4  76  -35.47   35.18
  -4  10  76   24.70   21.35
   6   4 -79   68.14   40.22
  -6  -4  79   46.15   32.88
  -4  10  79   64.33   40.96
  -6  -4  82  128.07   61.47
   6   4 -82   35.14   33.47
  -4  10  82   79.93   54.07
   6   4 -85   -7.15   24.32
  -6  -4  85  -40.36   34.18
 -10   5  84   42.77   36.29
 -10   5  84   58.52   28.42
 -10   5  81  -31.07   35.79
 -10   5  81  -72.74   40.06
   5   5  81  -25.48   21.54
 -10   5  78   27.25   32.65
   5   5  78    5.77   23.44
 -10   5  78  -12.73   22.43
 -10   5  75    1.80   21.16
   5   5  75   60.53   38.25
 -10   5  75   29.53   31.07
 -10   5  72  -11.13   20.38
   5   5  72   30.31   23.75
 -10   5  72    6.97   18.06
 -10   5  69  126.29   54.14
   5   5  69  155.10   55.38
  -5  -5 -69  128.77   44.90
 -10   5  69   87.80   43.95
 -10   5  66   89.81   43.40
 -10   5  66   62.78   41.83
   5   5  66   24.81   29.51
  -5  -5 -66   34.87   25.21
 -10   5  63   12.62   24.13
 -10   5  63   13.16   27.31
   5   5  63  -10.35   23.89
  -5  -5 -63    2.89   14.23
 -10   5  60  121.09   48.19
   5   5  60   74.59   41.33
  -5  -5 -60   57.53   29.39
 -10   5  57  101.00   45.73
   5   5  57  108.22   50.95
  -5  -5 -57   30.23   19.64
 -10   5  54   96.38   44.37
   5   5  54  160.89   54.65
  -5  -5 -54  102.23   28.37
 -10   5  51   14.92   24.75
   5   5  51   60.23   38.59
  -5  -5 -51   -7.89   19.20
  -5  -5 -51   34.88   21.61
   5   5  48  229.82   65.99
 -10   5  48  226.00   58.83
  -5  -5 -48  237.85   44.90
  -5  -5 -48  159.54   35.35
 -10   5  45  -11.05   15.71
   5   5  45   22.16   21.90
  -5  -5 -45  -17.56   17.22
  -5  -5 -45    1.14    9.35
 -10   5  42  -29.79   32.15
   5   5  42   24.71   26.37
  -5  -5 -42  -15.68   14.51
  -5  -5 -42   -6.97   11.38
   5   5  39   85.83   26.65
   5   5  39   49.31   27.39
 -10   5  39   62.61   28.56
  -5  -5 -39   53.57   18.12
  -5  -5 -39  100.48   29.98
   5   5  36   29.22   13.43
 -10   5  36   -7.60   23.99
  -5  -5 -36   36.22   12.16
   5   5  36   -0.29   20.85
  -5  -5 -36   55.58   28.06
  -5  -5 -33  -19.82   22.05
   5   5  33  -12.32   14.48
 -10   5  33  -28.27   25.32
  -5  -5 -33  -12.00    9.06
  -5  -5 -30   53.08   24.93
 -10   5  30   36.03   21.63
   5   5  30   30.94   19.98
  -5  -5 -30   27.92    8.10
 -10   5  27  327.46   67.05
  -5  -5 -27  297.09   56.16
   5   5  27  201.37   42.52
  -5  -5 -24   -6.32   14.96
  -5  -5 -24  -23.75   17.24
   5   5  24   11.35   10.79
  -5  -5 -21  395.48   66.01
 -10   5  21  539.71   83.08
  -5  -5 -21  540.66   78.08
   5   5  21  507.73   70.00
  -5  -5 -18   46.89   26.71
  -5  -5 -18   51.95   28.77
 -10   5  18   24.19   23.89
  -5  -5 -15   81.09   26.54
  -5  -5 -15   81.91   27.49
 -10   5  15   95.45   36.66
  -5  -5 -12  100.31   29.13
  -5  -5 -12  115.88   34.23
 -10   5  12  115.84   37.32
  -5  10 -12   60.10   14.42
  -5  -5  -9   29.32   16.13
  -5  -5  -9   40.35   21.58
  -5  10  -9   42.32   11.74
  -5  -5  -6   63.10   18.10
  -5  -5  -6   50.97   25.30
  -5  10  -6   55.35   14.47
 -10   5   6  118.56   39.25
  -5  -5  -3   94.54   26.95
  -5  -5  -3  102.88   35.52
  -5  10  -3   69.33   16.23
 -10   5   3   66.04   29.84
  -5  -5   0  210.27   34.63
  -5  -5   0  332.65   65.84
  -5  10   0  271.89   34.36
 -10   5   0  281.60   59.97
 -10   5  -3  101.93   38.12
  -5  -5   3  118.35   27.20
  -5  10   3  129.59   24.68
  -5  -5   3  199.86   50.58
  -5  -5   6   51.32   16.90
 -10   5  -6   88.19   32.27
  -5  -5   6   54.38   26.57
  -5  10   6   90.65   21.71
  -5  -5   9   79.58   18.96
  -5  -5   9   80.93   32.66
 -10   5  -9   86.87   31.56
  -5  10   9  108.38   23.68
  -5  -5  12   46.03   23.78
 -10   5 -12   33.83   22.13
  -5  10  12   26.20   13.68
  -5  -5  15   40.68   25.67
 -10   5 -15   48.22   29.94
  -5  10  15    2.24    7.43
  -5  10  18  213.98   43.62
  -5  -5  18  192.12   55.87
 -10   5 -18  292.25   60.38
  -5  10  18  270.47   46.17
  -5  -5  21  316.83   67.80
 -10   5 -21  360.62   65.29
  -5  10  21  347.96   49.04
  -5  -5  24   15.39   21.31
  -5  -5  24   21.88    8.24
 -10   5 -24    8.60   12.37
  -5  10  24   22.68   19.28
  -5  -5  27  303.87   71.78
 -10   5 -27  424.53   71.29
  -5  10  27  429.34   69.26
  10  -5  27  409.99   57.73
  -5  -5  30   12.06   16.14
  -5  10  30   47.35   24.20
  10  -5  30   24.57   15.95
 -10   5 -30   31.11   18.46
 -10   5 -33   12.85   14.35
  -5  -5  33   -4.27   24.07
  -5  10  33    5.31   11.80
  10  -5  33   34.99   19.28
   5   5 -36   19.74   18.30
 -10   5 -36   11.66   15.83
  -5  -5  36   43.11   30.66
  -5  10  36   16.35   17.22
  10  -5  36   57.24   26.25
   5   5 -39  137.37   36.38
 -10   5 -39  109.64   35.40
  -5  -5  39   67.79   33.93
  -5  10  39   69.63   31.35
  10  -5  39  106.88   31.60
   5   5 -42   68.59   30.07
 -10   5 -42   47.45   23.07
  -5  -5  42   62.28   34.51
  -5  10  42   45.45   28.63
  10  -5  42    4.80   11.31
   5   5 -45   33.90   25.87
 -10   5 -45   39.77   22.71
  -5  -5  45   38.77   22.12
  -5  10  45   51.98   31.19
  10  -5  45   19.80   14.34
   5   5 -48  193.47   47.82
 -10   5 -48  220.39   50.41
  -5  -5  48  285.93   74.93
  -5  10  48  191.76   51.20
  10  -5  48  162.13   43.48
   5   5 -51   13.18   20.74
 -10   5 -51   14.33   12.77
  -5  -5  51    1.26   26.73
  -5  10  51   46.50   28.58
  10  -5  51   12.56   11.41
   5   5 -54   60.54   30.47
  -5  -5  54   45.21   30.98
  -5  10  54   87.34   44.87
  10  -5  54   94.71   33.74
 -10   5 -54   61.04   27.45
   5   5 -57   -9.74   24.89
  -5  -5  57   18.67   26.49
  -5  10  57   20.65   27.07
  -5  10  57   -2.13   11.94
  10  -5  57   22.53   24.43
 -10   5 -57   42.92   28.49
   5   5 -60  120.76   41.93
  -5  -5  60  178.07   58.55
  -5  10  60  172.50   53.14
  -5  10  60  201.88   43.08
 -10   5 -60  174.32   45.25
  10  -5  60  148.09   41.88
   5   5 -63   39.17   26.95
  -5  -5  63   33.85   23.75
  -5  10  63   49.89   28.83
 -10   5 -63   50.54   28.64
  10  -5  63  105.64   37.56
   5   5 -66   30.89   15.61
  -5  -5  66   61.25   36.68
  -5  10  66   -4.51   16.83
 -10   5 -66   56.19   26.50
  -5  -5  69  143.70   56.80
  -5  10  69   78.51   46.97
 -10   5 -69   64.05   29.76
   5   5 -69   55.72   30.28
  -5  -5  72  -51.39   43.44
   5   5 -72   -3.81   19.02
  -5  10  75  -31.88   36.95
  -5  -5  75   96.10   53.48
   5   5 -75   67.27   37.60
  -5  10  78    0.28   31.48
  -5  -5  78  -20.33   31.45
   5   5 -78  -32.44   34.17
   5   5 -81  -18.32   26.92
  -5  10  81    9.76   26.13
  -5  -5  81  -22.28   26.06
   5   5 -84   25.48   29.90
  -5  -5  84  -22.80   34.82
 -10   4  85  -48.80   30.42
 -10   4  85   27.49   26.50
 -10   4  82   -4.24   19.18
 -10   4  82   47.54   43.80
 -10   4  79   72.96   45.35
 -10   4  79  216.49   66.43
   4   6  79  189.25   74.13
 -10   4  76   25.14   31.25
 -10   4  76  -34.20   31.58
   4   6  76  -14.09   27.41
 -10   4  73    6.48   18.70
   4   6  73  -29.07   27.80
 -10   4  73   37.22   38.01
 -10   4  70    5.52   17.86
   4   6  70   23.59   30.37
 -10   4  70   10.10   25.48
 -10   4  67  -21.70   34.01
   4   6  67  -21.55   17.46
 -10   4  67   15.69   29.79
 -10   4  64   42.00   33.85
   4   6  64  -18.18   20.79
 -10   4  64   43.97   35.89
  -4  -6 -64   20.45   16.68
   4   6  61  136.34   52.97
  -4  -6 -61  153.05   41.76
 -10   4  61  103.43   48.38
 -10   4  58   99.38   51.12
   4   6  58   82.92   48.50
  -4  -6 -58   65.71   27.20
 -10   4  55   33.35   32.92
   4   6  55   12.32   29.79
  -4  -6 -55   19.79   18.44
 -10   4  52  391.56   82.83
   4   6  52  433.05   87.58
  -4  -6 -52  276.10   45.42
 -10   4  49  174.03   56.78
  -4  -6 -49   61.97   24.92
   4   6  49  128.30   47.78
  -4  -6 -49   51.02   20.16
 -10   4  46   40.17   30.42
  -4  -6 -46    9.69   11.70
   4   6  46   23.24   12.42
  -4  -6 -46   11.03   12.50
  -4  -6 -43   55.39   18.56
 -10   4  43   77.16   36.27
   4   6  43   64.19   32.12
  -4  -6 -43   58.43   21.09
  -4  -6 -40   73.04   18.87
 -10   4  40  197.27   54.59
  -4  -6 -40  148.42   38.41
   4   6  40   44.96   26.56
   4   6  40  100.12   25.73
 -10   4  37  154.33   48.55
   4   6  37  121.98   41.71
   4   6  37  154.64   33.92
  -4  -6 -37  184.91   43.30
 -10   4  34   74.22   36.54
   4   6  34   -1.21   21.06
   4   6  34   90.05   28.14
  -4  -6 -34   63.75   19.51
   4   6  31   70.30   27.27
 -10   4  31   39.45   26.70
  -4  -6 -31   65.12   24.43
   4   6  28   -4.96    9.98
 -10   4  28   10.93   11.75
  -4  -6 -25  107.92   32.67
   4   6  25  111.05   29.58
 -10   4  25  193.06   50.42
  -4  -6 -25   96.68   30.86
   4   6  22   78.53   25.41
  -4  -6 -22   65.76   25.19
 -10   4  22   42.17   16.17
  -4  -6 -22   34.49   12.37
   4   6  19   18.92    9.85
  -4  -6 -19   13.73   13.32
 -10   4  19   39.12   28.68
  -4  -6 -19   22.97   18.44
  -4  -6 -16  397.50   67.02
  -4  -6 -16  329.29   52.50
 -10   4  16  406.44   72.97
 -10   4  13  324.81   66.24
  -4  -6 -13  329.98   62.94
  -4  -6 -13  222.85   41.91
  -4  -6 -10  101.36   37.63
 -10   4  10  103.12   40.12
  -4  -6 -10   67.38   22.95
  -4  -6  -7   81.83   30.06
 -10   4   7  113.45   38.18
  -4  -6  -7   28.27   11.02
  -4  -6  -4  244.22   55.55
 -10   4   4  242.38   55.24
  -4  -6  -4  170.33   30.20
  -4  -6  -1   58.91   26.88
  -4  -6  -1   52.62   16.36
 -10   4   1   55.36   24.33
  -4  -6   2  -11.65   16.16
  -4  -6   2  -15.49   11.68
 -10   4  -2   21.71   18.02
  -4  -6   5   14.83   14.54
  -4  -6   5   57.96   15.43
 -10   4  -5   32.90   15.70
  -4  -6   8   33.99   24.45
  -4  -6   8   41.93   11.49
 -10   4  -8   19.65   11.72
  -4  -6  11   17.97   16.33
 -10   4 -11   24.89   20.67
  -4  -6  14  100.08   41.37
 -10   4 -14  143.45   40.30
  -4  -6  17  143.25   45.30
 -10   4 -17  146.63   42.02
  -4  -6  20   57.95   34.36
 -10   4 -20  196.62   52.13
 -10   4 -23  682.97   91.21
  -4  -6  23  743.59  105.43
   4   6 -26   46.12   19.79
  -4  -6  26   98.40   40.48
 -10   4 -26   31.19   25.60
   4   6 -29  238.23   38.07
  -4  -6  29  233.85   60.83
 -10   4 -29  315.90   61.98
   4   6 -32   27.16   17.21
  -4  -6  32   11.75   16.91
  10  -4  32  -27.98   20.11
  -6  10  32   28.87   24.28
 -10   4 -32    0.39   11.44
   4   6 -35  238.11   41.27
  -4  -6  35  317.54   75.11
  -6  10  35  271.74   59.95
  10  -4  35  261.66   51.82
 -10   4 -35  299.74   61.13
  -4  -6  38  374.18   83.05
  10  -4  38  323.64   59.95
  -6  10  38  340.24   67.79
 -10   4 -38  384.18   68.30
   4   6 -38  311.83   51.30
  -4  -6  41  -33.71   26.60
  -6  10  41   21.86   22.88
  10  -4  41   43.96   22.41
 -10   4 -41   29.77   23.03
   4   6 -41    3.78   11.98
  -4  -6  44   22.94   23.71
  -6  10  44   37.04   21.87
  10  -4  44   58.42   27.12
 -10   4 -44   40.68   20.09
   4   6 -44   66.91   28.50
  -4  -6  47    4.17   18.30
  -6  10  47   32.75   20.53
  10  -4  47   53.42   29.44
 -10   4 -47   -1.17   17.14
   4   6 -47    0.31   14.69
  -4  -6  50  -20.59   25.50
  -6  10  50  -13.53   21.03
  10  -4  50    1.95   11.49
 -10   4 -50   -9.47   14.32
   4   6 -50    0.53   15.99
  -4  -6  53   54.00   26.51
  -6  10  53   95.22   33.22
  -6  10  53   42.63   25.25
  10  -4  53   79.66   32.88
 -10   4 -53   88.83   35.30
   4   6 -53   33.09   21.85
  -6  10  56   82.10   27.38
  -6  10  56  119.09   48.04
  10  -4  56   29.31   17.41
 -10   4 -56   61.29   26.40
   4   6 -56   77.18   36.36
  -4  -6  56   46.90   29.06
  -6  10  59   67.76   36.13
  -6  10  59   34.55   20.13
  10  -4  59   51.00   23.78
 -10   4 -59   25.62   15.98
   4   6 -59    1.74   16.60
  -4  -6  59   22.17   28.62
  -6  10  62   73.96   36.21
 -10   4 -62   93.34   34.05
  10  -4  62   91.91   36.63
   4   6 -62   49.37   33.49
  -6  10  62   89.78   29.54
  -6  10  65   31.65   31.34
 -10   4 -65   43.40   25.63
  10  -4  65   49.96   31.24
  -4  -6  65   37.95   30.58
   4   6 -65   61.40   39.81
  -6  10  68   41.12   35.65
  10  -4  68   92.97   40.97
  -4  -6  68  114.28   47.20
   4   6 -68   68.29   36.26
  -6  10  71  108.36   46.43
  10  -4  71  207.83   60.97
  -4  -6  71  101.86   51.19
   4   6 -71   87.77   40.15
  -6  10  74  -33.14   32.37
  -4  -6  74  -23.11   30.97
   4   6 -74  -27.16   34.69
  -6  10  77   32.10   34.42
  -4  -6  77  -30.10   38.12
   4   6 -77   -9.12   30.57
  -6  10  80  -40.30   45.42
  -4  -6  80   -9.37   31.07
   4   6 -80  -17.00   32.12
  -4  -6  83   42.64   24.59
   4   6 -83   72.06   42.19
 -10   3  83  173.67   66.88
 -10   3  83  129.54   46.97
 -10   3  80    8.60   21.99
 -10   3  80   -7.68   21.59
   3   7  80   29.52   38.37
 -10   3  77  -31.52   30.71
 -10   3  77   -8.63   26.62
   3   7  77   -3.48   20.49
 -10   3  74  -12.54   23.29
 -10   3  74   10.23   22.37
   3   7  74    3.92   25.53
 -10   3  71   26.63   23.87
 -10   3  71  -37.23   35.68
   3   7  71  -10.55   20.22
 -10   3  68   23.07   20.12
 -10   3  68    7.06   15.89
   3   7  68   -3.46   21.24
 -10   3  65   43.63   37.20
   3   7  65   93.42   45.93
 -10   3  65  117.83   58.40
 -10   3  62   36.97   32.94
   3   7  62   26.33   22.34
 -10   3  62   42.05   36.78
   3   7  59   27.26   32.68
 -10   3  59   30.27   33.22
  -3  -7 -56  233.39   44.50
   3   7  56  212.95   63.60
 -10   3  56  227.81   67.98
   3   7  53   35.59   30.06
 -10   3  53   40.19   32.16
 -10   3  50   84.19   39.85
   3   7  50    7.71   24.04
 -10   3  47   59.16   33.67
   3   7  47   57.57   36.51
 -10   3  44  236.71   65.61
  -3  -7 -44  250.36   47.47
   3   7  44  242.26   63.97
  -3  -7 -41  134.25   40.53
 -10   3  41  163.22   52.17
   3   7  41   63.54   27.23
 -10   3  38   32.37   28.85
   3   7  38   22.35   10.34
   3   7  38    3.57   16.19
  -3  -7 -38  -16.49   21.71
   3   7  35   27.68   18.10
 -10   3  35   84.66   36.76
   3   7  35   19.53   18.02
  -3  -7 -35   37.76   20.21
   3   7  32   -9.02   15.21
 -10   3  32  -36.85   30.39
   3   7  32  -56.30   35.11
  -3  -7 -32    4.61   13.35
   3   7  29   -7.34   14.82
 -10   3  29  -20.05   16.92
  -3  -7 -29   16.16   12.74
   3   7  26  159.89   40.22
  -3  -7 -26  116.43   35.61
 -10   3  26  131.42   45.06
  -3  -7 -26  148.07   37.10
  -3  -7 -23   26.43   20.21
 -10   3  23   24.74   24.35
  -3  -7 -23    4.35   14.47
   3   7  23   37.48   21.13
  -3  -7 -20  126.03   34.53
 -10   3  20  133.02   42.32
  -3  -7 -20  121.18   38.09
  -3  -7 -17  338.24   55.32
  -3  -7 -17  403.80   67.47
 -10   3  17  406.66   74.42
  -3  -7 -14   42.15   27.84
 -10   3  14    4.48   13.20
  -3  -7 -14   63.30   28.76
 -10   3  11   81.58   35.51
  -3  -7 -11   77.76   25.23
  -3  -7 -11   88.98   35.42
  -3  -7  -8  348.07   47.88
 -10   3   8  342.89   67.45
  -3  -7  -8  355.98   67.60
 -10   3   5   43.17   27.37
  -3  -7  -5   51.79   29.70
 -10   3   2  144.31   42.10
  -3  -7  -2   91.24   35.61
 -10   3  -1   31.51   24.77
  -3  -7   1   40.63   27.31
 -10   3  -4  314.35   61.12
  -3  -7   4  308.14   66.06
  -3  -7   7   39.83   27.57
 -10   3  -7   13.75   13.51
 -10   3 -10   69.81   28.21
  -3  -7  10  121.62   40.03
 -10   3 -13    5.75   14.25
  -3  -7  13    8.14   16.55
 -10   3 -16   -3.43   13.77
  -3  -7  16  -12.78   18.30
 -10   3 -19  256.05   55.02
   3   7 -19  173.35   22.64
  -3  -7  19  323.89   68.72
   3   7 -22   16.34   11.49
 -10   3 -22   39.10   23.61
  -3  -7  22   30.15   24.84
 -10   3 -25  247.95   53.45
  -3  -7  25  245.19   61.50
   3   7 -25  208.12   30.83
 -10   3 -28   75.05   34.02
   3   7 -28  -10.70   15.67
  -3  -7  28   67.99   34.32
 -10   3 -31  474.92   75.12
   3   7 -31  416.15   52.56
  -3  -7  31  421.23   85.46
 -10   3 -34  297.81   59.70
  10  -3  34  254.00   56.20
   3   7 -34  216.66   40.48
  -3  -7  34  317.14   73.93
 -10   3 -37   12.75   17.53
  10  -3  37   60.70   33.22
   3   7 -37  -24.66   21.34
  -3  -7  37    7.75   22.44
 -10   3 -40   23.30   16.95
  -7  10  40   69.96   34.15
  10  -3  40   28.46   22.85
   3   7 -40   29.56   19.20
  -3  -7  40   69.49   39.82
 -10   3 -43   19.77   16.18
  -7  10  43   36.93   31.90
  10  -3  43   -2.60   13.75
   3   7 -43   19.08   13.70
 -10   3 -46  113.16   37.82
  -7  10  46  137.54   48.00
  10  -3  46  167.41   53.04
   3   7 -46   97.03   32.83
  -3  -7  46   37.84   31.55
 -10   3 -49  223.09   50.52
  -7  10  49  183.43   47.86
  -7  10  49  157.34   52.66
  10  -3  49  157.81   50.56
   3   7 -49  106.78   35.74
  -3  -7  49  128.60   53.93
 -10   3 -52   40.08   15.57
  -7  10  52   83.91   31.75
  -7  10  52   63.96   34.13
  10  -3  52   40.11   25.31
   3   7 -52   23.43   15.72
  -3  -7  52    0.17   20.86
 -10   3 -55    7.74   14.70
  10  -3  55   -2.25   13.25
  -7  10  55   56.53   30.23
  -7  10  55   38.47   17.19
  -3  -7  55  -22.98   27.06
   3   7 -55   30.84   22.18
  -7  10  58  189.65   49.60
  -7  10  58   78.37   38.49
  10  -3  58   64.77   37.39
  -3  -7  58   61.22   32.56
   3   7 -58   72.25   33.17
 -10   3 -58   85.80   29.48
  -7  10  61  -12.47   23.39
  10  -3  61   26.72   25.46
  -7  10  61    9.28   17.42
  -3  -7  61  -25.71   29.69
   3   7 -61    4.86   19.69
 -10   3 -61    4.90   12.36
  -7  10  64   21.47   15.80
  -7  10  64   64.89   24.12
  10  -3  64   44.72   25.39
  -3  -7  64    6.97   23.40
   3   7 -64   73.63   35.45
  -7  10  67  123.88   50.96
  10  -3  67  112.99   42.95
  -3  -7  67  185.62   70.44
   3   7 -67  104.28   44.16
  -7  10  70   23.35   30.37
  10  -3  70   24.20   15.96
  -3  -7  70    7.60   29.37
   3   7 -70   29.07   32.79
  -7  10  73   49.74   26.08
  10  -3  73    3.14   22.00
  -3  -7  73   58.25   37.33
   3   7 -73   48.97   31.57
  -7  10  76  -22.10   22.96
  10  -3  76    0.69   14.67
  -3  -7  76   11.86   23.11
   3   7 -76  -35.81   29.37
  -7  10  79  125.57   55.32
  10  -3  79  138.30   53.49
  -3  -7  79   71.34   54.73
   3   7 -79   63.87   38.41
  -3  -7  82  -30.96   47.32
   3   7 -82  -49.92   36.76
 -10   2  81  -23.24   22.36
 -10   2  81  -27.92   27.12
 -10   2  78   19.69   23.23
 -10   2  78   -6.98   23.44
   2   8  78   33.85   35.13
 -10   2  75   25.43   29.62
   2   8  75   99.90   49.54
 -10   2  75   35.46   32.97
 -10   2  72   28.18   26.77
 -10   2  72   42.91   42.03
   2   8  72  -21.33   29.10
 -10   2  69   15.70   24.96
 -10   2  69   31.52   30.69
   2   8  69   45.19   27.41
 -10   2  66  -16.64   24.40
 -10   2  66   50.29   36.34
   2   8  66   21.49   15.75
 -10   2  63    3.08   24.22
 -10   2  63    2.64   28.28
   2   8  63   17.84   26.71
   2   8  60  146.50   56.52
 -10   2  60   59.80   38.32
   2   8  57   -9.75   17.24
 -10   2  57   41.23   39.48
   2   8  54   49.14   37.60
 -10   2  54   59.73   38.10
   2   8  51   11.13   26.06
 -10   2  51   37.52   36.03
   2   8  48  265.88   68.63
 -10   2  48  247.37   70.59
   2   8  45   69.39   40.91
 -10   2  45   97.88   41.44
   2   8  42   80.91   39.81
 -10   2  42   37.61   30.00
 -10   2  39  168.09   57.05
  -2  -8 -39  173.75   44.76
   2   8  39  127.60   47.38
 -10   2  36   80.16   40.10
   2   8  36   51.52   28.50
  -2  -8 -36   35.26   23.83
   2   8  36   61.98   20.86
 -10   2  33   -6.93   22.69
   2   8  33  -11.39   11.72
   2   8  33  -37.60   21.04
 -10   2  30  102.73   40.07
   2   8  30   67.72   28.69
  -2  -8 -30   56.52   28.25
   2   8  30   74.65   23.74
 -10   2  27  195.05   53.73
   2   8  27  130.68   39.15
  -2  -8 -27  186.83   45.42
   2   8  27  143.24   34.16
 -10   2  24   -0.48   21.83
  -2  -8 -24   17.20   15.53
 -10   2  21  342.53   71.08
  -2  -8 -21  395.48   68.13
 -10   2  18    0.50   20.84
  -2  -8 -18   58.01   31.34
 -10   2  15   63.81   27.18
  -2  -8 -15   94.94   35.68
 -10   2  12  145.88   45.77
  -2  -8 -12  141.48   42.10
 -10   2   9   49.94   29.82
  -2  -8  -9   71.37   31.33
 -10   2   6   88.73   32.32
  -2  -8  -6  132.85   40.69
 -10   2   3   73.67   37.55
  -2  -8  -3   94.07   38.61
  -2  -8   0  530.88   84.06
 -10   2   0  571.50   88.36
 -10   2  -3  139.80   44.63
  -2  -8   3  165.68   50.49
 -10   2  -6   24.94   22.51
  -2  -8   6   21.95   25.88
 -10   2  -9   29.02   25.74
  -2  -8   9   21.65   23.93
 -10   2 -12   49.21   25.74
  -2  -8  12   48.96   28.35
 -10   2 -15   52.18   28.27
  -2  -8  15   38.97   31.10
   2   8 -15   27.14    7.97
  -2  -8  18   82.98   34.90
 -10   2 -18   91.04   35.45
   2   8 -18   41.50   11.27
 -10   2 -21  216.31   51.49
  -2  -8  21  138.14   46.93
   2   8 -21  152.50   24.87
 -10   2 -24   31.36   22.82
  -2  -8  24   22.14   31.26
   2   8 -24   32.29   14.12
 -10   2 -27  297.31   60.91
  -2  -8  27  246.15   65.94
   2   8 -27  218.08   35.26
   8 -10 -30   94.89   28.02
 -10   2 -30   81.08   34.13
  -2  -8  30   73.55   35.98
   2   8 -30   51.98   17.90
   8 -10 -33   23.39   21.88
 -10   2 -33    0.81   10.95
   2   8 -33   -7.07   12.23
  -2  -8  33    7.50   27.41
  10  -2  36   53.75   31.86
 -10   2 -36  101.37   35.42
   2   8 -36   25.09   14.67
  -2  -8  36   91.74   45.43
  10  -2  39   80.20   35.53
 -10   2 -39   23.01   14.36
  -2  -8  39   72.12   39.39
   2   8 -39   44.09   19.90
  -8  10  42   65.20   28.88
  10  -2  42   67.02   32.59
 -10   2 -42   76.19   32.96
  -2  -8  42   87.31   45.76
   2   8 -42   14.49   21.75
  -8  10  45  152.60   51.43
 -10   2 -45  102.88   33.62
  10  -2  45   95.60   38.25
  -8  10  45  110.48   36.13
  -2  -8  45  127.26   58.80
   2   8 -45  117.70   35.05
  -8  10  48  236.44   56.03
  -8  10  48  229.71   62.67
  10  -2  48  122.92   47.10
 -10   2 -48   82.16   29.12
  -2  -8  48  241.77   70.18
   2   8 -48  158.82   43.71
  -8  10  51    5.46   19.08
 -10   2 -51   27.97   22.93
  -8  10  51   -0.35   17.99
  10  -2  51  -16.55   20.66
  -2  -8  51  -14.62   16.23
   2   8 -51    8.54   22.23
  -8  10  54  136.66   45.83
  -8  10  54   89.46   44.35
 -10   2 -54   15.61   16.85
  10  -2  54   36.92   25.93
  -2  -8  54  130.74   49.71
   2   8 -54   39.08   20.11
  -8  10  57   33.64   30.09
 -10   2 -57   14.45   18.83
  -2  -8  57    5.32   26.47
   2   8 -57   -1.47   13.43
  10  -2  57    6.73   18.56
  -8  10  57   26.69   26.67
 -10   2 -60   44.30   21.92
  -8  10  60  104.00   41.11
  -8  10  60  130.42   43.74
  10  -2  60  116.38   46.96
  -2  -8  60   54.31   31.31
   2   8 -60   39.24   28.96
  -8  10  63   89.61   34.14
  -8  10  63   22.54   26.51
  10  -2  63   18.02   22.83
  -2  -8  63   71.88   43.46
   2   8 -63   39.25   30.90
  -8  10  66   84.82   35.73
  -8  10  66   51.03   37.44
  10  -2  66   61.44   35.43
  -2  -8  66  -26.41   30.90
   2   8 -66   14.14   21.82
  -8  10  69  146.34   54.01
  10  -2  69  126.51   48.90
  -2  -8  69  131.54   56.06
   2   8 -69  127.74   44.81
  -8  10  72  -10.69   23.60
  10  -2  72   27.95   23.36
  -2  -8  72   -1.89   29.62
   2   8 -72    5.85   21.76
  -8  10  75   63.55   32.65
  10  -2  75   85.05   44.46
  -2  -8  75   71.89   42.67
   2   8 -75   58.77   35.01
  -8  10  78   60.51   42.60
  -2  -8  78    8.64   28.22
  10  -2  78    7.87   20.62
   2   8 -78  -46.56   39.57
  -2  -8  81   78.03   62.39
  10  -2  81  -24.10   32.62
   2   8 -81  -18.95   33.50
 -10   1  79   25.33   19.41
 -10   1  76  -23.69   30.27
 -10   1  76  -17.81   20.45
   1   9  76   40.24   26.01
 -10   1  73   80.76   48.91
 -10   1  73   60.45   38.17
   1   9  73   55.89   39.90
 -10   1  70    3.69   22.81
 -10   1  70   43.68   46.30
   1   9  70   35.95   28.23
 -10   1  67   12.62   17.99
 -10   1  67    2.02   21.82
   1   9  67   19.66   19.61
 -10   1  64   36.74   31.37
 -10   1  64   77.66   49.69
   1   9  64   -0.70   27.27
 -10   1  61   63.23   38.84
 -10   1  61   98.96   51.22
   1   9  61   85.75   41.76
 -10   1  58   65.72   37.39
   1   9  58   66.59   38.55
 -10   1  55   15.26   29.30
   1   9  55   -8.70   16.97
   1   9  52   67.74   38.09
 -10   1  52   55.25   36.07
 -10   1  49  -27.93   24.33
   1   9  49  -43.83   29.24
   1   9  46   28.22   22.63
 -10   1  46  -10.52   26.49
   1   9  43   77.69   38.83
 -10   1  43   37.73   30.38
   1   9  40   34.61   24.93
 -10   1  40   68.90   34.44
   1   9  37   -0.03   15.28
 -10   1  37  -16.37   22.91
   1   9  34   37.93   26.36
 -10   1  34   94.98   47.59
  -1  -9 -31  465.54   76.70
   1   9  31  405.99   74.85
 -10   1  31  397.45   83.16
  -1  -9 -28   30.54   29.03
   1   9  28   -0.09   16.05
 -10   1  28   50.61   34.78
 -10   1  25  248.33   67.74
   1   9  25  201.01   51.67
  -1  -9 -25  249.91   56.46
 -10   1  22  150.25   52.69
   1   9  22   43.60   28.28
  -1  -9 -22   82.00   34.00
 -10   1  19  194.60   53.95
  -1  -9 -19  207.44   50.39
 -10   1  16   -5.50   21.25
  -1  -9 -16    0.53   14.61
 -10   1  13  111.48   43.12
  -1  -9 -13  139.22   43.39
 -10   1  10  114.00   41.80
  -1  -9 -10  102.32   38.90
 -10   1   7  -11.15   21.47
  -1  -9  -7   -2.87   19.29
 -10   1   4  109.83   38.09
  -1  -9  -4   95.06   37.69
 -10   1   1   19.26   21.86
  -1  -9  -1    7.83   18.98
 -10   1  -2    7.91   15.51
  -1  -9   2   12.07   16.95
 -10   1  -5   -2.88   13.85
  -1  -9   5   21.36   22.37
 -10   1  -8   38.24   26.90
  -1  -9   8   99.37   43.24
 -10   1 -11   21.13   21.42
  -1  -9  11    4.47   12.25
   1   9 -11    1.01    2.81
 -10   1 -14   75.12   34.86
  -1  -9  14   48.54   28.24
   1   9 -14   22.44    7.49
 -10   1 -17   87.10   37.54
  -1  -9  17  149.12   49.28
 -10   1 -20   30.02   25.12
   9 -10 -20   56.84   17.81
  -1  -9  20   23.19   17.90
 -10   1 -23   22.03   17.96
   9 -10 -23   40.89   12.61
  -1  -9  23   58.54   34.86
 -10   1 -26   -3.69   18.87
   9 -10 -26   11.95   14.49
  -1  -9  26  -23.41   20.75
 -10   1 -29    1.02   15.49
  -1  -9  29   16.72   19.71
 -10   1 -32  -15.38   19.40
  -1  -9  32   13.19   13.65
 -10   1 -35  129.40   40.55
  -9  10  35  159.97   49.66
  -1  -9  35   68.46   36.02
  -9  10  38   17.51   20.65
 -10   1 -38    4.30   12.02
  10  -1  38  -21.78   21.62
  -1  -9  38    2.62   16.99
 -10   1 -41   27.55   24.33
  -9  10  41   78.01   36.84
  10  -1  41   16.38   18.47
  -1  -9  41   62.89   32.68
 -10   1 -44  284.01   60.08
  10  -1  44  229.59   60.39
  -1  -9  44  285.51   74.55
  -9  10  44  413.20   77.81
 -10   1 -47   34.20   20.39
  -9  10  47   -1.43   18.09
  10  -1  47  -23.25   25.32
  -1  -9  47   22.74   27.79
 -10   1 -50   83.95   31.93
  -9  10  50  113.11   43.20
  10  -1  50  186.81   57.90
  -1  -9  50  195.60   66.28
 -10   1 -53   18.73   26.25
  -9  10  53   27.50   32.77
  10  -1  53   39.77   37.43
  -1  -9  53   76.75   48.56
  -9  10  53   17.38   27.50
 -10   1 -56  243.97   56.18
  -9  10  56  309.61   80.47
  10  -1  56  237.98   68.81
  -9  10  56  314.64   71.23
  -1  -9  56  223.84   68.77
   1   9 -56  216.08   56.76
  -9  10  59   41.00   24.01
  -9  10  59   72.28   36.10
  10  -1  59   38.04   30.08
  -1  -9  59   -6.20   16.94
   1   9 -59   12.07   20.71
  -9  10  62   99.88   41.07
  -9  10  62   45.89   23.83
  10  -1  62   -9.53   20.57
  -1  -9  62   66.91   35.53
   1   9 -62   54.80   27.46
  -9  10  65  133.77   49.34
  10  -1  65   66.71   39.58
  -9  10  65   49.70   30.61
  -1  -9  65   78.05   44.67
   1   9 -65   46.30   29.40
  -9  10  68  -12.35   19.22
  -1  -9  68   28.02   20.85
  10  -1  68   41.95   33.01
   1   9 -68  -11.57   24.17
  -9  10  68   52.82   35.29
  -9  10  71   34.80   36.61
  -1  -9  71   25.34   39.61
  10  -1  71    9.81   20.88
   1   9 -71  -30.79   27.44
  -9  10  74  -13.53   22.63
  -1  -9  74  -10.49   25.34
  10  -1  74  -10.89   23.34
   1   9 -74   24.80   34.69
  -1  -9  77   26.38   20.26
  10  -1  77   16.17   25.91
   1   9 -77   52.92   28.88
 -10   0  74   -5.91   28.29
   0  10  74   95.71   45.80
 -10   0  71   21.74   26.34
   0  10  71   47.75   37.60
 -10   0  68   22.97   24.65
   0  10  68   24.00   27.45
 -10   0  65   21.92   16.76
 -10   0  65  102.92   56.72
   0  10  65   96.06   49.04
 -10   0  62  129.61   50.81
 -10   0  62  152.45   58.27
   0  10  62  159.99   58.95
 -10   0  59   -4.31   14.92
 -10   0  59   -3.81   27.34
   0  10  59  -24.65   25.09
 -10   0  56  -25.18   27.45
   0  10  56   21.72   25.76
 -10   0  53  -26.97   21.42
   0  10  53   17.23   25.61
 -10   0  50   45.94   34.40
   0  10  50    6.18   14.46
   0  10  47   -9.41   22.74
 -10   0  47  -85.48   49.97
 -10   0  44   23.45   28.15
   0  10  44   -0.03   21.89
   0  10  41  -21.24   14.02
 -10   0  41   71.27   42.77
   0  10  38   79.78   36.05
 -10   0  38   64.54   37.87
   0  10  35  216.24   58.33
 -10   0  35  140.87   51.75
   0  10  32   27.40   23.34
 -10   0  32  110.69   51.69
   0  10  29  108.60   38.45
 -10   0  29  138.53   53.64
   0  10  26   39.15   27.15
 -10   0  26   59.64   44.47
 -10   0  23  560.66   98.55
   0  10  23  519.54   80.53
   0 -10 -20   37.10   31.82
   0  10  20   35.82   24.08
 -10   0  20   63.09   37.12
   0  10  17  141.04   40.82
   0 -10 -17  154.71   45.67
 -10   0  17  191.73   58.82
   0 -10 -14  130.33   47.20
 -10   0  14  142.72   50.77
   0 -10 -11    8.68   12.03
 -10   0  11  -11.82   14.04
   0 -10  -8   14.05   17.03
 -10   0   8    4.72   20.84
   0 -10  -5    3.66   13.01
 -10   0   5   17.18   13.35
   0 -10  -2   20.32   21.69
 -10   0   2   11.95   15.83
 -10   0  -1   41.96   23.52
   0 -10   1  -13.64   23.58
 -10   0  -1   -4.21   19.79
 -10   0  -4   93.15   36.16
   0 -10   4  103.36   39.05
 -10   0  -7   27.32   22.92
   0 -10   7   28.67   29.82
 -10   0 -10  142.50   46.91
   0 -10  10  195.83   58.27
 -10   0 -13  256.88   61.01
   0 -10  13  232.23   61.84
 -10   0 -16   74.66   33.33
   0 -10  16   17.00   14.36
 -10   0 -19    6.16   13.48
   0 -10  19   25.45   18.88
 -10   0 -22   91.58   37.00
   0 -10  22   46.24   31.00
 -10   0 -25  216.14   56.03
 -10  10  25  214.03   57.08
   0 -10  25  132.48   47.10
 -10   0 -28   26.57   18.37
 -10  10  28   -5.84   22.53
   0 -10  28  -18.30   22.58
   0 -10  31   97.25   44.12
 -10  10  31   53.63   32.49
 -10   0 -31   89.67   37.58
 -10  10  34  -22.44   19.75
   0 -10  34  -53.23   35.90
 -10   0 -34   17.05   13.40
 -10  10  37   21.54   18.54
   0 -10  37    9.73   19.56
 -10   0 -37   17.68   22.98
  10   0  40   32.85   16.49
 -10  10  40  134.29   50.64
   0 -10  40  156.33   54.68
 -10   0 -40   94.24   38.45
 -10  10  43   47.81   34.59
  10   0  43   20.66   17.45
   0 -10  43   20.45   22.22
 -10   0 -43   65.46   31.27
 -10  10  46  141.48   51.06
  10   0  46   50.20   36.76
   0 -10  46   44.65   31.40
 -10   0 -46  118.88   45.50
  10   0  49   22.05   27.77
   0 -10  49   77.95   49.50
 -10   0 -49   91.76   41.69
 -10  10  49   68.69   33.63
   0 -10  52  535.66  107.81
 -10   0 -52  505.24   80.55
 -10  10  52  564.92   99.09
  10   0  52  434.73   92.18
  10   0  55   -1.69   16.53
 -10  10  55   -6.62   20.38
 -10  10  55   35.12   37.04
   0 -10  55   16.00   29.11
 -10  10  58  106.58   44.32
 -10  10  58   59.47   37.95
  10   0  58   87.59   40.71
   0 -10  58  131.06   57.35
 -10  10  61   72.13   38.79
 -10  10  61   80.34   49.89
   0 -10  61   53.35   37.88
  10   0  61   15.50   34.00
 -10  10  64  110.38   57.03
   0 -10  64  165.38   60.93
  10   0  64   86.34   46.43
 -10  10  64   56.06   38.81
  10   0  67   11.89   15.85
 -10  10  67   34.36   36.94
   0 -10  67   17.03   26.77
 -10  10  67    9.41   15.53
 -10  10  70  -22.70   27.32
   0 -10  70   -6.36   42.15
  10   0  73   37.98   28.63
   0 -10  73   58.77   45.08
  10   0  76  -56.45   46.86
   0  10 -76    0.26   20.63
   0 -10  76   -6.72   20.04
   1 -11  69   32.46   33.05
 -11  10  69   16.98   14.29
  10   1  69    3.02   25.01
 -11  10  66   50.23   40.82
   1 -11  66  -73.25   46.73
  10   1  66   26.62   32.51
 -11  10  66  -14.34   33.63
 -11  10  63   46.50   38.91
   1 -11  63   -7.33   25.91
  10   1  63   32.66   38.57
 -11  10  63  -11.31   31.30
 -11  10  60  155.89   54.67
 -11  10  60  172.65   67.07
   1 -11  60   64.17   47.76
  10   1  60  110.46   50.53
 -11  10  57   33.51   31.81
   1 -11  57   78.55   49.03
  10   1  57    7.49   23.06
 -11  10  54   91.90   42.86
   1 -11  54   97.87   40.60
  10   1  54   84.54   42.99
   1 -11  51   24.44   29.15
 -11  10  51  -24.19   30.96
  10   1  51  -28.81   27.71
   1 -11  48  250.34   72.45
  10   1  48  208.13   63.81
 -10  -1 -48  265.70   60.91
 -11  10  48  302.13   77.29
  10   1  45   47.40   31.77
   1 -11  45   75.01   42.68
 -10  -1 -45   70.99   39.47
 -11  10  45   61.66   36.17
 -11  10  42  -12.83   23.86
  10   1  42  -46.90   31.87
   1 -11  42  -45.60   32.54
 -10  -1 -42  -23.32   24.54
 -11  10  39   60.78   32.80
   1 -11  39   47.47   33.16
 -10  -1 -39   52.72   32.00
 -11  10  36   -5.83   19.74
   1 -11  36   48.04   35.61
 -10  -1 -36    6.57   14.82
   1 -11  33   34.67   23.42
 -11  10  33  -23.17   21.95
 -10  -1 -33   37.01   30.13
 -11  10  30    9.25   15.19
   1 -11  30   -5.21   23.78
 -10  -1 -30    6.07   16.02
 -11  10  27   41.40   31.77
   1 -11  27   86.49   38.04
 -10  -1 -27    4.62   18.12
   1 -11  24   52.76   34.93
 -10  -1 -24   46.60   27.29
 -11  10  24   46.53   31.84
   1 -11  21  307.32   72.38
 -11  10  21  490.74   93.15
 -10  -1 -21  387.42   78.69
 -11  10  18   36.12   28.52
   1 -11  18   66.23   36.18
 -10  -1 -18  108.88   44.46
 -11  10  15   31.16   23.02
 -10  -1 -15   19.52   19.21
   1 -11  15   -8.58   15.49
   1 -11  12   30.08   21.66
 -10  -1 -12   28.81   24.22
   1 -11   9  155.54   49.77
 -10  -1  -9  227.33   60.33
   1 -11   6  176.96   47.56
 -10  -1  -6  154.44   52.07
   1 -11   3   23.77   16.27
 -10  -1  -3   22.94   22.96
   1 -11   0   92.40   39.61
 -10  -1   0  118.87   43.90
   1 -11  -3    1.10   24.10
 -10  -1   3   18.58   19.45
   1 -11  -6  -21.86   26.67
 -10  -1   6    1.87   14.91
   1 -11  -9  -29.95   22.60
 -10  -1   9  -16.43   27.76
  -1  11  12  -32.08   20.35
 -10  -1  12    2.62   27.19
  -1  11  15   32.15   23.05
 -10  -1  15   40.42   15.33
  -1  11  18   33.54   24.39
 -10  -1  18   45.07   34.35
  -1  11  21  186.44   48.00
 -10  -1  21  148.14   54.81
  -1  11  24   81.53   37.33
 -10  -1  24   28.04   27.55
  -1  11  27  259.86   59.58
 -10  -1  27  253.40   71.40
 -10  -1  30   -0.04   20.98
  -1  11  30    3.67   20.62
  -1  11  33   44.30   25.77
 -10  -1  33   65.51   44.42
 -10  -1  36  -19.44   33.09
  -1  11  36  -20.75   21.52
 -10  -1  39   82.43   47.65
  -1  11  39   44.40   21.26
  -1  11  42   42.17   27.23
 -10  -1  42   10.32   25.07
 -10  -1  45   16.75   26.00
  -1  11  45   15.14   19.13
 -10  -1  48   14.67   26.24
  -1  11  48   73.63   36.29
 -10  -1  51   37.00   31.27
  -1  11  51  -16.42   19.05
 -10  -1  54   48.66   35.51
  -1  11  54   28.10   16.59
 -10  -1  57  -29.29   40.17
  -1  11  57   12.72   17.39
 -10  -1  60   35.31   27.52
  -1  11  60   77.56   39.42
 -10  -1  63   48.46   36.68
  -1  11  63   85.55   47.89
 -10  -1  66  108.64   63.53
  -1  11  66  127.33   56.51
 -10  -1  69   71.81   57.10
  -1  11  69  122.43   50.32
 -11   9  73   36.94   36.38
   2 -11  73   45.61   38.43
   9   2  73   44.65   34.99
 -11   9  70   49.15   43.41
   2 -11  70   32.45   30.16
   9   2  70   33.48   30.68
 -11   9  67   48.92   40.05
 -11   9  67  -16.63   24.01
   2 -11  67    2.54   25.67
   9   2  67   10.37   18.35
 -11   9  64   59.56   43.78
   2 -11  64   33.34   21.35
 -11   9  64  -46.18   38.18
   9   2  64   -8.51   22.36
 -11   9  61  114.81   58.94
   2 -11  61   18.22   22.05
   9   2  61   52.19   40.04
 -11   9  61    0.15   28.92
   2 -11  58  123.31   56.38
   9   2  58   96.16   49.04
 -11   9  58   83.47   41.42
   2 -11  55  -18.55   26.63
   9   2  55   44.92   36.41
 -11   9  55   57.98   32.02
 -11   9  52   74.58   37.88
   9   2  52   90.09   48.90
   2 -11  52  126.49   49.03
 -11   9  49    4.29   13.18
   2 -11  49  -37.38   39.15
   9   2  49  -38.32   33.33
   2 -11  46    8.98   17.41
 -11   9  46   -0.18   19.10
  -9  -2 -46  -21.39   22.86
   9   2  46   -8.25   24.22
   2 -11  43   15.44   23.40
  -9  -2 -43   -4.36   13.57
 -11   9  43   -1.53   19.38
   9   2  43  -10.08   24.74
   9   2  40  -36.54   36.42
  -9  -2 -40   67.85   29.28
   2 -11  40  -19.99   24.21
 -11   9  40   -9.39   21.90
   2 -11  37    0.23   19.06
  -9  -2 -37  -36.64   28.19
 -11   9  37  -20.53   23.47
 -11   9  34  -25.11   24.02
   2 -11  34   31.42   27.27
  -9  -2 -34   40.55   27.03
 -11   9  31  134.48   46.53
   2 -11  31  168.67   54.54
  -9  -2 -31  165.99   49.56
   2 -11  28   29.59   24.58
  -9  -2 -28   16.48   13.87
   2 -11  25  182.94   56.11
  -9  -2 -25  197.51   52.71
 -11   9  25  110.53   35.78
 -11   9  22   35.57   23.13
   2 -11  22   48.10   32.59
  -9  -2 -22   90.67   37.80
 -11   9  19   19.91   16.89
   2 -11  19   50.67   27.69
  -9  -2 -19   27.56   18.01
  -9  -2 -16    4.16   17.65
 -11   9  16  -35.55   27.43
 -11   9  13  256.69   64.67
   2 -11  13  177.21   52.50
  -9  -2 -13  245.16   61.48
  -2  11 -10   35.70   13.25
  -9  -2 -10   34.71   30.29
 -11   9  10   76.50   36.99
   2 -11  10   40.43   22.77
  -2  11  -7   14.99    9.72
 -11   9   7    0.98   23.61
   2 -11   7   -7.63   18.41
  -9  -2  -7  -24.68   23.70
  -2  11  -4  146.47   27.99
 -11   9   4  256.30   63.25
   2 -11   4  195.73   54.71
  -9  -2  -4  207.42   57.44
  -2  11  -1   -6.32    9.15
  -9  -2  -1   35.17   24.52
  -2  11   2   10.37   11.16
  -9  -2   2   -7.00   25.30
  -2  11   5   15.56   12.21
  -9  -2   5   37.91   29.67
  -2  11   8  150.97   34.12
  -2  11   8   97.85   29.52
  -9  -2   8  130.99   47.17
  -2  11  11   -7.15   12.47
  -2  11  11    2.72   15.21
  -9  -2  11   -3.74   14.82
  -2  11  14   88.25   27.88
  -9  -2  14  108.27   44.80
  -2  11  14   63.99   30.86
  -2  11  17  243.61   47.26
  -9  -2  17  255.60   65.03
  -2  11  17  267.26   52.54
  -2  11  20   20.91   12.14
  -9  -2  20   65.65   37.62
  -2  11  20   58.66   29.73
  -2  11  23   49.30   21.26
  -2  11  23  119.22   37.48
  -9  -2  23   34.91   31.69
  -2  11  26  -12.25   17.33
  -9  -2  26  -22.67   34.45
  -2  11  26   21.97   21.28
  -2  11  29   87.49   33.52
  -9  -2  29  168.91   58.08
  -2  11  29   75.59   31.07
  -2  11  32   -6.24   13.81
  -9  -2  32   42.68   31.53
  -2  11  32  -10.52   19.92
  -2  11  35   74.28   33.92
  -9  -2  35   19.89   22.00
  -2  11  35   48.12   25.16
  -2  11  38   20.71   24.46
  -9  -2  38   18.72   30.44
  -2  11  38    3.35   11.95
  -2  11  41   10.02   15.13
  -9  -2  41    9.79   16.96
  -2  11  41  -10.69   20.71
  -2  11  44   75.60   35.87
  -9  -2  44    5.83   17.58
  -2  11  44   32.58   24.54
  -2  11  47   -5.41   20.95
  -9  -2  47   22.39   35.76
  -2  11  47   -0.03   12.41
  -2  11  50  -17.02   29.26
  -9  -2  50   35.73   37.00
  -2  11  50   18.40   14.44
  -2  11  53   38.09   27.50
  -9  -2  53   64.72   46.16
  -2  11  53   27.51   25.09
  -2  11  56   84.87   41.13
  -9  -2  56   72.14   41.93
  -2  11  56  111.64   43.70
  -2  11  59    0.25   16.49
  -9  -2  59  -28.20   18.37
  -2  11  59   15.15   22.54
  -2  11  62   64.17   41.46
  -9  -2  62   30.03   19.30
  -2  11  62   61.85   37.59
  -2  11  65   85.69   40.89
  -9  -2  65   50.29   46.73
  -2  11  65    0.71   28.81
  -9  -2  68   18.31   44.88
  -2  11  68   10.89   18.83
  -9  -2  71    8.88   30.30
  -9  -2  74  -32.12   37.30
 -11   8  77   16.94   25.19
 -11   8  74   43.79   36.07
 -11   8  74   31.22   34.32
   8   3  74   -4.68   19.91
 -11   8  71   60.75   45.19
 -11   8  71   85.85   48.32
   8   3  71   61.31   39.57
 -11   8  68   11.79   32.87
 -11   8  68   26.60   28.90
   8   3  68  -27.92   19.67
 -11   8  65   69.06   48.01
 -11   8  65  117.57   50.24
   8   3  65   81.32   53.76
 -11   8  62  114.52   48.40
   8   3  62  120.60   54.09
 -11   8  59   22.16   24.58
   8   3  59  -17.88   21.46
   8   3  56   40.72   34.78
 -11   8  56  -46.79   37.57
   3 -11  53  -55.32   46.23
   8   3  53   21.14   22.39
 -11   8  53   -7.99   28.87
   3 -11  50    8.27   15.57
   8   3  50  -24.66   33.46
 -11   8  50   -8.35   19.15
 -11   8  47   -8.57   23.10
  -8  -3 -47   -8.63   19.42
   3 -11  47   -3.30   23.57
   8   3  47  -12.23   25.44
 -11   8  44   74.91   35.17
  -8  -3 -44   31.35   34.72
   3 -11  44    8.60   15.94
   8   3  44   42.21   28.90
   8   3  41    4.32   19.89
 -11   8  41   44.62   31.39
  -8  -3 -41  -43.48   27.45
   3 -11  41  -20.94   30.44
  -8  -3 -38   39.32   25.16
 -11   8  38   83.72   37.96
   3 -11  38   34.36   24.16
  -8  -3 -35  320.95   65.36
   3 -11  35  338.30   75.06
 -11   8  35  317.23   70.94
  -8  -3 -32   14.48   16.28
   3 -11  32   12.59   21.40
 -11   8  32   -4.95   20.51
  -8  -3 -29   91.09   35.04
   3 -11  29  127.13   48.90
 -11   8  29   86.13   41.62
 -11   8  26   44.08   31.44
  -8  -3 -26   16.90   21.67
  -3  11 -23  113.11   23.12
  -8  -3 -23  179.93   48.89
  -3  11 -20   27.41   12.50
 -11   8  20   26.40   21.22
  -8  -3 -20   47.35   26.99
  -3  11 -17  151.33   29.63
  -8  -3 -17  253.07   60.87
 -11   8  17  224.87   57.25
  -3  11 -14  154.53   30.36
  -8  -3 -14  218.43   56.88
 -11   8  14  155.44   51.64
 -11   8  11    3.52   22.55
  -3  11 -11   20.48   13.63
  -8  -3 -11   -1.50   20.64
  -8  -3 -11  -12.95   14.68
  -3  11  -8   91.87   24.62
 -11   8   8  107.53   38.24
  -8  -3  -8   97.53   37.93
  -8  -3  -8   33.22   14.01
  -3  11  -5    1.47    8.92
  -8  -3  -5   28.22   26.80
 -11   8   5   25.92   19.72
  -8  -3  -5   -8.84   14.72
 -11   8   2   33.20   21.44
  -3  11  -2    6.90   10.74
  -8  -3  -2   32.98   28.73
  -8  -3  -2  -16.63   16.83
  -3  11   1   30.88   16.58
  -8  -3   1   35.71   26.32
  -3  11   1    5.02   10.64
 -11   8  -1   41.89   25.02
  -8  -3   1   39.43   18.24
 -11   8  -4  315.09   68.52
  -3  11   4  320.19   50.73
  -8  -3   4  381.86   78.87
  -3  11   4  261.56   45.61
  -8  -3   4  231.66   40.00
  -3  11   7   50.73   22.66
 -11   8  -7   44.23   29.85
  -8  -3   7   73.60   37.75
  -3  11   7  -17.18   15.45
  -3  11  10   84.81   24.99
  -3  11  10  151.38   38.54
 -11   8 -10   93.84   41.44
  -8  -3  10  176.05   56.07
  -3  11  10  139.23   36.61
  -3  11  13  147.82   31.73
  -3  11  13  223.49   46.22
  -8  -3  13  278.29   70.82
  11  -8  13  149.78   22.85
  -3  11  13  268.21   48.84
  -3  11  16   52.64   22.28
  -8  -3  16   78.22   35.33
  11  -8  16   28.47   11.61
  -3  11  16  120.25   34.84
  -3  11  16   53.36   20.24
  -3  11  19   20.91   15.02
  -8  -3  19   36.47   29.36
  -3  11  19   21.60   15.76
  11  -8  19    7.42    5.59
  -3  11  22   36.26   22.01
  -8  -3  22  110.25   47.02
  -3  11  22   69.55   30.60
  -3  11  25  176.13   45.91
  -8  -3  25  140.53   50.10
  -3  11  25  169.64   41.82
  11  -8  25   98.11   17.18
  -3  11  28  -26.43   26.57
  -8  -3  28  -26.93   34.05
  -3  11  28    1.78   14.74
  -3  11  31  -20.27   24.80
  -8  -3  31  -20.11   33.30
  -3  11  31   24.94   14.81
  -3  11  34  -63.78   32.98
  -8  -3  34 -118.32   60.46
  -3  11  34  -37.23   28.24
  -3  11  37  -18.44   20.31
  -8  -3  37  -11.13   21.37
  -3  11  37  -16.75   17.00
  -3  11  40   50.36   25.69
  -8  -3  40   50.40   31.25
  -3  11  40   86.04   33.47
  -3  11  43   43.36   31.88
  -8  -3  43  -21.33   31.98
  -8  -3  43   25.95   19.84
  -3  11  43   51.68   25.53
  -3  11  46   41.14   24.90
  -8  -3  46   47.87   40.81
  -3  11  46   28.40   26.26
  -3  11  49   56.53   34.94
  -8  -3  49   65.05   46.89
  -3  11  49   26.73   31.14
  -3  11  52  198.15   58.50
  -8  -3  52  285.75   78.54
  -3  11  52  295.55   67.39
  -3  11  55    3.24   20.59
  -8  -3  55    1.80   33.60
  -3  11  55    6.29   23.04
  -3  11  58   29.34   21.48
  -8  -3  58   77.49   47.21
  -3  11  61   30.05   27.04
  -8  -3  61   21.23   39.64
  -3  11  64   13.64   17.64
  -8  -3  64   -8.09   31.39
  -3  11  67    6.95   22.55
  -8  -3  67  -13.04   19.80
  -3  11  70  124.30   56.28
  -8  -3  70   26.41   51.56
  -3  11  73   29.89   27.20
  -8  -3  73   15.79   23.98
  -3  11  76   20.44   37.12
  -8  -3  76   12.51   27.16
 -11   7  78  -17.73   19.64
 -11   7  78   80.78   41.05
 -11   7  75  111.98   51.65
 -11   7  75   24.70   36.23
   7   4  75  109.83   61.83
 -11   7  72   -1.24   15.88
 -11   7  72   23.79   29.51
   7   4  72   25.57   32.07
 -11   7  69   71.93   48.06
 -11   7  69  138.43   62.49
   7   4  69  190.09   73.06
 -11   7  66   51.19   44.96
 -11   7  66   97.50   48.11
   7   4  66   50.64   37.86
 -11   7  63   25.61   30.06
   7   4  63   22.73   26.50
 -11   7  60   22.57   25.01
   7   4  60    6.15   14.06
 -11   7  57   12.98   20.08
   7   4  57   33.00   33.31
 -11   7  54   11.17   23.23
   7   4  54   37.49   33.42
   7   4  51  -36.16   36.73
 -11   7  51  -41.85   32.12
  -7  -4 -48   21.50   24.57
   7   4  48   19.02   20.99
 -11   7  48   10.84   16.01
  -7  -4 -45   36.65   22.37
   7   4  45   -7.55   22.13
 -11   7  45   16.36   23.00
  -7  -4 -42   23.83   26.12
   7   4  42   40.01   23.69
 -11   7  42   43.87   26.35
 -11   7  39  124.30   46.93
   7   4  39   94.71   42.11
 -11   7  36   20.03   22.73
  -7  -4 -36   42.49   26.57
  -7  -4 -33  169.90   47.38
 -11   7  33  130.73   45.92
  -7  -4 -30   57.06   31.91
 -11   7  30   37.39   29.24
 -11   7  27  466.83   85.34
  -7  -4 -27  522.46   82.38
  -7  -4 -24   70.10   33.08
 -11   7  24   20.31   20.37
  -7  -4 -21  120.60   42.07
 -11   7  21  127.58   44.42
  -7  -4 -18  193.01   52.86
 -11   7  18  161.46   50.29
 -11   7  15   55.17   32.90
  -7  -4 -15   97.93   36.27
  -7  -4 -12   23.31   23.00
  -7  -4 -12    4.00    4.26
 -11   7   9  -15.98   21.92
  -7  -4  -9   27.97   22.02
  -7  -4  -6   41.94   26.55
 -11   7   6   23.38   24.23
  -4  11  -6   10.13    6.80
  -7  -4  -3   -0.44   18.74
  -4  11  -3  -10.90   10.41
 -11   7   3    4.35   14.21
  -7  -4   0  148.22   48.76
  -4  11   0  100.75   25.64
 -11   7   0  119.21   43.29
 -11   7  -3   15.72   18.09
  -7  -4   3   34.60   27.30
  -4  11   3   58.20   24.15
  -4  11   3   31.70   16.30
 -11   7  -6  153.80   48.58
  -7  -4   6  129.10   42.32
  -4  11   6  122.76   34.48
  -4  11   6  107.84   27.33
  -7  -4   9  138.10   47.20
  -4  11   9  102.93   32.40
  -4  11   9  118.52   31.70
 -11   7  -9  147.04   47.96
  -4  11  12  122.71   32.08
  -7  -4  12  191.79   55.96
  -4  11  12  186.40   45.45
  -4  11  12  155.56   34.34
 -11   7 -12  154.59   46.22
  -4  11  15   45.31   21.47
  -7  -4  15   73.32   42.42
  -4  11  15   46.95   23.09
  -4  11  15   22.66   15.65
 -11   7 -15   60.76   30.97
  -4  11  18  135.04   34.29
 -11   7 -18  192.46   52.43
  -7  -4  18  180.19   57.76
  -4  11  18  155.48   43.99
  -4  11  18  166.86   38.81
  -7  -4  21  334.98   73.61
  -4  11  21  342.21   61.49
  11  -7  21  338.03   44.19
 -11   7 -21  368.63   73.01
  -4  11  21  387.74   59.30
  -4  11  21  341.20   52.72
  -7  -4  24    7.17   25.69
  -4  11  24  -29.12   18.29
  11  -7  24    7.83   10.85
  -4  11  24   22.62   20.55
 -11   7 -24   10.68   19.23
 -11   7 -27   35.68   25.01
  -7  -4  27  -38.68   40.28
  -4  11  27   22.90   20.17
  11  -7  27    1.00    8.62
  -4  11  27   33.86   20.82
  -7  -4  30  -11.87   19.55
  -4  11  30   -6.33   18.93
  11  -7  30    9.92    8.71
 -11   7 -30   13.80   11.74
  -4  11  30    4.18   14.04
 -11   7 -33  -16.39   22.05
  -7  -4  33  -43.11   38.10
  -4  11  33   -2.10   19.68
  11  -7  33    4.22    9.83
  -4  11  33  -10.07   15.87
  -7  -4  36    4.37   23.05
  -4  11  36   17.27   20.55
  -7  -4  36   24.19   14.46
 -11   7 -36    8.92   11.90
  11  -7  36   39.46   18.01
  -4  11  36   55.16   30.16
 -11   7 -39   39.67   22.89
  -7  -4  39  106.62   45.09
  -4  11  39  -10.33   14.83
  -7  -4  39   16.25   15.32
  11  -7  39   55.26   19.57
  -4  11  39   95.09   37.63
  -7  -4  42   11.01   26.46
  -4  11  42   -4.72   15.68
 -11   7 -42   -3.54   14.95
  11  -7  42   26.12   13.50
  -4  11  42   26.07   23.36
  -7  -4  45  119.71   58.85
  -4  11  45   58.58   35.09
  11  -7  45   95.42   30.03
  -4  11  45   75.08   33.11
  -7  -4  48  284.00   76.94
  -4  11  48  283.26   66.39
  -4  11  48  288.57   65.04
  -7  -4  51   96.07   52.37
  -4  11  51   22.65   24.20
  -7  -4  54  103.62   53.36
  -4  11  54  146.33   56.50
 -11   7 -54  147.54   47.18
  -7  -4  57  100.71   55.68
  -4  11  57   60.47   41.63
 -11   7 -57  150.99   47.85
  -7  -4  60   59.60   41.13
  -4  11  60  125.08   54.24
 -11   7 -60  107.93   41.36
  -4  11  63   10.07   17.89
 -11   7 -63   39.62   23.82
   7   4 -66    4.30   21.38
  -7  -4  66    9.46   26.17
  -4  11  66  -27.11   26.49
 -11   7 -66  -32.89   25.03
   7   4 -69  106.63   47.93
  -7  -4  69   50.22   47.69
  -4  11  69   20.81   19.32
 -11   7 -69   60.53   30.38
   7   4 -72    5.17   26.95
  -7  -4  72  -31.24   29.88
  -4  11  72    5.80   20.47
   7   4 -75   72.49   43.92
  -7  -4  75   22.98   23.47
  -4  11  75   29.39   19.45
  -7  -4  78   72.87   42.90
   7   4 -78   21.04   22.91
  -4  11  78   37.28   41.46
 -11   6  79  103.47   53.65
 -11   6  79   69.14   41.02
 -11   6  76   -6.15   21.97
   6   5  76  -10.39   21.55
 -11   6  76   11.28   19.20
 -11   6  73   68.92   48.55
   6   5  73   82.46   54.10
 -11   6  73   59.90   49.60
 -11   6  70   15.85   16.99
 -11   6  70   72.34   55.03
   6   5  70   39.17   35.18
 -11   6  67  -13.02   27.71
 -11   6  67   47.77   31.77
   6   5  67  -15.54   26.44
 -11   6  64    6.26   18.28
   6   5  64   19.24   26.76
   6   5  61   49.20   34.27
 -11   6  61   37.27   36.86
 -11   6  58   71.62   54.87
   6   5  58  133.89   55.09
 -11   6  55   12.81   31.17
   6   5  55  -13.43   17.86
   6   5  52  115.89   51.33
 -11   6  52   71.73   52.81
 -11   6  49    5.00   20.11
   6   5  49   -2.33   19.37
 -11   6  46  -26.26   27.87
   6   5  46  -18.23   31.20
  -6  -5 -46   23.71   25.49
   6   5  43  -41.99   35.13
 -11   6  43  -36.38   34.02
  -6  -5 -43   44.17   22.68
  -6  -5 -40   40.36   17.86
   6   5  40   31.40   21.96
 -11   6  40   13.98   25.52
  -6  -5 -37   24.98   23.12
   6   5  37  -21.29   26.14
 -11   6  37  -19.07   25.43
  -6  -5 -34   40.64   26.70
 -11   6  34   56.98   30.31
 -11   6  31  247.77   62.88
  -6  -5 -31  220.35   54.35
 -11   6  28   38.95   29.39
  -6  -5 -28   75.61   36.11
  -6  -5 -25  190.65   50.84
 -11   6  25  203.04   54.63
  -6  -5 -22   32.25   22.77
 -11   6  22   52.33   24.37
  -6  -5 -19  158.88   46.10
 -11   6  19  141.35   47.12
  -6  -5 -16    6.90   15.42
  -6  -5 -16   -7.60   21.76
 -11   6  16   44.77   27.81
  -5  11 -16   21.65   10.05
  -6  -5 -13   66.13   22.97
  -6  -5 -13   86.40   35.84
  -5  11 -13   63.51   17.39
 -11   6  13   97.42   37.16
  -6  -5 -10   73.80   25.94
  -6  -5 -10  147.96   42.21
  -5  11 -10   79.11   18.27
 -11   6  10  113.88   41.95
  -6  -5  -7   25.05   20.04
  -6  -5  -7    9.81   16.27
  -5  11  -7   36.24   14.70
 -11   6   7   14.12   20.15
  -6  -5  -4  149.72   34.83
  -6  -5  -4  194.97   51.64
  -5  11  -4  192.34   29.87
 -11   6   4  134.23   45.97
 -11   6   1  -26.07   24.50
  -6  -5  -1   -1.89    9.20
  -6  -5  -1    0.25   14.89
  -5  11  -1   30.03   12.59
  -6  -5   2  -13.49   11.71
 -11   6  -2  -20.11   21.96
  -6  -5   2   -3.01   17.13
  -5  11   2   16.66   11.52
  -6  -5   5   53.42   34.40
 -11   6  -5   25.13   12.68
  -5  11   5   34.19   17.12
 -11   6  -8   22.51   19.33
  -5  11   8   43.33   17.35
  -6  -5  11   17.79   27.93
 -11   6 -11   20.20   18.71
  -5  11  11   -6.09   10.29
  -6  -5  14  278.90   68.72
 -11   6 -14  240.78   57.16
  -5  11  14  238.27   40.43
  -6  -5  17  357.02   76.62
  -5  11  17  322.34   61.28
 -11   6 -17  308.25   64.38
  -5  11  17  298.38   45.81
  -6  -5  20    1.69   20.60
  -5  11  20   27.49   22.55
 -11   6 -20   38.56   25.60
  -5  11  20   18.71   12.96
  -6  -5  23   47.67   26.38
  -5  11  23   75.41   30.85
  -5  11  23   72.21   23.26
 -11   6 -23   19.00   18.12
  -6  -5  26  -52.01   35.58
  -5  11  26   25.48   20.16
  11  -6  26    9.90   25.92
  -5  11  26   -6.20   10.29
 -11   6 -26  -28.13   24.55
 -11   6 -29   16.65   16.95
  -6  -5  29   18.18   16.10
  -6  -5  29   33.13   11.11
  -5  11  29   56.99   28.49
  11  -6  29  108.83   28.81
  -5  11  29   76.50   28.59
 -11   6 -32  -12.62   18.28
  -6  -5  32   -0.24   16.20
  -6  -5  32   -6.83    6.29
  -5  11  32   27.87   23.03
  11  -6  32    0.57   11.34
  -6  -5  35   62.56   36.22
 -11   6 -35   77.38   31.03
  -5  11  35   69.39   30.59
  11  -6  35  109.69   33.12
  -6  -5  38   -6.67   26.64
 -11   6 -38   13.60   17.69
  -5  11  38  -24.73   24.92
  11  -6  38    9.24   10.49
  -6  -5  41   -7.83   17.07
 -11   6 -41   37.05   25.74
  -5  11  41    7.96   13.50
  11  -6  41    1.62   14.56
  -6  -5  44  113.76   50.58
 -11   6 -44   71.38   33.80
  -5  11  44  106.67   41.53
  11  -6  44   86.38   28.61
  -6  -5  47   41.45   30.20
 -11   6 -47   34.76   25.22
  -5  11  47   -1.22   18.88
  11  -6  47   22.70   19.43
   6   5 -50   57.32   27.56
  -6  -5  50   75.95   48.30
 -11   6 -50   98.61   37.51
  -5  11  50   79.17   39.57
  11  -6  50   30.32   18.77
   6   5 -53   65.30   38.03
  -6  -5  53   -6.77   36.46
 -11   6 -53   36.28   27.19
  -5  11  53    2.32   24.88
  11  -6  53   11.21   18.82
 -11   6 -56  168.34   48.40
   6   5 -56  244.52   58.28
  -6  -5  56  288.81   82.70
  -5  11  56  199.36   59.61
  11  -6  56  241.59   52.62
   6   5 -59   58.70   34.42
  -6  -5  59    2.42   20.91
  -5  11  59   35.85   32.70
 -11   6 -59   -5.43   12.10
   6   5 -62   94.80   43.60
  -6  -5  62   43.23   41.83
  -5  11  62   60.80   30.93
 -11   6 -62   41.09   20.77
   6   5 -65  149.77   53.21
  -6  -5  65  105.19   49.60
  -5  11  65  103.34   45.22
 -11   6 -65   85.93   35.77
   6   5 -68   38.66   34.84
  -6  -5  68   45.07   31.69
  -5  11  68   75.96   38.37
 -11   6 -68   37.07   25.52
  -6  -5  71   57.89   49.38
   6   5 -71  113.48   49.89
  -5  11  71    2.75   21.07
  -6  -5  74  -29.85   45.33
   6   5 -74   40.17   37.93
  -5  11  74   34.75   19.01
   6   5 -77   -1.65   18.72
  -5  11  77  -19.51   16.87
 -11   5  77   -4.13   20.39
 -11   5  77   -6.10   28.04
 -11   5  74   31.74   32.68
   5   6  74    8.89   18.53
 -11   5  74   -2.84   23.09
 -11   5  71   22.31   35.36
   5   6  71   -6.78   25.43
 -11   5  71    0.22   21.47
 -11   5  68   36.11   32.94
   5   6  68   27.43   31.30
 -11   5  68   -2.50   24.14
 -11   5  65   64.09   48.01
   5   6  65   56.93   41.52
 -11   5  65   68.41   48.36
 -11   5  62   78.52   47.27
   5   6  62  127.53   54.45
 -11   5  59   29.85   41.89
   5   6  59   26.52   28.20
 -11   5  56   66.08   55.57
   5   6  56  172.64   59.99
 -11   5  53   11.73   31.84
   5   6  53   10.71   19.97
 -11   5  50   54.67   46.90
   5   6  50   45.22   36.22
 -11   5  47  -12.66   15.86
   5   6  47    6.35   21.88
  -5  -6 -47  -19.23   25.06
 -11   5  44  200.23   58.65
   5   6  44  108.05   44.35
  -5  -6 -44  189.26   44.26
 -11   5  41   42.03   27.80
   5   6  41   51.45   24.12
  -5  -6 -41   62.96   30.68
 -11   5  38   25.29   20.68
   5   6  38   -4.73   25.28
  -5  -6 -38  -14.72   17.57
   5   6  35  -10.31   28.51
 -11   5  35   12.36   13.03
  -5  -6 -35   10.78   15.87
 -11   5  32    8.00   17.87
  -5  -6 -32  -43.65   29.62
 -11   5  29    5.02   24.30
  -5  -6 -29   27.95   15.01
 -11   5  26    8.36   15.04
  -5  -6 -26  -21.89   25.61
  -5  -6 -23   -1.95   22.61
 -11   5  23   10.04   19.66
  -5  -6 -20   71.02   31.23
  -5  -6 -20   80.30   33.08
 -11   5  20   62.54   34.43
  -5  -6 -17  419.27   73.43
 -11   5  17  483.65   85.61
  -5  -6 -17  314.64   57.90
  -5  -6 -14   78.11   29.04
 -11   5  14   81.48   38.89
  -5  -6 -14   60.13   25.49
  -5  -6 -11  -13.56   20.79
 -11   5  11   30.77   25.12
  -5  -6 -11  -12.21   17.32
  -5  -6  -8  116.54   41.33
  -5  -6  -8   61.97   17.39
 -11   5   8  142.31   45.48
  -5  -6  -5   15.11   13.34
  -5  -6  -5   -4.68   15.95
 -11   5   5    6.54   17.96
  -5  -6  -2   18.11   18.60
  -5  -6  -2  -31.86   20.74
 -11   5   2    4.65   13.42
  -5  -6   1   49.47   28.49
  -5  -6   1   19.39    9.33
 -11   5  -1   49.22   24.51
  -5  -6   4   44.39   33.11
 -11   5  -4   53.45   25.06
  -5  -6   4   34.09   10.24
  -5  -6   7   -1.85   19.20
  -5  -6   7  -16.44   10.78
 -11   5  -7    3.23   18.43
  -5  -6  10   77.20   37.47
  -5  -6  10   17.04    7.91
 -11   5 -10   48.21   23.06
  -5  -6  13  133.52   48.18
  -5  -6  13   59.27   11.96
 -11   5 -13  116.42   38.18
  -5  -6  16    3.40   14.05
 -11   5 -16   17.09   19.05
  -5  -6  19  189.81   56.03
 -11   5 -19  237.90   57.36
  -5  -6  22   12.61   22.77
 -11   5 -22   10.98   24.48
 -11   5 -25  228.51   56.22
  -5  -6  25  182.80   57.69
  -6  11  25  206.17   51.88
 -11   5 -28   20.12   22.77
  -5  -6  28   -9.22   19.88
  -6  11  28   40.19   27.73
  11  -5  28   43.95   20.64
 -11   5 -31  196.12   51.73
  -5  -6  31  238.08   67.08
  -6  11  31  230.69   55.66
  11  -5  31  253.90   49.95
 -11   5 -34  142.74   42.39
  -5  -6  34  141.23   53.82
  -6  11  34  157.96   46.19
  11  -5  34  186.31   44.04
  -5  -6  37   34.03   35.09
 -11   5 -37    1.87   16.17
  -6  11  37   23.04   24.04
  11  -5  37   23.07   17.73
   5   6 -40   44.15   24.44
  -5  -6  40    2.95   15.94
 -11   5 -40   -7.78   11.96
  -6  11  40   16.26   18.63
  11  -5  40   40.70   28.25
   5   6 -43   56.54   27.00
  -5  -6  43   -6.07   22.51
 -11   5 -43   24.11   21.85
  -6  11  43   35.82   17.81
  11  -5  43    2.91   17.00
   5   6 -46   36.63   23.59
  -5  -6  46  -26.08   27.83
 -11   5 -46  -23.47   20.16
  -6  11  46  -10.54   23.32
  11  -5  46    1.40   11.95
   5   6 -49   27.21   22.04
  -5  -6  49   11.92   31.39
 -11   5 -49   17.37   17.21
  -6  11  49   32.12   28.73
  11  -5  49   40.09   21.57
   5   6 -52  114.81   37.95
 -11   5 -52   19.82   14.79
  -5  -6  52  -18.77   19.96
  -6  11  52   96.73   41.39
  11  -5  52   35.96   23.26
 -11   5 -55  -16.57   22.29
   5   6 -55   40.45   31.36
  -5  -6  55  -22.11   30.93
  -6  11  55  -26.61   24.92
  -6  11  55  -19.64   15.02
  11  -5  55    1.21   15.08
   5   6 -58   70.35   33.70
  -5  -6  58   76.14   41.81
  -6  11  58  145.35   52.84
  -6  11  58   68.37   27.75
  11  -5  58   87.30   33.73
 -11   5 -58   26.90   19.02
  -5  -6  61   65.23   41.80
   5   6 -61   65.36   36.15
  -6  11  61  -21.70   30.59
  11  -5  61   51.35   32.32
 -11   5 -61   24.29   23.45
   5   6 -64   19.47   21.88
  -6  11  64   42.72   39.82
  11  -5  64   58.29   31.84
 -11   5 -64   61.65   29.56
  -5  -6  64   -5.19   28.25
   5   6 -67   52.95   28.44
  -6  11  67   16.56   18.48
  -5  -6  67   -9.23   41.04
   5   6 -70   10.87   20.88
  -6  11  70   -1.23   20.60
  -5  -6  70   38.38   33.71
   5   6 -73   77.43   44.41
  -6  11  73   82.14   39.04
  -5  -6  73   45.55   35.29
   5   6 -76   11.74   28.85
  -6  11  76   -1.79   22.91
   5   6 -79   22.62   27.47
  -5  -6  79  -44.55   45.95
 -11   4  78   35.03   31.63
 -11   4  78    8.00   27.01
 -11   4  75   30.11   35.78
 -11   4  75   11.46   32.52
   4   7  75   10.40   25.44
 -11   4  72   25.83   22.91
   4   7  72    9.20   19.47
 -11   4  72   24.74   24.38
 -11   4  69   49.83   29.84
   4   7  69   16.99   22.62
 -11   4  69   13.11   37.35
 -11   4  66  121.90   56.65
   4   7  66   50.84   37.07
 -11   4  66   40.90   36.44
   4   7  63   37.86   28.80
 -11   4  63   24.40   31.91
   4   7  60   79.05   41.67
 -11   4  60   65.69   40.54
   4   7  57   12.01   17.25
 -11   4  57   35.87   43.03
 -11   4  54   73.95   46.64
   4   7  54   86.06   42.16
 -11   4  51   48.60   39.89
   4   7  51   30.08   42.78
 -11   4  48  337.36   80.60
   4   7  48  372.14   84.13
  -4  -7 -45   80.27   36.88
   4   7  45   74.15   41.42
 -11   4  42   51.89   38.84
   4   7  42  -16.21   27.12
  -4  -7 -42   19.98   17.90
 -11   4  39   37.64   28.08
   4   7  39   -1.22   17.82
  -4  -7 -39   28.01   23.30
 -11   4  36  -24.72   18.03
   4   7  36  -36.97   31.14
  -4  -7 -36   33.89   27.39
 -11   4  33   36.39   24.58
  -4  -7 -33  -10.48   23.98
   4   7  33  -41.51   34.97
 -11   4  30   30.57   27.82
  -4  -7 -30    5.86   22.22
 -11   4  27   -6.53   22.13
  -4  -7 -27  -42.28   26.06
  -4  -7 -24   39.68   24.76
 -11   4  24   23.44   24.41
  -4  -7 -24   31.42   20.44
  -4  -7 -21  351.23   60.56
 -11   4  21  393.71   76.68
  -4  -7 -21  388.23   70.99
  -4  -7 -18   38.35   27.61
 -11   4  18   22.66   21.38
  -4  -7 -18    4.74   14.47
  -4  -7 -15   -4.48   13.39
 -11   4  15   11.41   18.97
  -4  -7 -15  -18.71   27.24
  -4  -7 -12  247.15   45.34
 -11   4  12  315.02   69.22
  -4  -7 -12  297.29   66.26
  -4  -7  -9  159.90   35.20
 -11   4   9  194.95   53.90
  -4  -7  -9  246.66   60.86
  -4  -7  -6  101.88   26.35
 -11   4   6  127.30   41.86
  -4  -7  -6   93.25   38.99
  -4  -7  -3   69.52   22.37
 -11   4   3   10.27   13.32
  -4  -7  -3   52.24   34.15
  -4  -7   0  149.81   48.49
 -11   4   0  176.46   47.03
  -4  -7   3    3.94   17.73
 -11   4  -3   30.39   20.06
  -4  -7   6    5.73   16.46
 -11   4  -6  -10.22   19.11
  -4  -7   9  124.75   43.05
 -11   4  -9   54.06   27.06
  -4  -7  12   26.14   20.45
 -11   4 -12   41.86   24.28
  -4  -7  15   46.37   28.52
 -11   4 -15   63.33   28.91
  -4  -7  18   42.37   28.45
 -11   4 -18   71.58   32.87
  -4  -7  21  250.22   66.25
 -11   4 -21  279.77   60.56
  -4  -7  24   23.50   24.82
 -11   4 -24   52.94   26.40
  -4  -7  27  406.04   85.64
 -11   4 -27  398.37   71.65
  -4  -7  30  258.86   70.84
 -11   4 -30  172.88   47.90
  -4  -7  33   54.95   39.10
   4   7 -33   83.20   23.92
 -11   4 -33  152.45   47.59
  11  -4  33   63.94   30.30
  -4  -7  36    4.54   20.66
   4   7 -36   30.57   18.96
 -11   4 -36    1.82   15.64
  11  -4  36   -0.32   12.06
   4   7 -39    6.48   16.53
  11  -4  39   74.84   32.59
 -11   4 -39   55.67   27.71
  -7  11  39    9.05   16.61
  -4  -7  39   43.22   32.06
   4   7 -42   46.78   23.85
 -11   4 -42   41.41   25.34
  11  -4  42   71.79   32.67
  -7  11  42   29.10   29.78
  -4  -7  42   38.42   37.65
 -11   4 -45   24.56   16.67
  -7  11  45   10.40   22.43
  11  -4  45   25.63   25.19
  -4  -7  45   34.13   35.36
   4   7 -45   17.84   18.36
 -11   4 -48   24.41   22.12
  -7  11  48  -35.57   28.69
  11  -4  48  -18.07   19.97
  -4  -7  48  -24.17   34.27
   4   7 -48  -12.22   19.19
  -7  11  51  -12.24   19.27
 -11   4 -51  -41.66   28.18
  -7  11  51  -31.09   35.24
  11  -4  51    2.87   20.52
  -4  -7  51  -11.64   21.75
   4   7 -51    7.94   14.49
 -11   4 -54   53.50   24.09
  -7  11  54   28.95   23.16
  -7  11  54   61.43   34.46
  11  -4  54   45.76   18.35
  -4  -7  54   18.45   22.17
   4   7 -54   33.56   22.83
 -11   4 -57    6.15   12.63
  -7  11  57   26.12   27.40
  11  -4  57  -24.39   26.74
  -7  11  57    7.55   13.36
   4   7 -57    2.24   16.00
 -11   4 -60   22.89   13.72
  -7  11  60   13.11   23.14
  -7  11  60   21.94   11.35
  11  -4  60   20.95   22.85
  -4  -7  60  -10.24   32.71
   4   7 -60   14.60   16.05
  -7  11  63   19.30   18.94
  -4  -7  63    7.90   23.31
  -7  11  66  114.65   54.17
  11  -4  66   62.24   32.64
  -4  -7  66   95.52   52.63
   4   7 -66   36.65   28.68
  -7  11  69   42.90   29.02
  11  -4  69  103.72   43.22
  -4  -7  69   97.32   52.29
   4   7 -69   53.53   37.72
  -7  11  72   -6.99   21.31
  11  -4  72  -40.50   23.88
  -4  -7  72   26.44   34.15
   4   7 -72  -47.15   40.00
  -7  11  75   79.13   38.07
  11  -4  75   84.06   42.81
  -4  -7  75  130.58   65.48
   4   7 -75  107.32   47.47
  -4  -7  78   91.42   60.70
   4   7 -78   59.09   39.36
 -11   3  76  -16.54   30.58
 -11   3  76   13.13   30.77
 -11   3  73   37.26   40.68
 -11   3  73   31.58   33.38
   3   8  73  -40.81   39.84
 -11   3  70   13.20   28.80
   3   8  70   27.96   32.11
 -11   3  67    0.41   16.48
   3   8  67   15.39   32.56
 -11   3  67  -27.34   22.76
 -11   3  64   22.75   27.08
   3   8  64   31.57   27.44
 -11   3  64   21.86   31.02
   3   8  61   13.51   28.97
 -11   3  61   26.40   34.55
   3   8  58   74.83   43.68
 -11   3  58   94.75   49.28
   3   8  55  -30.15   16.73
 -11   3  55    2.41   26.47
   3   8  52  230.57   69.07
 -11   3  52  135.80   60.47
   3   8  49   31.97   27.63
 -11   3  49   24.15   35.16
 -11   3  46   16.35   19.82
   3   8  46   21.01   23.03
 -11   3  43   41.30   30.06
  -3  -8 -43   31.53   21.20
   3   8  43   -7.91   18.18
 -11   3  40   53.37   34.61
  -3  -8 -40   48.78   20.70
   3   8  40   26.78   15.78
 -11   3  37  -29.36   30.96
   3   8  37  -32.60   24.44
  -3  -8 -37   -2.47   11.18
 -11   3  34   65.59   33.38
  -3  -8 -34   27.81   22.03
   3   8  34  -24.73   24.93
   3   8  31   25.89   12.73
 -11   3  31   30.16   20.67
  -3  -8 -31   63.44   33.44
 -11   3  28   27.66   24.84
  -3  -8 -28   14.01   13.82
 -11   3  25  230.77   62.24
  -3  -8 -25  223.25   54.56
 -11   3  22    9.47   15.51
  -3  -8 -22  -33.22   33.72
 -11   3  19   27.31   21.85
  -3  -8 -19  -11.83   20.39
 -11   3  16  158.39   50.68
  -3  -8 -16  133.14   41.73
 -11   3  13  190.17   57.98
  -3  -8 -13  214.62   54.02
 -11   3  10   85.52   36.79
  -3  -8 -10  117.72   42.21
 -11   3   7   14.00   19.21
  -3  -8  -7   59.94   32.74
 -11   3   4  292.81   67.05
  -3  -8  -4  341.49   71.03
 -11   3   1   62.73   36.28
  -3  -8  -1   17.01   28.38
 -11   3  -2   38.88   28.31
  -3  -8   2   -5.00   16.24
 -11   3  -5   50.94   29.32
  -3  -8   5   55.02   30.44
 -11   3  -8   59.02   28.74
  -3  -8   8   62.75   32.23
 -11   3 -11   44.45   25.20
  -3  -8  11   18.53   21.06
 -11   3 -14  124.85   41.55
  -3  -8  14   95.49   39.00
 -11   3 -17  216.69   54.80
  -3  -8  17  196.84   56.14
 -11   3 -20  -32.50   28.16
  -3  -8  20   -4.22   20.11
 -11   3 -23   93.68   35.73
  -3  -8  23  144.63   46.68
   3   8 -26   16.65   12.70
 -11   3 -26   53.72   29.69
 -11   3 -29  109.52   38.84
  -3  -8  29   97.06   44.76
   3   8 -29   47.45   16.18
 -11   3 -32  -43.34   28.20
  -3  -8  32   20.35   22.38
   3   8 -32  -13.26   13.96
  11  -3  35   63.73   28.52
 -11   3 -35  141.87   43.60
  -3  -8  35   93.30   42.92
   3   8 -35   98.94   28.81
  11  -3  38   84.97   31.22
 -11   3 -38   82.08   34.60
  -3  -8  38  112.91   45.79
   3   8 -38   85.07   29.82
  -8  11  41   36.05   30.93
  11  -3  41  -12.95   18.71
 -11   3 -41  -31.01   23.87
  -3  -8  41    5.01   23.84
   3   8 -41  -10.58   20.29
  -8  11  44   41.91   26.93
  11  -3  44   18.80   24.35
 -11   3 -44   -8.38   22.00
  -3  -8  44    9.38   23.10
   3   8 -44   26.51   21.32
  -8  11  47    7.20   22.17
  11  -3  47   20.31   23.71
 -11   3 -47   33.02   22.26
  -8  11  47  -41.10   32.39
  -3  -8  47   -7.97   19.13
   3   8 -47  -13.60   16.97
  -8  11  50  -40.52   29.13
  -8  11  50   -0.69   27.23
  11  -3  50   22.42   27.76
 -11   3 -50    5.37   13.90
  -3  -8  50  -18.55   29.86
   3   8 -50   -9.11   14.16
  -8  11  53  -26.09   21.79
  11  -3  53    2.22   14.94
 -11   3 -53   -5.25   17.33
  -3  -8  53  -21.45   18.42
   3   8 -53    3.81   13.22
  -8  11  53  -25.83   25.72
  -8  11  56   53.57   30.87
  -8  11  56   19.49   23.93
  11  -3  56   29.93   25.71
 -11   3 -56  -49.00   33.27
  -3  -8  56   11.29   21.76
   3   8 -56   52.53   26.55
  -8  11  59   46.59   26.20
  -8  11  59    9.20   25.03
 -11   3 -59  -18.57   26.49
  11  -3  59   -5.12   17.93
  -3  -8  59   31.53   27.33
   3   8 -59   -1.79   14.98
  -8  11  62  118.67   51.00
  11  -3  62  149.06   52.11
  -8  11  62  155.27   46.98
  -3  -8  62  191.46   70.55
   3   8 -62  149.26   48.81
  -8  11  65   53.49   37.25
  11  -3  65   98.00   39.18
  -3  -8  65  167.35   59.54
   3   8 -65   45.57   33.20
  -8  11  68  -18.18   18.11
  11  -3  68   26.46   21.21
  -8  11  71   32.00   30.42
  11  -3  71   85.75   45.28
  -3  -8  71   57.40   45.46
   3   8 -71   65.02   32.92
  -8  11  74   29.22   24.32
  11  -3  74   45.96   36.03
  -3  -8  74   30.42   26.04
   3   8 -74   11.42   27.21
  11  -3  77   86.83   36.54
  -3  -8  77    8.70   21.77
 -11   2  74   37.16   32.93
 -11   2  74  105.08   52.80
 -11   2  71  -22.48   32.58
 -11   2  71   49.00   27.07
   2   9  71   76.66   43.17
 -11   2  68   48.99   37.92
 -11   2  68    4.20   29.87
   2   9  68   25.51   15.41
 -11   2  65   98.24   49.77
 -11   2  65   60.11   42.50
   2   9  65   93.18   45.46
 -11   2  62   80.71   44.37
 -11   2  62   81.38   44.19
   2   9  62   62.22   40.57
   2   9  59    6.20   16.45
 -11   2  59  -11.15   24.40
   2   9  56   76.92   41.47
 -11   2  56   65.51   40.91
   2   9  53    2.63   17.15
 -11   2  53   58.33   44.56
   2   9  50   20.48   22.69
 -11   2  50  -14.26   20.91
   2   9  47   27.13   29.54
 -11   2  47   45.84   36.17
   2   9  44   55.48   33.58
 -11   2  44   32.17   28.36
   2   9  41   24.04   24.20
 -11   2  41  -34.04   37.46
  -2  -9 -38   69.17   33.96
   2   9  38  -19.69   29.40
 -11   2  38   29.85   33.65
 -11   2  35  106.25   47.69
  -2  -9 -35   85.83   35.94
   2   9  35   68.32   31.64
 -11   2  32   10.73   18.11
  -2  -9 -32   27.21   21.94
   2   9  32   14.41   18.26
   2   9  29   35.74   16.44
  -2  -9 -29   68.84   32.39
 -11   2  26   29.88   22.04
  -2  -9 -26  -13.30   15.12
   2   9  26  -16.45   22.30
 -11   2  23  146.42   48.84
  -2  -9 -23  173.24   48.82
 -11   2  20  -40.40   32.13
  -2  -9 -20   14.92   17.54
 -11   2  17  188.60   56.59
  -2  -9 -17  168.87   49.02
 -11   2  14  105.57   46.02
  -2  -9 -14   98.37   40.97
 -11   2  11    7.59   24.70
  -2  -9 -11   27.25   28.18
 -11   2   8   32.45   24.90
  -2  -9  -8   77.51   35.77
 -11   2   5  -18.42   20.88
  -2  -9  -5   20.02   26.84
 -11   2   2   25.12   19.00
  -2  -9  -2   10.13   15.73
 -11   2  -1   32.72   29.79
  -2  -9   1   22.23   27.72
 -11   2  -4  206.75   57.76
  -2  -9   4  149.23   50.77
 -11   2  -7    2.55   17.73
  -2  -9   7   24.55   19.81
 -11   2 -10  125.02   43.52
  -2  -9  10   90.81   34.31
 -11   2 -13  118.78   44.01
  -2  -9  13   66.18   33.64
 -11   2 -16   43.25   28.44
  -2  -9  16   23.11   21.96
 -11   2 -19   17.64   13.26
  -2  -9  19    4.71   21.97
 -11   2 -22   41.04   32.56
  -2  -9  22   77.12   40.78
 -11   2 -25  253.35   60.94
  -2  -9  25  231.74   66.44
  -2  -9  28  -17.93   24.75
   2   9 -28  -24.03   13.50
 -11   2 -31  114.91   42.87
  -2  -9  31  103.27   46.00
   2   9 -31   73.17   21.03
 -11   2 -34   22.36   21.01
  -2  -9  34   42.88   31.47
   2   9 -34   23.07   15.38
  11  -2  37  -18.21   23.07
 -11   2 -37   24.66   26.07
  -2  -9  37  -31.03   30.05
   2   9 -37    0.54   17.48
 -11   2 -40   61.72   31.49
  11  -2  40    3.10   12.85
  -9  11  40   27.80   22.82
  -2  -9  40   12.03   17.42
   2   9 -40   34.12   19.83
  -9  11  43  -14.27   21.11
 -11   2 -43   21.11   20.36
  11  -2  43   28.71   23.64
  -2  -9  43  -41.13   33.75
   2   9 -43    3.70   12.46
 -11   2 -46   34.44   28.69
  -9  11  46   16.38   27.75
  11  -2  46   -4.84   20.87
  -2  -9  46   -9.92   18.53
   2   9 -46  -14.84   20.46
 -11   2 -49  -26.80   23.75
  -9  11  49   24.50   32.79
  11  -2  49    6.34   18.76
  -2  -9  49  -34.39   34.63
   2   9 -49   17.80   12.47
  -9  11  49  -38.52   31.51
 -11   2 -52  158.11   44.10
  -9  11  52  211.68   65.10
  -9  11  52  228.98   61.94
  11  -2  52  186.99   60.27
  -2  -9  52  110.41   50.13
   2   9 -52  110.30   39.68
  -9  11  55  -11.30   14.50
 -11   2 -55   42.50   25.51
  -9  11  55  -28.78   20.68
  11  -2  55    6.33   18.02
  -2  -9  55   19.92   21.68
   2   9 -55   22.96   20.63
  -9  11  58  104.21   47.37
  11  -2  58   84.87   44.04
  -2  -9  58  104.11   46.10
   2   9 -58   53.12   29.32
  -9  11  58  104.32   42.32
  -9  11  61    5.27   22.40
  -9  11  61   30.23   26.43
  11  -2  61   58.48   47.67
  -2  -9  61   93.05   49.70
   2   9 -61   16.63   18.03
  -9  11  64   37.03   30.22
  -9  11  64   55.15   33.24
  11  -2  64   26.52   29.65
  -2  -9  64    8.82   26.64
   2   9 -64  -14.89   27.23
  -9  11  67   35.09   28.23
  11  -2  67   14.35   27.81
  -2  -9  67    8.77   29.95
  -9  11  70  -17.35   24.12
  11  -2  70  -17.27   25.96
  -2  -9  70   43.81   39.03
  -2  -9  73   32.57   31.98
  11  -2  73    6.96   23.79
 -11   1  69  173.81   63.33
   1  10  69  175.07   63.94
 -11   1  66  168.11   68.52
 -11   1  66   89.02   49.10
   1  10  66   64.25   39.93
 -11   1  63   16.03   29.46
 -11   1  63   13.53   33.49
   1  10  63   20.86   26.62
 -11   1  60   73.16   46.41
 -11   1  60    8.55   25.73
   1  10  60   33.53   31.95
 -11   1  57   44.58   35.73
   1  10  57   -1.80   15.05
 -11   1  54   87.70   46.32
   1  10  54   71.21   41.06
   1  10  51   -4.89   24.19
 -11   1  51  -21.85   29.69
   1  10  48   10.06   13.63
 -11   1  48    1.44   19.34
   1  10  45   -7.00   13.66
 -11   1  45  -17.31   37.63
   1  10  42   28.64   21.62
 -11   1  42   49.34   34.42
   1  10  39   78.42   35.71
 -11   1  39   49.45   29.36
   1  10  36   67.16   35.08
 -11   1  36   -4.73   22.66
   1  10  33   49.47   30.67
 -11   1  33   87.80   45.33
  -1 -10 -30   61.34   39.43
   1  10  30   57.75   27.85
 -11   1  30   52.43   33.74
  -1 -10 -27  451.41   83.81
   1  10  27  338.50   71.54
 -11   1  27  353.12   83.87
  -1 -10 -24   66.95   36.70
   1  10  24   17.14   14.05
 -11   1  24   77.28   43.36
   1  10  21  211.33   52.33
  -1 -10 -21  143.98   47.00
 -11   1  21  178.37   60.94
  -1 -10 -18  124.33   43.28
 -11   1  18  155.00   54.15
 -11   1  15   -1.51   20.15
  -1 -10 -15   64.30   34.70
 -11   1  12  -36.16   29.88
  -1 -10 -12   15.29   17.09
 -11   1   9  -15.13   21.91
  -1 -10  -9   11.26   15.47
 -11   1   6  -31.43   30.16
  -1 -10  -6    7.94   15.86
 -11   1   3  -17.25   25.25
  -1 -10  -3    5.23   12.60
 -11   1   0   42.47   29.10
  -1 -10   0   32.68   15.82
 -11   1  -3   21.75   24.54
  -1 -10   3   -2.30   16.56
 -11   1  -6  190.82   52.69
  -1 -10   6  232.34   60.82
 -11   1  -9  110.33   43.23
  -1 -10   9   94.16   40.61
 -11   1 -12  109.97   41.79
  -1 -10  12   90.76   39.90
 -11   1 -15    3.86   16.23
  -1 -10  15   14.12   14.96
 -11   1 -18   97.22   35.91
  -1 -10  18  125.03   47.51
 -11   1 -21  333.99   71.99
  -1 -10  21  236.07   62.41
 -11   1 -24    5.85   20.08
  -1 -10  24   -9.96   26.64
 -11   1 -27  -12.58   17.71
  -1 -10  27    8.93   15.23
 -11   1 -30   -3.08   14.68
  -1 -10  30   13.14   19.03
 -11   1 -33   -4.06   20.67
 -10  11  33   -7.15   17.44
 -11   1 -36   10.39   23.81
 -10  11  36   75.04   41.58
  -1 -10  36   26.90   27.07
 -11   1 -39   36.77   25.86
  11  -1  39  -37.37   31.57
 -10  11  39   49.93   30.83
  -1 -10  39   19.20   20.79
 -11   1 -42   44.35   32.31
 -10  11  42   69.12   40.91
  11  -1  42  -10.20   27.84
  -1 -10  42   63.30   43.27
 -11   1 -45   60.85   35.43
  11  -1  45    4.06   23.31
 -10  11  45   30.74   23.63
  -1 -10  45   66.71   51.07
 -11   1 -48  377.81   78.59
 -10  11  48  419.96   86.81
  11  -1  48  250.48   70.74
  -1 -10  48  311.34   82.64
 -11   1 -51   45.06   32.91
 -10  11  51   -6.36   21.73
  11  -1  51    4.24   23.86
  -1 -10  51  -18.61   30.09
 -10  11  54  227.41   70.76
  11  -1  54  165.44   61.90
  -1 -10  54  151.49   58.08
 -10  11  54  116.32   55.51
 -10  11  57   38.70   43.85
  11  -1  57   10.51   24.69
 -10  11  57   19.88   15.30
  -1 -10  57   36.93   30.11
 -10  11  60  163.65   66.31
 -10  11  60  146.57   53.05
  11  -1  60  140.58   51.93
  -1 -10  60  178.52   68.34
 -10  11  63   25.27   20.15
 -10  11  63   36.54   40.30
  11  -1  63   25.05   28.13
  -1 -10  63   43.25   42.76
 -10  11  66  -26.26   31.96
  -1 -10  66  -27.92   36.01
  11  -1  66  -11.37   15.96
  -1 -10  69  -25.26   30.87
  11  -1  69   43.32   34.07
 -11   0  67   36.15   37.15
   0  11  67    8.01   20.91
 -11   0  64   16.13   27.89
   0  11  64   32.54   42.09
 -11   0  61  174.31   67.54
   0  11  61   97.17   48.74
 -11   0  58  164.21   65.64
   0  11  58  137.76   51.51
 -11   0  55   44.81   42.21
   0  11  55   -4.19   17.59
 -11   0  52   42.17   35.91
   0  11  52  -17.17   17.32
 -11   0  49  -15.11   24.18
   0  11  49  -20.41   30.46
 -11   0  46   -5.56   17.09
   0  11  46   12.11   17.89
 -11   0  43   26.83   34.94
   0  11  43   56.62   28.09
   0  11  40  -31.85   25.22
 -11   0  40  -32.50   32.58
   0  11  37   31.63   25.96
 -11   0  37   31.83   31.69
   0  11  34  114.19   48.05
 -11   0  34  131.44   61.17
   0  11  31  242.31   59.88
 -11   0  31  249.29   76.01
   0  11  28   12.98   25.97
 -11   0  28   10.84   26.84
   0  11  25  101.53   39.47
 -11   0  25  137.67   55.43
   0  11  22   52.07   24.26
 -11   0  22   72.72   43.15
   0 -11 -19  196.43   57.69
   0  11  19  232.17   54.79
 -11   0  19  152.54   56.05
   0 -11 -16   18.96   25.60
   0  11  16   14.74   11.99
 -11   0  16   15.43   26.45
   0 -11 -13   33.65   28.94
 -11   0  13  -30.95   31.73
   0 -11 -10    2.13   13.29
 -11   0  10  -44.87   31.63
   0 -11  -7  -18.86   25.91
 -11   0   7  -33.81   32.69
   0 -11  -4   13.42   21.39
 -11   0   4   22.79   29.53
   0 -11  -1   10.97   14.20
 -11   0   1  -22.96   20.52
   0 -11   2  221.76   60.22
 -11   0  -2  268.90   68.50
   0 -11   5   72.66   40.87
 -11   0  -5   99.67   44.36
   0 -11   8   85.43   42.29
 -11   0  -8   79.41   36.74
   0 -11  11   16.79   25.29
 -11   0 -11   52.13   30.94
   0 -11  14  113.65   44.26
 -11   0 -14  250.39   67.42
 -11   0 -17  585.43  101.55
   0 -11  17  438.98   88.83
   0 -11  20   94.28   49.11
 -11   0 -20  106.94   43.73
   0 -11  23  -20.02   22.93
 -11   0 -23  -14.41   24.36
 -11  11  26    3.66   21.11
   0 -11  26   31.57   30.77
 -11   0 -26    7.01   18.36
 -11  11  29   80.62   36.78
   0 -11  29   -2.70   18.07
 -11   0 -29   84.43   39.07
 -11  11  32   17.52   25.14
   0 -11  32  -22.16   24.12
 -11   0 -32    5.11   19.74
 -11  11  35   73.23   39.06
   0 -11  35  105.32   53.62
 -11   0 -35    4.89   17.17
   0 -11  38   49.60   37.88
 -11  11  38   39.81   27.07
 -11   0 -38  -16.75   19.02
 -11  11  41    2.93   18.35
  11   0  41   59.76   38.24
   0 -11  41   31.15   38.23
 -11   0 -41   43.99   31.89
 -11  11  44  237.36   68.77
  11   0  44  122.77   53.28
   0 -11  44  101.08   46.36
 -11   0 -44  256.96   63.23
 -11  11  47  -15.04   18.99
  11   0  47    2.17   17.29
   0 -11  47  -17.00   18.21
 -11   0 -47   35.46   27.46
  11   0  50   51.95   34.46
   0 -11  50   36.39   39.85
 -11  11  50   80.57   41.29
  11   0  53   51.82   42.61
   0 -11  53   15.05   33.54
 -11  11  53   -7.84   31.51
 -11  11  56  208.07   69.73
 -11  11  56  265.52   78.66
  11   0  56  229.81   74.65
   0 -11  56  287.24   83.27
 -11  11  59   45.92   23.75
 -11  11  59   19.92   35.98
   0 -11  59    8.78   17.91
  11   0  59    9.54   21.08
 -11  11  62   15.68   20.82
 -11  11  62   60.15   43.04
   0 -11  62  -37.13   48.89
  11   0  62   29.20   24.77
  11   0  65   -2.97   21.75
 -11  11  65   35.38   32.76
  11   1  61   28.07   34.07
 -12  11  61  -10.83   39.22
 -12  11  58   30.98   23.73
  11   1  58  127.11   59.13
 -12  11  55   16.86   34.70
   1 -12  55  -44.66   41.00
  11   1  55   34.48   32.73
   1 -12  52  192.81   65.91
 -12  11  52  193.57   62.83
  11   1  52  161.67   64.96
 -12  11  49   24.37   35.41
   1 -12  49    6.84   30.60
  11   1  49   -8.99   15.96
  11   1  46   -4.55   16.06
   1 -12  46   55.66   45.61
 -12  11  46  -24.41   30.32
  11   1  43   19.49   21.08
   1 -12  43   43.42   33.30
 -11  -1 -43   40.26   22.22
 -12  11  43   64.33   34.82
 -12  11  40   39.66   35.14
  11   1  40  -23.92   27.01
   1 -12  40  -17.04   24.71
 -11  -1 -40   15.76   17.61
 -12  11  37   17.67   25.86
   1 -12  37   25.04   26.71
 -11  -1 -37   11.44   25.29
 -12  11  34   32.64   32.02
   1 -12  34    4.45   15.36
 -11  -1 -34   42.40   30.55
   1 -12  31   19.54   25.57
 -11  -1 -31   -6.79   20.62
 -12  11  31   25.13   26.64
 -12  11  28   25.40   24.11
   1 -12  28   17.97   28.21
 -11  -1 -28   27.14   27.51
 -12  11  25  203.19   65.05
   1 -12  25  194.59   59.94
 -11  -1 -25  214.78   65.70
   1 -12  22   21.93   28.13
 -11  -1 -22   93.49   46.10
 -12  11  22   51.90   31.20
 -12  11  19   -3.28   20.64
   1 -12  19    1.23   17.30
 -12  11  16   71.69   37.04
   1 -12  16   85.08   44.77
 -11  -1 -16  102.89   46.21
 -12  11  13  264.07   73.25
   1 -12  13  207.63   64.79
 -11  -1 -13  280.04   74.39
   1 -12  10  166.34   56.90
 -11  -1 -10  158.86   57.36
   1 -12   7   15.12   19.43
 -11  -1  -7   66.15   36.90
   1 -12   4   38.81   23.49
 -11  -1  -4   94.06   44.91
   1 -12   1   -1.88   28.35
 -11  -1  -1    3.86   26.12
   1 -12  -2  -19.52   29.68
 -11  -1   2   37.28   29.65
   1 -12  -5  -21.64   22.54
 -11  -1   5  -20.94   29.93
  -1  12   8   14.36   13.04
 -11  -1   8    5.12   22.28
  -1  12  11  -10.24   15.99
 -11  -1  11  -28.97   33.59
  -1  12  14   37.73   25.40
 -11  -1  14   -2.15   21.76
  -1  12  17    1.72   16.59
 -11  -1  17   15.53   17.49
  -1  12  20   24.69   24.04
 -11  -1  20   17.04   24.14
  -1  12  23  187.33   53.76
 -11  -1  23  151.18   58.34
 -11  -1  26   43.48   41.02
  -1  12  26   65.55   34.87
 -11  -1  29   38.51   37.82
  -1  12  29   64.62   27.90
 -11  -1  32   55.38   33.09
  -1  12  32    3.18   12.36
 -11  -1  35    7.49   18.38
  -1  12  35   43.95   29.04
 -11  -1  38   64.50   43.23
  -1  12  38   92.67   38.01
 -11  -1  41   16.88   26.20
  -1  12  41   25.81   16.02
 -11  -1  44   -3.14   16.66
  -1  12  44   39.41   29.88
 -11  -1  47  -23.39   26.04
  -1  12  47  -17.79   23.94
 -11  -1  50   26.36   36.56
  -1  12  50   58.71   37.53
 -11  -1  53   28.52   46.33
  -1  12  53  -31.40   32.51
 -11  -1  56   67.49   55.03
  -1  12  56   27.41   28.33
  -1  12  59    2.19   20.48
 -12  10  65   76.21   33.91
  10   2  65   41.01   38.46
  10   2  62    6.42   24.66
 -12  10  62    0.34   16.39
   2 -12  59  -21.55   25.06
  10   2  59   27.55   34.84
 -12  10  59   -3.89   22.25
   2 -12  56   85.33   46.48
  10   2  56  138.89   59.32
 -12  10  56   99.92   49.94
 -12  10  53    0.04   15.45
  10   2  53   44.33   38.98
 -12  10  50   25.94   27.46
   2 -12  50   44.94   25.54
  10   2  50   31.24   35.60
 -12  10  47  -29.77   26.67
  10   2  47  -43.87   32.37
   2 -12  47  -26.62   32.09
 -10  -2 -44   53.61   32.47
 -12  10  44   62.02   34.77
   2 -12  44   42.42   34.60
  10   2  44  -13.28   31.23
 -10  -2 -41  -34.80   29.25
  10   2  41   -8.96   29.42
   2 -12  41  -31.84   27.00
 -12  10  41   44.38   30.58
 -10  -2 -38   28.27   23.00
   2 -12  38   41.11   34.79
 -12  10  38   30.36   27.78
 -12  10  35   21.26   29.06
 -10  -2 -35   36.12   20.64
   2 -12  35   33.04   25.88
 -12  10  32  -20.34   26.54
   2 -12  32   -6.77   19.03
 -10  -2 -32   -9.77   22.72
 -12  10  29   72.74   40.65
   2 -12  29   63.12   37.36
 -10  -2 -29   88.61   43.77
   2 -12  26   14.18   18.22
 -12  10  26   23.30   25.88
 -10  -2 -26   20.61   24.92
   2 -12  23    0.32   28.02
 -10  -2 -23   16.30   29.50
 -12  10  23   52.10   32.55
 -12  10  20    2.82   15.78
   2 -12  20   46.85   27.24
 -10  -2 -20   67.81   33.86
 -12  10  17  264.27   67.32
   2 -12  17  148.61   53.35
 -10  -2 -17  217.25   62.58
   2 -12  14   -3.73   27.26
 -12  10  14   45.72   30.22
 -12  10  11   29.61   25.82
 -10  -2 -11   25.23   20.29
   2 -12  11   -7.59   20.74
 -10  -2  -8  163.58   56.47
 -12  10   8  186.48   57.26
 -12  10   5  106.18   46.69
 -10  -2  -5   43.18   33.40
 -12  10   2   26.63   27.96
 -10  -2  -2   27.42   30.48
 -10  -2   1   19.58   30.73
  -2  12   4   77.74   30.20
 -10  -2   4  103.51   46.69
  -2  12   7   73.08   26.67
 -10  -2   7  -16.51   26.93
  -2  12  10   26.51   39.91
  -2  12  10    6.40   12.02
 -10  -2  10   27.43   36.26
  -2  12  13   77.02   27.14
 -10  -2  13   63.73   32.81
  -2  12  13   59.26   26.54
  -2  12  16   17.17   11.53
 -10  -2  16   37.08   33.44
  -2  12  16   38.90   26.42
  -2  12  19   22.28   12.98
 -10  -2  19   47.59   33.92
  -2  12  22    4.33   10.85
 -10  -2  22    4.43   17.53
  -2  12  22   46.71   31.86
  -2  12  25  104.94   33.19
 -10  -2  25   19.12   29.25
  -2  12  25   79.37   33.41
  -2  12  28   -8.85   18.68
  -2  12  28   26.25   25.46
 -10  -2  28   37.61   35.12
  -2  12  31   14.22   15.63
 -10  -2  31   53.82   34.20
  -2  12  31   38.58   22.73
  -2  12  34    7.71   20.17
 -10  -2  34   34.02   24.90
  -2  12  34   63.93   32.46
  -2  12  37   -0.69   12.90
 -10  -2  37   48.95   37.20
  -2  12  37   -7.93   21.45
  -2  12  40   -7.04   21.06
 -10  -2  40  -22.12   36.58
  -2  12  40   49.48   30.16
  -2  12  43    9.44   23.14
 -10  -2  43  -10.09   22.25
  -2  12  43   -2.16   19.23
  -2  12  46   -8.55   23.04
  -2  12  46   13.01   18.88
  -2  12  49   14.07   24.27
 -10  -2  49   48.04   41.86
  -2  12  49    7.99   16.80
  -2  12  52   23.75   15.90
 -10  -2  52   46.04   37.61
  -2  12  52   75.42   39.60
 -10  -2  55   46.77   44.81
  -2  12  55   -5.53   20.82
 -10  -2  58   28.39   32.44
  -2  12  58   14.07   26.38
 -10  -2  61  -11.32   38.08
  -2  12  61   41.27   36.59
  -2  12  64   23.71   28.01
 -12   9  66   23.32   38.58
   9   3  66  -11.03   26.09
 -12   9  63  -18.43   26.50
   9   3  63   28.19   26.82
   9   3  60   76.11   45.29
 -12   9  60    2.64   24.12
   9   3  57   49.14   38.83
 -12   9  57   -7.30   19.03
   9   3  54   63.87   38.49
 -12   9  54   -4.62   29.74
   9   3  51    2.23   28.49
 -12   9  51   -9.25   16.61
 -12   9  48   26.44   32.38
   9   3  48   18.19   21.08
 -12   9  45    1.76   19.82
   9   3  45   69.71   38.65
 -12   9  42   43.74   24.46
  -9  -3 -42    7.52   25.88
   9   3  42   11.57   19.04
  -9  -3 -39   31.95   20.56
 -12   9  39    1.43   21.16
  -9  -3 -36   27.76   26.26
 -12   9  36  -15.10   21.76
  -9  -3 -33   11.36   18.63
 -12   9  33  -20.99   24.62
  -9  -3 -30   26.48   29.88
 -12   9  30   10.50   15.32
 -12   9  27  111.93   49.19
  -9  -3 -27  142.27   50.42
 -12   9  24   24.54   17.38
  -9  -3 -24   76.26   38.42
 -12   9  21  105.49   47.43
  -9  -3 -21  113.64   43.98
  -9  -3 -18   41.39   21.73
 -12   9  18   59.82   32.91
  -9  -3 -15    9.72   15.43
 -12   9  15   23.37   24.16
  -9  -3 -12  124.30   44.25
 -12   9  12  107.88   44.78
 -12   9   9   15.71   25.47
  -9  -3  -9   30.00   20.21
  -3  12  -6   17.82   14.76
 -12   9   6    7.79   19.60
  -9  -3  -6  -24.07   24.31
  -3  12  -3   78.27   25.51
 -12   9   3  105.36   39.15
 -12   9   0  266.76   69.38
  -3  12   0  271.08   44.59
  -9  -3   0  253.10   65.43
  -3  12   0  202.08   42.42
  -3  12   3   -2.76   10.35
 -12   9  -3   44.78   32.09
  -9  -3   3   45.23   26.08
  -3  12   3    5.71   11.97
 -12   9  -6   96.93   38.50
  -3  12   6   40.47   21.40
  -9  -3   6   60.96   30.17
  -3  12   6   25.99   13.70
  -3  12   9  119.94   34.22
  -9  -3   9  112.04   43.91
  -3  12   9   67.35   26.86
 -12   9  -9   47.36   35.14
  -3  12  12  139.05   36.83
  -9  -3  12  206.06   64.88
  -3  12  12  197.68   45.22
 -12   9 -12  161.83   52.86
  -3  12  15  -16.23   21.00
  -9  -3  15   -3.84   23.69
  -3  12  15   25.11   18.87
  -3  12  18   56.09   26.27
  -9  -3  18   27.96   32.25
  -3  12  18   36.65   23.78
  -3  12  21  232.01   52.09
  -9  -3  21  177.87   63.08
  -3  12  21  129.57   36.33
  -3  12  24  -20.65   17.75
  -9  -3  24  -13.06   22.30
  -3  12  24   14.48   21.24
  -3  12  27   10.97   20.25
  -9  -3  27   15.53   23.66
  -3  12  27    1.47   12.90
  -3  12  30   43.20   26.77
  -9  -3  30   -2.03   24.42
  -3  12  30   55.20   23.14
  -3  12  33  -13.29   25.60
  -9  -3  33  -26.29   26.08
  -3  12  33   10.00   15.81
  -3  12  36   54.74   24.56
  -9  -3  36    0.18   28.99
  -3  12  36   -0.97   19.49
  -3  12  39   41.74   27.48
  -9  -3  39    9.44   18.70
  -3  12  39    6.48   14.17
  -3  12  42   -2.52   14.44
  -9  -3  42  -16.17   21.94
  -3  12  42   20.33   20.17
  -3  12  45   57.78   35.32
  -9  -3  45   36.52   42.07
  -3  12  45   48.07   26.35
  -3  12  48   99.12   45.37
  -9  -3  48  118.49   57.14
  -3  12  48  182.16   56.05
  -3  12  51    4.13   28.38
  -9  -3  51    5.59   19.80
  -3  12  51   65.09   30.72
  -3  12  54   22.96   26.66
  -9  -3  54   47.48   35.14
  -3  12  54   58.71   31.34
  -3  12  57   21.20   23.86
  -9  -3  57  -14.63   39.52
  -3  12  57   16.18   29.33
  -3  12  60   38.83   30.18
  -9  -3  60   72.96   53.50
  -3  12  60   35.98   30.74
  -3  12  63   14.07   24.01
  -9  -3  63  -18.96   26.29
  -3  12  66  -28.48   23.63
  -9  -3  66   12.88   41.73
 -12   8  70   13.37   29.63
 -12   8  67  112.45   57.89
 -12   8  67  127.29   61.30
   8   4  67   57.61   41.26
 -12   8  64   -4.63   26.69
   8   4  64   46.43   39.82
 -12   8  61   23.10   37.19
   8   4  61  107.40   54.53
 -12   8  58   73.06   41.51
   8   4  58   51.09   39.69
 -12   8  55  -14.38   26.13
   8   4  55   -7.42   22.79
   8   4  52  -24.38   33.19
 -12   8  52  -43.87   37.53
   8   4  49  -22.49   29.06
 -12   8  49   12.55   32.59
   8   4  46   32.95   31.16
 -12   8  46  -15.35   17.97
  -8  -4 -43    5.16   13.69
   8   4  43   21.39   18.20
 -12   8  43  -31.99   26.13
 -12   8  40   40.26   30.75
  -8  -4 -40    8.00   21.06
   8   4  40   28.63   26.12
 -12   8  37  -18.54   25.78
  -8  -4 -37   56.57   31.35
  -8  -4 -34   75.47   39.43
 -12   8  34   68.61   39.13
  -8  -4 -31  236.11   61.25
 -12   8  31  157.86   53.61
  -8  -4 -28   43.64   31.56
 -12   8  28   41.99   28.42
  -8  -4 -25   58.29   34.87
 -12   8  25   68.61   28.14
  -8  -4 -22  109.61   53.03
 -12   8  22   55.34   30.63
  -8  -4 -19  181.20   54.13
 -12   8  19  105.96   45.77
 -12   8  16   23.15   23.66
  -8  -4 -16   22.51   17.85
 -12   8  13   11.05   17.86
  -8  -4 -13   34.65   27.60
  -4  12 -13   35.82   17.07
 -12   8  10   39.29   22.69
  -8  -4 -10  122.61   44.98
  -4  12 -10   97.50   28.04
  -4  12 -10   72.49   22.19
  -8  -4  -7   61.22   28.91
  -4  12  -7  101.82   27.85
 -12   8   7   95.63   38.95
  -4  12  -7   71.46   24.21
  -8  -4  -4  121.71   43.31
  -4  12  -4  128.82   33.39
  -4  12  -4  100.03   26.71
 -12   8   4  128.74   50.65
  -8  -4  -1   -6.70   27.77
  -4  12  -1   33.90   17.86
  -4  12  -1   31.89   18.11
 -12   8   1   18.94   18.31
  -8  -4   2   55.94   29.12
  -4  12   2  116.89   33.58
  -4  12   2   73.63   24.76
 -12   8  -2   77.13   33.26
 -12   8  -5   46.72   30.10
  -4  12   5   55.21   25.45
  -8  -4   5   44.61   31.17
  -4  12   5   83.88   29.34
  -4  12   8  347.84   61.33
  -8  -4   8  326.98   76.11
 -12   8  -8  317.21   67.55
  -4  12   8  314.99   51.48
  -4  12  11   11.54   15.33
  -8  -4  11   90.13   40.04
 -12   8 -11   54.67   31.69
  -4  12  11   36.04   23.48
  -4  12  14   48.19   22.78
  -8  -4  14  119.39   52.66
  -4  12  14  114.23   33.92
 -12   8 -14   95.31   42.44
  -4  12  17  262.32   56.20
  -8  -4  17  223.29   70.40
  12  -8  17  206.68   31.96
  -4  12  17  208.11   45.93
 -12   8 -17  239.96   65.42
 -12   8 -20   53.20   36.71
  -4  12  20   14.19   14.61
  -8  -4  20   41.42   31.29
  -4  12  20   75.78   27.58
  -4  12  23   13.78   12.39
  -8  -4  23   -2.37   17.81
 -12   8 -23   -3.39   15.08
  -4  12  23  -14.81    9.62
  -4  12  26  -34.03   27.16
  -8  -4  26  -12.60   30.41
 -12   8 -26    0.20   16.70
  -4  12  26  -24.41   19.12
  -4  12  29   10.12   21.32
  -8  -4  29   32.95   30.69
  -4  12  29   30.79   18.18
 -12   8 -29   -2.53   19.18
 -12   8 -32   -6.70   21.89
  -4  12  32  -18.78   24.32
  -8  -4  32  -15.52   23.35
  -4  12  32   -3.91   13.51
  -4  12  35    3.63   15.05
  -8  -4  35  -14.25   31.01
 -12   8 -35   33.79   19.84
  -4  12  35   53.64   27.15
  -4  12  38  -18.78   17.33
  -8  -4  38  -36.17   31.82
 -12   8 -38   -2.92   15.03
  -4  12  38   18.24   19.05
  -4  12  41   49.65   32.45
  -8  -4  41   31.68   30.98
 -12   8 -41   16.74   20.90
  -4  12  41   42.11   29.85
  -4  12  44  141.74   52.86
  -8  -4  44  193.75   69.51
  -4  12  44  169.81   47.94
 -12   8 -44  154.73   51.39
  -4  12  47   85.98   38.32
  -8  -4  47   53.10   48.48
  -4  12  47   53.00   30.97
 -12   8 -47  106.83   41.08
  -4  12  50    7.30   15.06
  -8  -4  50   51.77   35.11
 -12   8 -50   -4.23   19.21
  -4  12  50   45.10   31.45
  -4  12  53  -34.18   21.71
  -8  -4  53   21.49   40.36
 -12   8 -53   24.66   21.78
  -8  -4  56  120.02   50.48
  -4  12  56   61.45   38.03
 -12   8 -56   66.01   34.53
 -12   8 -59  -12.87   19.10
  -8  -4  59  -25.93   28.68
  -4  12  59   22.88   34.63
  -8  -4  62    6.39   24.12
  -4  12  62   29.81   16.43
 -12   8 -62  -12.05   18.55
  -8  -4  65   62.16   50.45
  -4  12  65   91.07   44.12
 -12   8 -65   61.28   32.46
  -8  -4  68   29.53   32.90
  -4  12  68   24.76   29.37
 -12   8 -68  -23.94   24.82
  -4  12  71   11.43   22.58
 -12   7  71    2.69   27.10
 -12   7  71   82.42   47.26
 -12   7  68   35.49   33.44
 -12   7  68   98.76   57.01
   7   5  68   46.23   37.74
 -12   7  65   39.37   43.00
   7   5  65   52.74   40.73
 -12   7  62   45.98   43.33
   7   5  62   42.33   38.89
 -12   7  59   -3.86   36.93
   7   5  59   51.06   37.78
 -12   7  56   27.92   35.80
   7   5  56   45.88   39.36
 -12   7  53   10.13   16.55
   7   5  53   39.00   24.86
 -12   7  50   27.31   32.43
   7   5  50  -37.67   40.31
 -12   7  47    3.67   25.94
   7   5  47  -39.26   36.88
   7   5  44   53.64   37.44
 -12   7  44   18.38   18.13
  -7  -5 -44   38.52   28.30
  -7  -5 -41   25.41   27.52
   7   5  41   -5.20   18.83
 -12   7  41   -8.96   32.64
  -7  -5 -38   77.19   35.45
   7   5  38   19.92   28.58
 -12   7  38   -8.10   21.14
  -7  -5 -35  106.61   40.42
 -12   7  35   70.88   37.69
 -12   7  32   53.42   30.56
  -7  -5 -32   -0.03   18.88
 -12   7  29    9.45   23.15
  -7  -5 -29  133.74   43.55
  -7  -5 -26   -0.55   25.03
 -12   7  26   19.01   24.73
  -7  -5 -23  216.48   57.93
 -12   7  23  236.55   66.80
  -7  -5 -20   32.02   24.39
 -12   7  20   20.06   20.08
  -7  -5 -17   67.19   30.65
 -12   7  17   62.63   36.57
  -7  -5 -14  172.62   53.86
  -5  12 -14  117.77   23.67
 -12   7  14  212.14   57.92
  -7  -5 -11   40.47   27.41
  -5  12 -11   21.94   12.69
 -12   7  11  -22.06   30.13
  -7  -5  -8   25.76   22.62
  -5  12  -8   34.80   14.06
 -12   7   8   32.20   31.40
  -7  -5  -5  -11.53   12.31
  -7  -5  -5  -21.27   26.51
  -5  12  -5    0.76    8.74
 -12   7   5  -15.56   25.78
 -12   7   2   -8.96   17.28
  -7  -5  -2  -17.38   20.19
  -7  -5  -2   -0.75   27.99
  -5  12  -2   -4.95    9.12
 -12   7  -1   66.85   33.96
  -5  12   1   49.99   21.76
  -7  -5   4  209.31   61.97
 -12   7  -4  195.85   54.34
  -5  12   4  145.47   30.90
  -7  -5   7   48.09   32.52
 -12   7  -7   28.32   26.86
  -5  12   7   11.48   12.63
  -5  12   7   27.26   15.79
  -7  -5  10  128.49   48.35
  -5  12  10  157.06   43.66
 -12   7 -10  140.23   49.91
  -5  12  10  130.85   32.15
  -7  -5  13  195.67   60.26
  -5  12  13  185.02   47.03
 -12   7 -13  195.07   56.02
  -5  12  13  142.43   33.52
  -7  -5  16   56.22   30.75
  -5  12  16   80.83   34.21
 -12   7 -16   90.69   36.13
  -5  12  16   39.38   18.15
  -7  -5  19   51.38   33.69
  -5  12  19   36.26   24.07
 -12   7 -19   29.47   20.70
  -5  12  19   26.38   17.55
  -7  -5  22   47.35   36.20
  -5  12  22   63.72   32.67
  12  -7  22   11.92   17.82
  -5  12  22  -18.92   17.95
 -12   7 -22   -4.92   19.37
  12  -7  25  114.12   29.58
  -7  -5  25   71.02   36.69
  -5  12  25  171.92   48.61
  -5  12  25  116.32   31.94
 -12   7 -25  101.99   36.88
 -12   7 -28    6.02   13.48
  -7  -5  28    6.11   30.87
  -5  12  28    0.33   22.03
  12  -7  28   26.51   17.25
  -5  12  28   -3.47   14.11
 -12   7 -31  -26.64   24.75
  -7  -5  31   -4.64   19.50
  -5  12  31   10.51   13.07
  12  -7  31   -0.56    9.37
 -12   7 -34   -9.74   22.82
  -7  -5  34  -37.16   39.47
  -5  12  34   12.67   14.70
  12  -7  34  -18.28   14.84
  -5  12  34   -6.02   17.86
  -7  -5  37    5.74   20.39
 -12   7 -37   10.36   13.80
  -5  12  37  -19.12   27.61
  12  -7  37  -19.69   17.54
  -7  -5  40   23.51   31.71
 -12   7 -40  -13.78   14.87
  -5  12  40   22.11   29.02
  -7  -5  43   43.04   49.72
 -12   7 -43   64.48   33.44
  -5  12  43   77.28   32.01
  -7  -5  46   -6.57   24.42
 -12   7 -46   20.41   21.38
  -5  12  46    3.09   18.94
  -7  -5  49   14.66   34.72
 -12   7 -49    6.43   15.56
  -5  12  49   27.77   21.52
  -7  -5  52  217.21   76.86
 -12   7 -52  151.19   49.61
  -5  12  52  197.77   58.07
 -12   7 -55   18.09   23.37
  -7  -5  55   21.81   34.35
  -5  12  55   37.65   32.06
  -7  -5  58   30.16   25.44
  -5  12  58   16.35   27.37
 -12   7 -58   29.15   23.48
  -7  -5  61   11.42   24.79
  -5  12  61   56.17   34.30
 -12   7 -61   58.10   28.92
  -7  -5  64  -27.57   36.08
  -5  12  64  -15.26   29.12
 -12   7 -64   -1.50   12.91
  -7  -5  67    0.81   33.04
  -5  12  67   -5.35   23.14
  -7  -5  70  -29.22   34.03
  -5  12  70   28.63   21.60
 -12   6  72   14.35   34.12
 -12   6  72   -1.70   22.30
 -12   6  69   68.39   46.37
 -12   6  69   31.60   32.60
 -12   6  66  -15.00   41.13
   6   6  66   69.72   37.55
 -12   6  63   -8.86   26.11
   6   6  63    0.34   19.74
 -12   6  60  -14.70   18.68
   6   6  60   70.87   42.89
 -12   6  57   15.38   34.27
   6   6  57   47.50   34.88
 -12   6  54   33.82   36.71
   6   6  54   47.34   41.40
 -12   6  51   25.91   39.94
   6   6  51    1.09   16.25
 -12   6  48  117.21   67.79
   6   6  48  178.06   55.86
 -12   6  45   -4.79   16.74
   6   6  45   -6.84   27.13
 -12   6  42  -29.46   33.20
   6   6  42    0.12   14.73
  -6  -6 -42   31.20   22.17
   6   6  39  -14.15   15.61
 -12   6  39   47.71   33.32
  -6  -6 -39   30.00   14.60
   6   6  36   -2.44   13.26
 -12   6  36   20.78   18.57
  -6  -6 -36   -6.00   17.18
 -12   6  33   23.12   16.62
  -6  -6 -33   39.94   23.87
  -6  -6 -30  -60.53   33.57
 -12   6  30   43.95   28.13
  -6  -6 -27   79.34   28.52
 -12   6  27  126.24   46.81
  -6  -6 -24    4.68   20.49
 -12   6  24   40.13   30.58
 -12   6  21  275.44   70.86
  -6  -6 -21  228.87   61.41
  -6  -6 -18  136.20   45.55
 -12   6  18   95.92   40.69
  -6  -6 -15   -8.69   25.43
 -12   6  15   38.95   27.24
  -6  -6 -12  -16.75   26.35
  -6  -6 -12   19.48   10.45
 -12   6  12  -21.76   27.43
  -6  -6  -9  118.95   44.98
  -6  -6  -9  107.13   32.44
 -12   6   9   96.58   40.72
  -6  -6  -6   40.14   21.89
 -12   6   6   44.16   31.30
  -6  12  -6   17.95    8.56
  -6  -6  -3   -9.71   26.91
 -12   6   3   48.85   26.95
  -6  12  -3   28.23   11.55
  -6  -6   0  120.36   44.86
 -12   6   0  137.93   42.51
  -6  -6   3   34.44   19.80
 -12   6  -3    5.76   15.95
  -6  -6   6  -12.43   23.30
 -12   6  -6   16.58   14.03
  -6  -6   9   45.86   34.31
 -12   6  -9   28.25   15.90
  -6  -6  12   43.54   33.62
 -12   6 -12   57.58   28.09
  -6  -6  15   34.51   23.10
 -12   6 -15   56.15   33.79
 -12   6 -18   34.96   28.48
  -6  -6  18   57.86   30.74
  -6  12  18   99.88   38.72
 -12   6 -21  165.65   52.81
  -6  -6  21  161.32   55.62
  -6  12  21  206.20   52.98
 -12   6 -24   10.49   16.28
  -6  -6  24   19.12   29.92
  -6  12  24   76.92   36.94
 -12   6 -27  100.15   39.92
  -6  -6  27   72.92   39.03
  -6  12  27  135.39   45.86
  12  -6  27  173.05   40.80
  -6  -6  30   18.14   28.00
 -12   6 -30   11.93   13.16
  -6  12  30    8.19   20.53
  12  -6  30   40.83   18.96
  -6  -6  33  -12.91   25.82
 -12   6 -33   13.87   12.94
  -6  12  33    0.32   14.94
  12  -6  33   42.73   23.40
  -6  -6  36   31.03   29.16
 -12   6 -36   13.35   16.68
  -6  12  36   21.84   22.32
  12  -6  36   26.82   20.68
  -6  -6  39   85.28   48.12
 -12   6 -39  161.63   49.34
  -6  12  39   66.57   32.48
  12  -6  39   52.89   26.21
  -6  -6  42  -31.42   28.95
 -12   6 -42  -26.55   24.94
  -6  12  42  -71.04   41.41
  12  -6  42    0.94   12.64
  -6  -6  45   12.22   18.21
 -12   6 -45   48.27   27.62
  -6  12  45   -5.45   22.49
  12  -6  45  -45.17   25.27
  -6  -6  48  118.49   55.30
 -12   6 -48   73.95   33.05
  -6  12  48  120.93   44.99
  12  -6  48   67.59   28.67
  -6  -6  51   39.90   35.21
 -12   6 -51  -21.90   27.09
  -6  12  51   42.29   31.75
  12  -6  51   -0.98   12.04
  -6  -6  54   11.49   29.78
 -12   6 -54   50.90   29.93
  -6  12  54   48.25   32.16
  -6  -6  57   63.23   47.81
 -12   6 -57   31.79   29.15
  -6  12  57   92.39   41.38
 -12   6 -60   19.06   16.57
  -6  -6  60   77.37   52.90
  -6  12  60   67.33   43.48
  -6  -6  63   87.95   52.41
  -6  12  63   23.31   24.13
 -12   6 -63   38.20   32.65
  -6  -6  66   32.68   25.00
  -6  12  66   48.36   29.71
  -6  12  69   98.09   52.55
  -6  -6  69   67.84   48.64
  -6  12  72   -8.92   32.10
  -6  -6  72   63.37   39.62
 -12   5  70   69.61   43.82
 -12   5  70   -4.23   26.69
 -12   5  67  -32.56   37.78
   5   7  67  -40.67   36.75
 -12   5  67  -56.93   37.75
   5   7  64   74.79   46.25
 -12   5  64    5.25   22.82
 -12   5  61   53.49   46.22
   5   7  61   -4.75   17.64
 -12   5  58   39.21   45.62
   5   7  58   69.68   43.74
 -12   5  55   45.14   48.02
   5   7  55   67.69   48.34
 -12   5  52   98.44   71.06
   5   7  52  183.79   63.10
 -12   5  49   29.76   42.68
   5   7  49    8.38   25.31
 -12   5  46  -13.61   21.45
   5   7  46  -30.90   23.08
 -12   5  43   58.16   41.33
   5   7  43   12.74   18.27
  -5  -7 -43   17.43   13.17
 -12   5  40  106.75   46.86
   5   7  40   39.16   32.26
  -5  -7 -40   96.94   40.22
 -12   5  37    3.24   20.30
   5   7  37  -26.52   29.54
  -5  -7 -37   33.52   32.28
 -12   5  34   -5.51   20.58
   5   7  34  -59.31   42.50
  -5  -7 -34   -3.15   26.38
 -12   5  31   13.61   24.35
  -5  -7 -31   28.55   19.42
 -12   5  28    2.93   30.36
  -5  -7 -28   23.49   14.05
 -12   5  25  149.12   52.33
  -5  -7 -25  199.96   53.57
 -12   5  22   19.49   29.30
  -5  -7 -22  -20.23   31.70
 -12   5  19  -31.75   25.60
  -5  -7 -19  -27.01   32.19
 -12   5  16   48.53   27.11
  -5  -7 -16   43.07   24.12
 -12   5  13  277.52   66.02
  -5  -7 -13  341.21   73.17
  -5  -7 -10  116.75   44.55
 -12   5  10   62.96   33.86
 -12   5   7   -7.18   18.24
  -5  -7  -7   33.10   20.17
  -5  -7  -4  148.91   50.67
 -12   5   4  152.94   50.53
  -5  -7  -1   63.25   37.93
 -12   5   1   76.71   39.74
  -5  -7   2   -5.46   22.74
 -12   5  -2   56.27   31.91
  -5  -7   5   15.38   18.87
 -12   5  -5  -16.60   27.06
  -5  -7   8   99.67   37.71
 -12   5  -8   76.87   35.81
  -5  -7  11   20.21   21.13
 -12   5 -11   -9.04   18.58
  -5  -7  14   48.39   30.06
 -12   5 -14   79.39   37.21
  -5  -7  17  166.40   58.02
 -12   5 -17  146.46   47.10
  -5  -7  20   49.66   28.41
 -12   5 -20   88.57   40.68
  -5  -7  23  223.42   66.16
 -12   5 -23  308.95   68.58
  -5  -7  26   -1.66   25.55
 -12   5 -26   82.60   42.93
  -5  -7  29   42.88   29.19
  -7  12  29   81.04   35.35
 -12   5 -29  107.78   43.05
  12  -5  29   72.17   30.11
  -5  -7  32   20.96   29.12
  -7  12  32   30.49   26.58
 -12   5 -32   32.99   21.03
  12  -5  32   -6.04   13.61
  -5  -7  35  148.07   56.89
  -7  12  35  148.61   46.97
 -12   5 -35  101.26   39.42
  12  -5  35  101.91   37.25
  -5  -7  38   46.14   43.39
  -7  12  38   33.31   31.70
 -12   5 -38   30.39   20.09
  12  -5  38   54.61   28.60
  -5  -7  41   37.82   33.59
  -7  12  41    1.88   14.59
 -12   5 -41   -4.95   16.29
  12  -5  41    5.65   11.73
  -5  -7  44    9.20   30.29
  -7  12  44   -3.37   14.53
 -12   5 -44    7.22   12.11
  12  -5  44  -19.07   24.92
  -5  -7  47  -29.20   39.28
  -7  12  47   13.55   27.28
 -12   5 -47  -48.14   33.70
  12  -5  47   17.68   19.60
  -7  12  50   -0.12   27.33
 -12   5 -50   -8.64   17.39
  12  -5  50  -13.52   25.24
  -5  -7  50  -45.45   36.60
  -7  12  53  -20.05   20.50
 -12   5 -53   -3.66   15.16
  12  -5  53   50.14   31.12
  -5  -7  53    8.97   31.44
  -7  12  56  -12.52   26.02
  -7  12  56   48.88   36.12
 -12   5 -56   48.12   30.68
  12  -5  56   31.75   18.04
  -5  -7  56   33.87   28.14
 -12   5 -59   37.02   27.92
  -7  12  59  -17.29   24.61
  12  -5  59    7.41   13.42
  -5  -7  59  -37.36   38.43
  -7  12  62  104.41   52.21
  12  -5  62  139.53   50.19
  -5  -7  62   97.06   54.46
  -7  12  65   69.71   42.97
  -5  -7  65  126.56   60.38
  -7  12  68    9.71   26.70
  -5  -7  68  -17.91   34.75
  -7  12  71   23.03   21.86
  -5  -7  71   14.00   34.50
 -12   4  71   25.02   35.97
 -12   4  71    3.46   28.21
 -12   4  68   82.31   51.94
 -12   4  68   29.53   35.41
   4   8  65    6.18   26.33
 -12   4  65    6.32   21.37
   4   8  62   47.90   34.31
 -12   4  62   36.09   37.06
   4   8  59   18.68   29.29
 -12   4  59   -5.92   23.89
   4   8  56  128.00   56.39
 -12   4  56   17.93   32.05
 -12   4  53   33.26   32.22
   4   8  53   53.40   38.00
 -12   4  50   24.28   26.64
   4   8  50   45.09   28.95
 -12   4  47   65.61   47.71
   4   8  47   56.85   44.20
 -12   4  44  200.89   66.65
   4   8  44  256.71   70.59
 -12   4  41   40.06   34.72
   4   8  41   11.36   17.30
  -4  -8 -41    5.26   13.38
 -12   4  38   24.50   15.65
   4   8  38   -9.20   20.74
  -4  -8 -38   55.49   31.64
 -12   4  35   -1.75   21.21
   4   8  35   22.09   18.88
  -4  -8 -35   24.31   22.69
 -12   4  32    5.04   22.34
   4   8  32  -12.47   26.59
  -4  -8 -32   14.06   26.96
  -4  -8 -29   44.30   25.93
 -12   4  29  500.01  100.21
 -12   4  26   29.35   24.54
  -4  -8 -26  -22.96   30.10
 -12   4  23   33.98   28.84
  -4  -8 -23  -53.93   38.40
 -12   4  20   19.83   27.47
  -4  -8 -20  -28.45   25.12
 -12   4  17  249.01   64.96
  -4  -8 -17  234.33   59.14
 -12   4  14   55.25   34.01
  -4  -8 -14   45.75   35.84
 -12   4  11   -3.40   18.25
  -4  -8 -11   38.09   28.05
 -12   4   8  299.47   70.75
  -4  -8  -8  213.36   60.49
 -12   4   5  163.30   52.82
  -4  -8  -5  231.74   63.21
 -12   4   2  134.86   50.51
  -4  -8  -2  120.04   46.90
 -12   4  -1    7.44   21.38
  -4  -8   1   31.10   32.64
 -12   4  -4  171.43   52.72
  -4  -8   4  197.11   56.72
 -12   4  -7  -10.41   17.41
  -4  -8   7   28.86   26.73
 -12   4 -10   20.89   20.93
  -4  -8  10  109.70   47.59
 -12   4 -13  147.34   47.15
  -4  -8  13  132.86   48.25
 -12   4 -16  -35.85   29.20
  -4  -8  16  -14.34   17.88
  -4  -8  19   81.75   39.38
 -12   4 -19   60.92   27.25
  -4  -8  22   40.82   31.60
 -12   4 -22   -7.47   23.72
  -4  -8  25   69.84   35.35
 -12   4 -25   98.28   39.86
 -12   4 -28  -21.24   23.46
  -4  -8  28   68.10   36.52
 -12   4 -31  169.04   52.16
  -4  -8  31  122.78   51.43
 -12   4 -34   30.04   21.13
  12  -4  34   56.02   28.02
  -4  -8  34   70.01   46.18
 -12   4 -37   46.46   33.01
  -8  12  37   35.97   33.22
  12  -4  37  -15.18   15.90
  -4  -8  37   23.25   38.69
 -12   4 -40   19.43   13.50
  -8  12  40   40.09   32.93
  12  -4  40  -21.38   25.22
  -4  -8  40   30.81   23.33
  -8  12  43   23.78   25.44
  12  -4  43   62.49   30.58
  -4  -8  43   33.19   25.64
 -12   4 -43   23.08   20.92
  -8  12  46    8.86   15.71
  -4  -8  46  -21.90   28.16
 -12   4 -46  -27.45   22.81
  -8  12  49    4.59   14.26
  12  -4  49   11.29   13.13
  -4  -8  49    8.54   27.82
 -12   4 -49  -29.72   26.52
  -8  12  52   -2.14   27.22
  12  -4  52  -34.75   26.69
  -4  -8  52  -41.57   39.75
 -12   4 -52  -77.79   42.77
  -8  12  55   -6.38   18.67
  -8  12  55   31.74   16.01
  12  -4  55  -18.00   27.66
 -12   4 -55  -12.45   21.15
  -4  -8  55  -65.44   48.37
  -8  12  58  128.12   52.65
  -8  12  58   90.04   40.04
  12  -4  58   57.27   30.25
 -12   4 -58   82.79   35.52
  -4  -8  58   57.56   41.03
  -8  12  61   30.38   26.50
  12  -4  61   33.19   29.28
  -4  -8  61   44.25   50.39
  -8  12  64    7.14   22.65
  12  -4  64  -23.21   26.93
  -4  -8  64   -4.54   21.49
  -8  12  67  -30.79   21.28
  12  -4  67   57.04   40.54
  -4  -8  67   38.08   36.18
  12  -4  70  101.78   40.65
 -12   3  66   35.23   36.14
 -12   3  66    9.64   30.90
   3   9  66   24.52   26.60
   3   9  63  -12.99   30.32
 -12   3  63  -47.47   42.09
   3   9  60   33.86   33.48
 -12   3  60   -3.51   21.59
   3   9  57   19.92   26.32
 -12   3  57   10.64   29.45
   3   9  54   22.48   18.05
 -12   3  54   11.89   28.79
   3   9  51   30.75   29.60
 -12   3  51   42.52   40.31
   3   9  48  114.13   52.63
 -12   3  48  112.43   55.28
   3   9  45   36.81   30.95
 -12   3  45  -63.88   42.78
 -12   3  42  -27.24   32.10
   3   9  42    6.05   15.08
 -12   3  39   -3.34   24.99
  -3  -9 -39    5.53   15.33
   3   9  39    6.09   17.20
 -12   3  36   39.76   20.29
   3   9  36   -2.35   19.51
  -3  -9 -36   30.21   16.51
 -12   3  33   24.39   29.53
   3   9  33   25.86   30.69
  -3  -9 -33   16.72   14.64
 -12   3  30  -35.19   30.81
   3   9  30   -0.95   23.17
  -3  -9 -30   24.95   24.47
 -12   3  27  -11.65   24.93
   3   9  27   45.19   26.36
  -3  -9 -27   26.32   27.11
 -12   3  24   10.82   21.40
  -3  -9 -24   -0.70   17.82
 -12   3  21   92.63   42.18
  -3  -9 -21  102.12   44.73
 -12   3  18   67.58   35.53
  -3  -9 -18   53.81   28.17
 -12   3  15    0.04   18.08
  -3  -9 -15   13.15   19.20
 -12   3  12  117.66   48.27
  -3  -9 -12  272.99   82.34
 -12   3   9  124.12   49.71
  -3  -9  -9  153.03   49.79
 -12   3   6   33.54   25.18
  -3  -9  -6   82.66   43.35
 -12   3   3   31.23   27.00
  -3  -9  -3   78.66   44.66
 -12   3   0  298.98   70.90
  -3  -9   0  248.73   63.71
 -12   3  -3   46.45   37.00
  -3  -9   3   28.16   26.34
 -12   3  -6   28.53   26.53
  -3  -9   6  -20.17   23.55
 -12   3  -9   51.98   31.45
  -3  -9   9   83.43   36.24
 -12   3 -12   26.92   20.76
  -3  -9  12   57.22   33.80
 -12   3 -15    0.85   15.25
  -3  -9  15  -15.36   27.40
 -12   3 -18   47.55   30.52
  -3  -9  18   61.00   38.20
 -12   3 -21  131.58   46.55
  -3  -9  21  184.30   58.87
 -12   3 -24  -34.71   31.31
  -3  -9  24  -36.08   35.71
 -12   3 -27   33.50   25.46
  -3  -9  27   10.14   23.58
 -12   3 -30  -68.35   33.94
  -3  -9  30  -12.69   30.15
 -12   3 -33  -62.89   32.53
  -3  -9  33    6.62   25.36
  12  -3  36  -37.63   24.11
 -12   3 -36  -13.14   20.02
  -3  -9  36  -17.23   20.46
  12  -3  39   32.42   23.09
 -12   3 -39   89.53   50.12
  -3  -9  39   41.12   23.25
  -9  12  42   19.20   29.92
 -12   3 -42   10.71   16.20
  12  -3  42   -5.05   23.96
  -3  -9  42  -24.89   33.88
  -9  12  45    2.98   15.27
  -9  12  45  -23.81   16.96
 -12   3 -45   20.57   21.66
  12  -3  45    4.19   15.38
  -3  -9  45   15.20   23.26
  -9  12  48   99.88   44.44
 -12   3 -48   23.99   19.48
  12  -3  48   62.75   38.64
  -3  -9  48   65.30   47.85
  -9  12  48   20.68   21.06
  -9  12  51  -16.33   22.59
  -9  12  51   -5.43   21.29
 -12   3 -51    8.61   18.97
  -3  -9  51   12.43   18.83
  -9  12  54   76.86   36.38
 -12   3 -54    2.58   13.49
  12  -3  54   80.80   40.12
  -9  12  54   79.10   43.01
  -3  -9  54   -2.69   20.84
  -9  12  57   21.22   28.30
  -9  12  57   -9.09   17.80
  12  -3  57   14.86   19.35
  -3  -9  57  -10.42   20.09
  -9  12  60   29.52   33.22
  12  -3  60  -50.26   34.76
  -3  -9  60   55.09   35.57
  -9  12  63   14.69   21.40
  12  -3  63  -19.05   27.11
  -3  -9  63  -14.77   30.61
  -9  12  66    8.39   21.79
  12  -3  66   20.88   17.29
  -3  -9  66    6.06   32.40
 -12   2  64   74.92   49.89
 -12   2  64   74.65   50.48
   2  10  64   30.43   34.38
 -12   2  61   68.52   42.63
   2  10  61   46.42   36.78
 -12   2  58   20.67   31.25
   2  10  58   72.61   44.06
   2  10  55   34.26   20.43
 -12   2  55  -53.48   45.67
   2  10  52   14.00   21.34
 -12   2  52  -22.57   35.00
   2  10  49  -20.75   26.94
 -12   2  49   17.09   34.03
   2  10  46   20.06   29.56
 -12   2  46   -5.07   22.43
   2  10  43   21.87   27.95
 -12   2  43   11.43   23.44
   2  10  40   94.97   44.98
 -12   2  40   37.56   31.57
   2  10  37   -0.07   16.19
 -12   2  37   23.36   17.97
  -2 -10 -34   16.84   24.78
   2  10  34   30.31   32.44
 -12   2  34   46.10   35.12
  -2 -10 -31  157.99   50.55
   2  10  31   95.41   35.84
 -12   2  31  137.58   54.75
 -12   2  28   44.63   27.65
   2  10  28   24.83   27.97
  -2 -10 -28   12.63   20.57
 -12   2  25   92.17   47.33
   2  10  25  106.30   40.70
  -2 -10 -25   79.02   26.76
 -12   2  22   55.19   33.37
  -2 -10 -22   35.58   32.25
 -12   2  19   41.96   24.23
  -2 -10 -19   47.76   35.23
 -12   2  16  -30.75   35.40
  -2 -10 -16  -20.28   27.54
 -12   2  13   13.73   19.30
  -2 -10 -13   35.41   26.85
 -12   2  10    9.15   14.72
  -2 -10 -10   65.71   35.81
 -12   2   7    5.21   21.37
  -2 -10  -7   31.11   29.22
 -12   2   4   76.13   38.16
  -2 -10  -4  160.67   55.26
 -12   2   1   31.94   30.24
  -2 -10  -1    7.03   27.44
 -12   2  -2   92.60   45.38
  -2 -10   2   82.03   43.54
 -12   2  -5   36.62   32.51
  -2 -10   5   37.95   23.32
 -12   2  -8  144.72   53.58
  -2 -10   8  153.45   49.04
 -12   2 -11  -18.43   21.33
  -2 -10  11    8.38   21.53
 -12   2 -14  186.29   59.38
  -2 -10  14  138.39   50.02
 -12   2 -17  228.62   62.47
  -2 -10  17  162.87   57.39
 -12   2 -20   48.56   19.54
  -2 -10  20   -7.49   23.44
 -12   2 -23   50.16   26.23
  -2 -10  23   20.48   27.28
 -12   2 -26    0.38   13.52
  -2 -10  26   39.58   23.99
 -12   2 -29   59.73   31.48
  -2 -10  29   38.41   29.17
 -12   2 -32   27.65   23.54
  -2 -10  32    9.47   29.26
 -12   2 -35   37.98   28.43
  -2 -10  35   33.20   33.29
 -12   2 -38   28.56   28.84
  12  -2  38  -12.63   27.27
  -2 -10  38   15.22   28.09
 -10  12  38  -35.59   37.04
 -12   2 -41   10.22   15.55
 -10  12  41  -14.03   22.49
  12  -2  41    8.16   22.61
  -2 -10  41    4.32   23.05
 -12   2 -44  136.13   48.16
  12  -2  44  109.42   46.03
 -10  12  44  130.15   53.38
  -2 -10  44  138.77   63.00
 -10  12  47   18.13   20.58
 -12   2 -47    3.89   20.39
 -10  12  47   17.27   34.75
  12  -2  47    4.87   16.25
  -2 -10  47  -13.96   21.72
 -12   2 -50   20.62   13.20
 -10  12  50   60.08   40.16
  12  -2  50   24.27   35.34
 -10  12  50   17.50   18.63
  -2 -10  50   18.92   29.71
 -10  12  53    6.77   16.31
 -10  12  53   72.84   42.61
  12  -2  53   64.18   42.27
  -2 -10  53   12.13   31.33
 -10  12  56   50.16   35.85
 -10  12  56   95.07   50.97
  12  -2  56   79.00   42.80
  -2 -10  56   94.10   59.89
 -10  12  59  -14.51   24.28
  12  -2  59   -0.22   19.41
  -2 -10  59   14.76   20.63
 -10  12  59   20.57   27.08
 -10  12  62  -26.48   32.09
  12  -2  62    5.26   25.36
  -2 -10  62   39.31   39.22
  12  -2  65   50.29   34.81
 -12   1  59   -3.75   23.80
   1  11  59   38.94   29.44
 -12   1  56   47.87   46.69
   1  11  56   53.11   41.82
 -12   1  53  -38.30   41.50
   1  11  53  -24.51   37.69
 -12   1  50   57.75   49.45
   1  11  50   17.79   15.25
   1  11  47  -22.31   29.86
 -12   1  47   12.11   31.84
   1  11  44  -14.71   23.18
 -12   1  44   -6.93   18.87
   1  11  41   25.53   16.05
 -12   1  41   -6.47   19.93
   1  11  38   29.73   32.52
 -12   1  38   30.31   28.70
   1  11  35  115.58   46.27
 -12   1  35  162.76   60.96
   1  11  32  -11.33   15.16
 -12   1  32    4.66   24.67
   1  11  29   54.79   31.51
 -12   1  29  130.93   54.74
  -1 -11 -26   26.09   29.71
   1  11  26   14.18   27.67
 -12   1  26   35.34   27.17
  -1 -11 -23  144.71   49.29
   1  11  23  118.02   45.72
 -12   1  23  159.53   59.96
  -1 -11 -20   25.91   16.13
   1  11  20  -33.50   24.30
 -12   1  20  -28.65   17.90
  -1 -11 -17   -0.64   16.33
 -12   1  17    6.12   19.40
  -1 -11 -14   -7.12   28.15
 -12   1  14   23.59   20.07
  -1 -11 -11   12.88   20.43
 -12   1  11    3.31   24.72
  -1 -11  -8   26.04   26.39
 -12   1   8    8.11   29.62
  -1 -11  -5  -27.60   33.64
 -12   1   5   32.66   35.89
 -12   1   2  130.14   50.06
  -1 -11  -2   70.42   36.14
 -12   1  -1   76.40   45.06
  -1 -11   1   -7.03   18.73
 -12   1  -4   42.49   27.80
  -1 -11   4   40.45   28.61
 -12   1  -7   53.23   38.02
  -1 -11   7   64.92   40.55
 -12   1 -10  234.77   67.72
  -1 -11  10  189.17   62.79
 -12   1 -13  310.63   76.52
  -1 -11  13  197.22   62.36
 -12   1 -16  118.87   50.90
  -1 -11  16   77.54   31.46
 -12   1 -19   33.30   28.07
  -1 -11  19   -5.38   17.14
 -12   1 -22   57.18   35.96
  -1 -11  22   24.44   30.02
 -12   1 -25  234.32   65.51
  -1 -11  25  180.11   55.93
 -12   1 -28   14.20   25.68
  -1 -11  28    5.18   22.66
 -12   1 -31   53.15   32.72
 -11  12  31   53.50   34.58
  -1 -11  31   38.70   23.84
 -12   1 -34  -32.48   26.54
 -11  12  34  -26.78   29.65
  -1 -11  34    3.59   18.59
 -12   1 -37   11.82   22.42
 -11  12  37  -37.31   33.03
  -1 -11  37   41.21   32.72
 -11  12  40   41.45   33.50
  12  -1  40   41.23   32.40
  -1 -11  40   91.93   52.62
 -12   1 -40  157.91   57.20
  12  -1  43  -45.34   32.79
  -1 -11  43    5.16   32.17
 -11  12  43    1.20   20.90
 -12   1 -43   28.20   33.77
 -11  12  46    6.91   25.32
  12  -1  46  -43.47   33.01
  -1 -11  46  -19.59   19.69
 -12   1 -46   25.26   30.77
 -11  12  49   45.22   30.96
  12  -1  49    0.43   17.07
  -1 -11  49   33.91   27.89
 -11  12  52  185.36   66.30
 -11  12  52  256.36   78.90
  12  -1  52  188.53   64.91
  -1 -11  52  222.70   72.24
 -11  12  55   37.40   40.17
  12  -1  55   12.06   17.52
  -1 -11  55   25.08   20.71
 -11  12  55    3.70   19.85
 -11  12  58   57.35   39.14
  12  -1  58   73.81   42.75
 -11  12  61   57.00   38.27
  12  -1  61   45.55   38.13
   0  12  54   30.33   35.07
 -12   0  51  -10.74   22.80
   0  12  51   10.52   15.48
 -12   0  48   31.52   22.49
   0  12  48  -16.11   24.13
 -12   0  45   28.28   40.78
   0  12  45   50.48   24.02
 -12   0  42   57.68   45.18
   0  12  42    5.13   14.33
 -12   0  39   44.74   35.68
   0  12  39   -0.22   15.29
 -12   0  36   69.93   44.49
   0  12  36  -33.71   23.57
   0  12  33   14.00   21.95
 -12   0  33   -0.30   33.41
   0  12  30   62.38   35.12
 -12   0  30   63.34   43.63
   0  12  27  121.70   48.22
 -12   0  27  138.04   60.17
   0  12  24  -27.75   22.79
 -12   0  24   42.06   34.01
   0  12  21   36.79   26.23
 -12   0  21   70.33   39.95
   0  12  18   36.98   26.61
 -12   0  18   16.75   22.43
   0 -12 -15   -6.12   17.85
   0  12  15   22.57   23.30
 -12   0  15   34.01   25.04
   0 -12 -12    3.81   27.04
   0  12  12  -24.85   29.72
 -12   0  12   13.15   23.94
   0 -12  -9   -4.78   19.71
 -12   0   9    1.58   25.43
   0 -12  -6   24.71   26.68
 -12   0   6   25.30   29.70
   0 -12  -3  -28.95   31.44
 -12   0   3  -51.40   34.00
   0 -12   0    6.65   15.71
 -12   0   0   -5.56   20.38
   0 -12   3   15.02   26.70
 -12   0  -3    9.40   20.16
   0 -12   6  131.24   53.51
 -12   0  -6  244.68   75.05
   0 -12   9  170.05   61.04
 -12   0  -9  175.25   56.64
   0 -12  12  117.96   51.26
 -12   0 -12   67.19   31.45
   0 -12  15   66.20   39.97
 -12   0 -15   49.88   28.76
   0 -12  18   77.67   46.00
 -12   0 -18  112.00   49.53
 -12  12  21  363.80   87.52
   0 -12  21  355.40   84.09
 -12   0 -21  338.26   80.61
   0 -12  24  100.24   46.64
 -12  12  24   27.11   19.31
 -12   0 -24   32.03   34.37
 -12  12  27   30.92   16.40
   0 -12  27  -16.77   28.21
 -12   0 -27   23.67   15.98
 -12  12  30    1.00   25.68
   0 -12  30   21.80   34.54
 -12   0 -30   30.02   29.76
 -12  12  33   17.35   29.00
   0 -12  33    2.14   20.44
 -12   0 -33   -1.67   22.26
   0 -12  36   20.61   31.80
 -12   0 -36   73.39   44.42
 -12  12  36   31.85   37.98
  12   0  39  -56.46   41.44
 -12  12  39   30.13   39.46
   0 -12  39   10.91   18.19
 -12   0 -39   75.03   39.87
 -12  12  42    1.79   19.31
  12   0  42    1.12   24.95
   0 -12  42   43.96   52.18
 -12   0 -42   29.13   26.80
 -12  12  45   -2.86   25.80
  12   0  45   66.33   43.92
   0 -12  45   67.84   54.34
  12   0  48  118.87   49.35
   0 -12  48  146.91   67.72
 -12  12  48  207.51   73.89
  12   0  51   25.40   28.70
 -12  12  51   -1.83   23.71
 -12  12  54  -17.66   20.94
  12   0  54   67.70   42.04
  12   1  47   16.22   18.91
 -13  12  47   59.19   42.03
  12   1  44   87.48   51.59
 -13  12  44   68.22   47.08
  12   1  41  -26.64   28.54
   1 -13  41   24.56   28.72
 -13  12  41   28.17   25.42
 -13  12  38   33.84   36.72
   1 -13  38   45.56   40.77
 -13  12  35   25.66   27.15
   1 -13  35   74.85   45.10
 -12  -1 -35  104.35   60.04
   1 -13  32  -25.10   35.73
 -12  -1 -32   16.86   17.82
 -12  -1 -29   39.49   28.14
 -13  12  29    9.52   20.86
   1 -13  26   15.54   31.54
 -12  -1 -26  -28.68   22.00
 -13  12  26   24.29   26.71
 -13  12  23   47.25   29.78
   1 -13  23   32.15   31.71
   1 -13  20   69.72   38.49
 -13  12  20   -8.56   33.07
 -12  -1 -20   29.45   34.40
   1 -13  17  233.83   72.15
 -12  -1 -17  105.47   49.54
 -13  12  17  268.22   77.22
 -13  12  14    7.90   30.10
   1 -13  14   25.43   33.56
 -12  -1 -14   -3.84   21.68
 -13  12  11   15.20   31.73
   1 -13  11   16.11   30.73
 -12  -1 -11  -45.29   40.78
   1 -13   8   80.05   34.41
 -12  -1  -8   77.05   45.82
 -13  12   8   80.39   44.33
   1 -13   5   54.08   38.65
 -12  -1  -5   -1.47   19.39
   1 -13   2   17.11   22.68
 -12  -1  -2   21.08   22.06
 -12  -1   1   14.50   31.65
 -12  -1   4   19.39   26.46
  -1  13   7  -36.35   26.69
 -12  -1   7   18.03   24.92
  -1  13  10  -28.23   27.61
 -12  -1  10    6.49   19.65
  -1  13  13  -31.66   26.25
 -12  -1  13  -14.85   30.75
  -1  13  16   11.14   12.87
 -12  -1  16  -21.97   26.08
  -1  13  19   24.51   20.54
 -12  -1  19   54.20   39.34
 -12  -1  22   52.57   41.20
  -1  13  22   44.36   30.22
 -12  -1  25   51.67   45.81
  -1  13  25    8.60   24.08
 -12  -1  28  -10.65   29.29
  -1  13  28    2.84   11.96
  -1  13  31   95.99   39.72
 -12  -1  31   96.59   50.79
 -12  -1  34   24.45   19.07
  -1  13  34   -3.22   15.84
 -12  -1  37   55.17   47.35
  -1  13  37  -22.22   35.15
 -12  -1  40  251.16   84.13
  -1  13  40  -21.25   32.05
  -1  13  43   58.63   33.75
  -1  13  46   41.75   29.86
 -13  11  54  655.11  135.19
  11   2  54   45.63   39.66
 -13  11  51  -44.59   35.33
  11   2  51  -28.00   34.44
 -13  11  48   54.31   38.55
   2 -13  48   49.14   33.57
  11   2  48   56.06   42.07
 -13  11  45   34.64   37.10
   2 -13  45   23.12   38.58
  11   2  45   26.68   31.11
   2 -13  42   65.93   46.33
  11   2  42   -2.02   26.99
 -13  11  42   47.50   34.88
   2 -13  39   83.00   46.21
 -13  11  39   54.47   38.18
 -11  -2 -36   60.53   31.38
   2 -13  36   60.31   37.37
 -13  11  36    1.77   19.70
 -13  11  33  -23.22   26.93
 -11  -2 -33  -19.09   27.19
   2 -13  33  -25.46   35.40
 -13  11  30   -0.40   20.84
   2 -13  30   38.13   22.96
 -11  -2 -30   10.50   19.40
 -13  11  27   10.56   24.25
   2 -13  27   64.39   36.59
 -11  -2 -27   36.68   27.39
   2 -13  24   -5.83   20.05
 -11  -2 -24   66.87   35.97
 -13  11  24  -12.79   29.85
   2 -13  21  111.07   52.35
 -11  -2 -21   88.63   45.31
 -13  11  21  167.26   57.48
 -13  11  18   64.53   43.65
 -11  -2 -18   89.26   47.99
 -13  11  15  -16.35   20.51
 -11  -2 -15   -6.73   26.42
 -13  11  12   77.97   41.37
 -11  -2 -12   42.05   26.10
 -11  -2  -9   55.23   35.69
 -13  11   9   72.18   39.47
 -13  11   6   71.56   45.99
 -11  -2  -6  -31.41   37.59
 -11  -2  -3  -19.77   20.08
 -13  11   3   54.11   35.00
  -2  13   0  107.36   34.13
 -11  -2   0  194.91   63.99
 -13  11  -3   24.15   23.48
  -2  13   3    3.18   17.15
 -11  -2   3   46.53   33.82
 -11  -2   6   17.36   29.66
  -2  13   6   -9.83   19.02
 -11  -2   9   50.33   28.44
  -2  13   9  -19.85   21.42
 -11  -2  12   16.14   25.34
  -2  13  12   38.17   23.40
 -11  -2  15   -6.71   21.57
  -2  13  15   51.98   27.68
 -11  -2  18   27.38   36.76
  -2  13  18   60.78   33.16
 -11  -2  21   94.07   53.48
  -2  13  21   80.63   31.63
 -11  -2  24   39.26   33.25
  -2  13  24   26.04   27.29
 -11  -2  27   34.41   33.62
  -2  13  27   76.40   32.76
 -11  -2  30   12.58   23.58
  -2  13  30   13.05   12.40
 -11  -2  33  -18.17   29.96
  -2  13  33  -41.84   21.38
 -11  -2  36   29.59   24.46
  -2  13  36   10.23   18.70
 -11  -2  39    8.16   21.24
  -2  13  39   35.72   24.27
 -11  -2  42   36.46   37.12
  -2  13  42  152.83   48.06
 -11  -2  45   89.67   47.35
  -2  13  45   -1.08   17.70
 -11  -2  48  115.82   70.63
  -2  13  48   71.91   42.11
  -2  13  51    2.72   21.94
  -2  13  54   -5.16   17.63
 -13  10  58   13.16   17.52
  10   3  55  -25.51   30.40
 -13  10  55   23.80   24.88
  10   3  52  -23.49   34.04
 -13  10  52   54.96   44.31
 -13  10  49  112.18   53.90
  10   3  49   23.79   32.71
 -13  10  46   -4.83   22.83
  10   3  46   10.29   20.37
 -13  10  43   23.09   22.90
  10   3  43   15.77   27.10
 -13  10  40   43.58   40.59
  10   3  40   15.02   19.92
 -10  -3 -37   31.00   29.69
 -13  10  37    7.35   26.16
 -10  -3 -34  115.58   46.71
 -13  10  34   24.90   23.83
 -10  -3 -31   59.02   37.46
 -13  10  31    6.34   18.01
 -10  -3 -28   -0.55   26.97
 -13  10  28  -21.50   38.09
 -13  10  25   53.63   36.96
 -10  -3 -25   17.69   18.99
 -13  10  22   17.28   20.87
 -10  -3 -22   -0.12   22.09
 -13  10  19  -43.56   38.40
 -10  -3 -19  -20.58   28.29
 -10  -3 -16  -16.18   27.33
 -13  10  16    2.34   22.63
 -10  -3 -13   41.15   26.82
 -13  10  13   54.55   39.72
 -10  -3 -10    0.99   26.74
 -13  10  10   43.80   25.43
 -13  10   7   48.68   29.19
 -10  -3  -7   35.53   35.26
 -10  -3  -4  123.87   56.23
  -3  13  -4  123.79   33.80
 -10  -3  -1   48.10   35.70
  -3  13  -1   27.14   19.51
 -13  10   1   40.11   24.42
 -10  -3   2   -2.41   17.16
  -3  13   2  -15.65   20.80
 -13  10  -2    3.67   28.68
 -13  10  -5   -4.52   16.29
 -10  -3   5   18.81   18.01
  -3  13   5   -4.90   15.44
 -10  -3   8   87.08   46.55
 -13  10  -8   94.49   41.21
  -3  13   8   78.17   29.92
 -13  10 -11   -6.37   17.11
 -10  -3  11   13.78   28.64
  -3  13  11   43.50   26.00
 -10  -3  14   77.24   49.48
 -13  10 -14   32.93   36.45
  -3  13  14   48.92   22.70
 -13  10 -17  133.63   54.81
 -10  -3  17   87.30   47.79
  -3  13  17   51.24   26.33
  -3  13  20   31.11   16.91
 -10  -3  20   61.90   39.62
  -3  13  20   69.82   31.37
 -13  10 -20  107.21   52.72
  -3  13  23   10.81   14.91
 -10  -3  23   26.02   35.85
  -3  13  23   45.39   25.70
 -13  10 -23   39.84   25.06
  -3  13  26   56.65   31.69
 -10  -3  26   -0.91   23.22
  -3  13  26   52.67   28.88
  -3  13  29    3.66   16.55
  -3  13  29   27.55   21.07
  -3  13  32   40.82   28.36
 -10  -3  32   18.57   30.81
  -3  13  32   73.33   27.47
  -3  13  35   57.47   31.03
 -10  -3  35   42.95   27.66
  -3  13  35   16.97   16.88
  -3  13  38   54.93   34.14
 -10  -3  38   47.38   36.74
  -3  13  38   29.54   13.66
  -3  13  41   59.16   32.95
 -10  -3  41   33.82   34.16
  -3  13  41   -5.58   18.41
  -3  13  44   91.23   43.93
 -10  -3  44   80.37   56.61
  -3  13  44  105.64   41.70
  -3  13  47   30.26   26.45
 -10  -3  47   15.09   34.82
  -3  13  50    1.75   20.34
  -3  13  50  -25.15   28.67
  -3  13  53   16.45   29.71
  -3  13  53   15.80   24.94
  -3  13  56  119.23   50.08
  -3  13  56   50.99   36.46
 -13   9  59    0.55   19.43
   9   4  56   31.19   36.18
 -13   9  56   -9.13   36.50
   9   4  53   30.56   28.55
 -13   9  53  -23.89   29.58
   9   4  50  -25.82   37.62
 -13   9  50   23.24   34.03
   9   4  47   45.58   35.52
 -13   9  47   15.10   29.95
 -13   9  44   19.57   21.49
   9   4  44   32.81   31.38
 -13   9  41   43.03   40.44
   9   4  41   36.60   32.79
 -13   9  38   94.60   43.49
  -9  -4 -38   72.90   40.38
  -9  -4 -35   68.91   41.10
 -13   9  35   16.75   26.05
  -9  -4 -32   82.91   39.65
 -13   9  32   82.45   45.18
  -9  -4 -29   32.75   31.49
 -13   9  29   16.28   19.04
  -9  -4 -26   67.77   39.07
 -13   9  26   12.03   20.05
  -9  -4 -23   56.45   30.48
 -13   9  23   80.73   37.14
  -9  -4 -20   -0.27   19.40
 -13   9  20   17.57   19.47
 -13   9  17    2.95   20.25
  -9  -4 -17   22.25   16.47
 -13   9  14   36.54   29.69
  -9  -4 -14   87.73   34.58
 -13   9  11  -22.12   25.88
  -9  -4 -11   -8.01   29.79
  -9  -4  -8   80.12   33.65
 -13   9   8  123.14   46.53
  -4  13  -8   61.16   22.20
  -9  -4  -5  -16.23   30.36
 -13   9   5   -7.06   16.74
  -4  13  -5  -37.33   19.08
  -9  -4  -2  -16.08   31.50
  -4  13  -2    9.65   14.90
 -13   9   2   37.82   27.26
  -9  -4   1   30.55   39.94
  -4  13   1   46.35   25.09
 -13   9  -1   50.94   38.28
  -4  13   4  241.70   49.97
  -9  -4   4  263.49   78.79
  -4  13   4  240.53   46.65
 -13   9  -4  268.32   69.49
 -13   9  -7   50.08   30.44
  -4  13   7   62.23   26.74
  -9  -4   7   47.02   29.77
  -4  13   7   46.96   28.23
  -4  13  10  102.76   35.81
 -13   9 -10   84.17   42.04
  -9  -4  10   87.19   45.84
  -4  13  10   35.43   22.49
  -4  13  13  123.82   38.09
  -9  -4  13  174.11   62.35
 -13   9 -13  101.20   45.19
  -4  13  13  115.54   36.24
  -4  13  16  117.23   41.43
  -9  -4  16  165.82   58.37
 -13   9 -16  182.88   55.81
  -4  13  16  116.33   36.44
  -4  13  19    3.42   17.40
  -9  -4  19   81.38   48.49
  -4  13  19   49.44   27.08
 -13   9 -19   21.99   24.71
  -4  13  22  -33.48   24.39
  -4  13  22   -2.25   15.59
 -13   9 -22   12.10   14.51
 -13   9 -25   48.51   33.64
  -4  13  25    7.00   15.23
  -9  -4  25   33.72   26.34
  -4  13  25   59.71   30.68
 -13   9 -28   28.81   30.47
  -4  13  28    7.84   22.49
  -9  -4  28    2.50   27.96
  -4  13  28    8.34   12.04
  -4  13  31    2.16   17.52
  -9  -4  31   93.25   46.44
 -13   9 -31   49.68   31.92
  -4  13  31   42.75   28.50
  -4  13  34    6.00   16.15
  -9  -4  34   19.28   31.14
 -13   9 -34   53.00   31.25
  -4  13  34   27.96   24.35
  -4  13  37   31.25   19.27
  -9  -4  37  -24.33   32.94
 -13   9 -37   37.84   25.76
  -4  13  37   39.13   24.74
  -4  13  40   46.08   30.76
  -9  -4  40   71.92   50.68
 -13   9 -40   49.39   28.02
  -4  13  40   57.19   39.28
  -4  13  43   43.88   32.34
  -9  -4  43  114.17   53.63
  -4  13  43   57.50   34.30
 -13   9 -43   41.83   28.75
  -4  13  46    7.02   17.03
  -9  -4  46    8.08   28.29
  -4  13  46   42.17   43.79
 -13   9 -46    6.07   15.01
  -4  13  49   39.64   37.62
  -9  -4  49    4.75   36.03
 -13   9 -49   17.91   18.64
  -4  13  49   94.88   43.53
  -4  13  52   36.85   20.79
 -13   9 -52  110.97   46.31
  -4  13  55  -47.48   38.69
  -9  -4  55   -7.12   25.31
 -13   9 -55  -10.10   23.84
  -4  13  58   48.18   40.02
 -13   9 -58  -29.33   35.96
  -4  13  61   42.72   26.99
 -13   9 -61    7.64   17.64
 -13   8  63   36.57   40.47
 -13   8  60   55.47   51.61
 -13   8  57   12.55   22.70
   8   5  57   17.51   24.74
 -13   8  54   27.99   31.42
   8   5  54   17.48   21.84
 -13   8  51  -30.45   31.25
   8   5  51  -33.49   28.68
   8   5  48   45.76   29.72
 -13   8  48   10.60   25.99
   8   5  45   53.46   37.17
 -13   8  45   -5.20   18.30
   8   5  42   20.55   22.25
 -13   8  42   28.74   28.07
  -8  -5 -39   47.49   30.97
   8   5  39   46.92   33.91
 -13   8  39   38.18   36.35
 -13   8  36   68.07   46.56
  -8  -5 -36   72.36   33.77
 -13   8  33   34.16   21.55
  -8  -5 -33    4.86   22.10
  -8  -5 -30   35.48   24.25
 -13   8  30   -9.96   16.02
  -8  -5 -27  154.45   52.07
 -13   8  27  143.65   50.43
  -8  -5 -24  -14.87   20.90
 -13   8  24   11.71   22.80
  -8  -5 -21   19.99   19.76
 -13   8  21   42.59   16.39
  -8  -5 -18   60.80   33.22
 -13   8  18  106.95   45.57
  -8  -5 -15   19.77   18.56
 -13   8  15  -54.05   42.89
  -8  -5 -12   59.91   39.86
 -13   8  12   -8.80   28.79
  -8  -5  -9   32.47   30.42
 -13   8   9  -13.93   25.08
  -8  -5  -6   15.39   25.22
  -5  13  -6   30.79   16.25
 -13   8   6   42.97   28.59
 -13   8   3  131.57   48.62
  -8  -5  -3   24.74   33.25
  -5  13  -3   83.49   31.02
 -13   8   0  155.98   54.96
  -8  -5   0  143.48   54.79
  -5  13   0  135.24   38.15
 -13   8  -3   37.21   32.03
  -8  -5   3   18.78   24.00
  -5  13   3   13.74   16.96
  -5  13   3   32.37   19.67
  -8  -5   6   65.24   39.08
 -13   8  -6  100.54   45.79
  -5  13   6  122.76   40.63
  -5  13   6   99.68   27.46
  -8  -5   9   47.26   29.87
  -5  13   9   52.02   27.79
 -13   8  -9   74.73   41.27
  -5  13   9   34.75   21.12
  -8  -5  12  184.33   61.28
  -5  13  12  236.66   55.19
 -13   8 -12  251.03   70.22
  -5  13  12  159.60   37.26
  -8  -5  15   76.01   46.90
  -5  13  15   51.30   19.32
 -13   8 -15   94.83   41.83
  -5  13  15   71.73   25.31
  -8  -5  18   74.77   44.25
  -5  13  18   46.76   26.23
 -13   8 -18   56.45   39.57
  -5  13  18   -3.81   12.51
  -8  -5  21   90.48   39.97
  -5  13  21  134.02   43.91
 -13   8 -21  174.14   56.78
  -5  13  21  127.53   35.80
  -8  -5  24  -24.93   29.01
  -5  13  24    0.18   17.07
  -5  13  24   -9.45   16.58
 -13   8 -24   51.10   36.17
  -8  -5  27   50.61   34.56
  -5  13  27   16.05   18.08
  -5  13  27   32.44   20.71
 -13   8 -27   58.15   32.14
  -8  -5  30    5.69   27.79
  -5  13  30    3.66   14.11
  -5  13  30   11.51   15.15
 -13   8 -30   17.86   18.11
 -13   8 -33   27.69   28.19
  -8  -5  33   -4.68   22.89
  -5  13  33   44.34   24.27
  -5  13  33    4.52   22.53
 -13   8 -36  -16.60   23.84
  -8  -5  36   38.27   37.87
  -5  13  36   31.06   30.16
  -5  13  36   24.66   19.47
 -13   8 -39   16.53   26.15
  -8  -5  39   16.76   28.15
  -5  13  39   57.93   27.45
 -13   8 -42    3.98   20.82
  -8  -5  42   38.33   44.49
  -5  13  42  -26.59   26.73
 -13   8 -45    6.82   15.89
  -5  13  45   31.01   31.39
 -13   8 -48  165.01   52.14
  -8  -5  48  305.54   88.10
  -5  13  48  214.81   63.88
 -13   8 -51   28.41   28.81
  -8  -5  51   34.80   41.71
  -5  13  51   43.86   43.45
  -8  -5  54    1.77   34.75
  -5  13  54   11.34   23.08
 -13   8 -54  -10.28   21.55
  -8  -5  57   36.34   27.79
  -5  13  57  -20.49   24.24
 -13   8 -57  -15.39   14.60
  -5  13  60  -29.37   43.36
 -13   8 -60   -6.19   22.32
  -5  13  63  -53.86   43.14
 -13   8 -63    2.31   18.28
 -13   7  64   31.82   30.90
 -13   7  61   -2.91   24.90
 -13   7  58    0.19   24.03
   7   6  58   51.05   45.07
 -13   7  55    8.87   39.02
   7   6  55   22.26   30.94
 -13   7  52   51.81   53.88
   7   6  52   72.04   41.37
 -13   7  49   51.84   46.93
   7   6  49   10.48   27.78
 -13   7  46   19.71   33.42
   7   6  46  -12.55   17.00
   7   6  43  -30.48   33.50
 -13   7  43    9.25   28.30
   7   6  40  -11.46   24.59
 -13   7  40    2.22   25.39
   7   6  37  -11.69   29.04
 -13   7  37  -41.08   30.93
  -7  -6 -37   10.38   21.90
 -13   7  34  -15.60   27.83
  -7  -6 -34  -11.12   22.55
  -7  -6 -31  142.80   45.75
 -13   7  31  159.23   56.44
  -7  -6 -28   20.99   24.62
 -13   7  28   21.88   33.94
 -13   7  25    4.14   14.59
  -7  -6 -25  103.03   40.69
  -7  -6 -22   39.22   17.80
 -13   7  22   94.72   39.37
  -7  -6 -19   31.80   16.97
 -13   7  19   46.09   32.50
  -7  -6 -16  -48.27   33.93
 -13   7  16    9.68   14.77
  -7  -6 -13   21.07   22.00
 -13   7  13   59.54   33.24
  -7  -6 -10   41.17   33.22
 -13   7  10   98.48   41.57
  -7  -6  -7   37.12   21.10
 -13   7   7   40.94   31.53
  -7  -6  -4   40.44   32.06
 -13   7   4   45.70   28.77
  -7  -6  -1   14.64   18.49
 -13   7   1   21.10   18.76
  -7  -6   2   22.44   26.82
 -13   7  -2   20.55   17.67
  -7  -6   5    8.25   23.08
 -13   7  -5  -36.69   28.76
  -7  -6   8  111.90   48.38
  -6  13   8  199.58   49.54
 -13   7  -8  134.91   48.08
  -7  -6  11   63.54   46.10
  -6  13  11   97.56   36.39
 -13   7 -11   90.53   44.36
  -7  -6  14   61.89   32.48
  -6  13  14   28.16   23.65
 -13   7 -14   16.60   25.43
 -13   7 -17   49.47   30.00
  -7  -6  17   95.66   45.48
  -6  13  17  112.20   36.59
 -13   7 -20   45.98   31.13
  -7  -6  20   43.64   25.46
  -6  13  20   38.38   26.50
 -13   7 -23  101.56   43.90
  -7  -6  23  118.33   55.52
  -6  13  23  127.28   49.06
  13  -7  23  107.42   32.37
 -13   7 -26   53.89   34.28
  -7  -6  26   -0.28   26.98
  -6  13  26   18.99   24.80
  -7  -6  29  -14.79   27.88
 -13   7 -29   23.14   26.54
  -6  13  29   34.26   24.26
  -7  -6  32   -9.96   20.45
 -13   7 -32    3.30   16.70
  -6  13  32    8.98   15.22
  -7  -6  35   70.30   41.61
 -13   7 -35  104.76   42.37
  -6  13  35    6.69   15.86
  -7  -6  38   32.27   35.11
 -13   7 -38    5.38   15.57
  -6  13  38   -7.30   24.44
  -7  -6  41  -33.05   34.27
 -13   7 -41   31.54   27.00
  -6  13  41   -7.87   22.50
  -7  -6  44  110.30   57.75
 -13   7 -44   95.30   41.49
  -6  13  44  146.46   51.41
  -7  -6  47   47.81   33.58
 -13   7 -47   -9.25   24.33
  -6  13  47   -7.77   24.95
  -7  -6  50    9.79   28.27
 -13   7 -50   40.14   27.69
  -6  13  50   -4.96   20.74
 -13   7 -53   24.75   16.50
  -6  13  53   48.46   32.32
  -7  -6  56   22.40   42.25
 -13   7 -56   92.41   40.23
  -6  13  56   22.05   25.15
 -13   7 -59   -5.01   15.36
  -6  13  59  -55.46   41.30
 -13   7 -62   52.34   29.09
  -6  13  62    5.43   18.97
 -13   6  62   12.47   30.84
 -13   6  59   63.92   40.04
   6   7  59   41.44   45.44
 -13   6  56   61.22   54.71
   6   7  56   72.07   44.18
 -13   6  53    7.27   29.89
   6   7  53   95.60   46.79
 -13   6  50    6.84   18.38
   6   7  50   27.36   30.48
 -13   6  47    4.04   34.39
   6   7  47   -7.02   24.65
 -13   6  44   54.98   59.92
   6   7  44  144.30   54.33
 -13   6  41   48.48   42.71
   6   7  41    5.76   14.31
 -13   6  38    3.89   22.72
   6   7  38  -27.33   25.55
  -6  -7 -38  -12.95   31.45
   6   7  35   13.44   14.66
  -6  -7 -35   49.06   33.87
 -13   6  32   11.66   25.38
  -6  -7 -32   -0.90   19.96
 -13   6  29   31.05   34.71
  -6  -7 -29   25.31   18.74
 -13   6  26  -21.21   24.62
  -6  -7 -26    7.13   19.32
 -13   6  23   74.31   36.04
  -6  -7 -23   32.73   20.58
 -13   6  20   89.22   44.54
  -6  -7 -20  -25.27   34.68
 -13   6  17  206.43   61.33
  -6  -7 -17  148.85   47.65
  -6  -7 -14   96.92   41.47
 -13   6  14   73.72   41.56
 -13   6  11    7.00   14.84
  -6  -7 -11  -18.23   35.00
  -6  -7  -8   10.13   21.99
 -13   6   8   44.17   25.69
  -6  -7  -5  114.02   48.51
 -13   6   5   65.27   34.42
  -6  -7  -2   -9.89   25.89
 -13   6   2   46.81   26.65
  -6  -7   1  -27.87   33.76
 -13   6  -1   19.05   24.57
  -6  -7   4  120.08   39.05
 -13   6  -4  144.74   48.78
  -6  -7   7   31.04   32.93
 -13   6  -7   36.51   26.71
  -6  -7  10   -5.00   26.97
 -13   6 -10  -24.14   27.76
  -6  -7  13   75.27   38.49
 -13   6 -13   63.86   33.05
  -6  -7  16    3.41   19.30
 -13   6 -16   13.91   21.86
  -6  -7  19   88.03   45.49
 -13   6 -19  100.58   40.84
  -6  -7  22   56.11   34.07
  -7  13  22   52.07   27.83
 -13   6 -22   67.26   36.43
  -6  -7  25   39.74   23.22
 -13   6 -25   53.95   34.12
  -6  -7  28  -11.49   27.12
  13  -6  28    3.04   17.57
 -13   6 -28    0.64   15.82
  -6  -7  31  115.56   57.85
  -7  13  31  118.50   43.48
  13  -6  31  160.44   42.85
 -13   6 -31  147.13   50.93
  -6  -7  34   73.38   43.93
  -7  13  34    1.66   18.22
  13  -6  34   21.73   22.30
 -13   6 -34   10.18   15.93
  -6  -7  37   18.46   20.21
  -7  13  37   39.67   28.76
 -13   6 -37   -1.73   17.53
  13  -6  37    3.35   18.66
  -6  -7  40   54.29   43.94
  -7  13  40   86.25   40.96
 -13   6 -40   60.26   35.34
  -6  -7  43   10.12   24.76
  -7  13  43   20.16   19.32
 -13   6 -43    5.44   14.44
  -6  -7  46    9.42   29.07
  -7  13  46  -68.95   40.77
 -13   6 -46  -61.53   33.21
  -6  -7  49   66.18   43.83
  -7  13  49   30.86   29.76
 -13   6 -49    3.48   16.89
  -6  -7  52   58.27   39.16
  -7  13  52   79.72   40.33
 -13   6 -52   53.97   29.45
  -7  13  55   -4.54   17.70
 -13   6 -55   41.84   29.53
  -6  -7  55   21.69   30.15
  -7  13  58   84.74   43.87
 -13   6 -58  105.20   45.52
  -7  13  61   88.26   53.14
  -7  13  64   27.58   24.57
 -13   5  63   14.40   30.15
 -13   5  60  -88.50   47.30
 -13   5  57   16.13   28.34
   5   8  57   20.71   43.09
 -13   5  54   27.13   35.85
   5   8  54  -12.96   25.86
 -13   5  51   -9.19   26.15
   5   8  51   75.58   46.53
 -13   5  48   98.92   62.56
   5   8  48  152.49   58.56
 -13   5  45    6.57   37.50
   5   8  45  -13.35   34.52
 -13   5  42  -19.17   38.33
   5   8  42  -14.96   16.89
 -13   5  39   48.63   39.55
   5   8  39   21.88   27.20
 -13   5  36   84.64   55.12
   5   8  36  -18.36   25.24
  -5  -8 -36   92.25   47.22
 -13   5  33   19.19   38.75
   5   8  33   -5.14   23.78
  -5  -8 -33   42.86   29.97
 -13   5  30   10.55   16.37
  -5  -8 -30   18.57   25.58
 -13   5  27   86.27   45.00
  -5  -8 -27   76.14   33.90
 -13   5  24   19.64   31.80
  -5  -8 -24   17.95   19.87
 -13   5  21  157.51   58.25
  -5  -8 -21  166.20   55.95
 -13   5  18   91.09   39.34
  -5  -8 -18   91.86   39.29
 -13   5  15   46.26   29.36
  -5  -8 -15   46.08   28.68
 -13   5  12   58.26   33.00
  -5  -8 -12   89.85   42.23
 -13   5   9  150.20   53.61
  -5  -8  -9  177.50   57.18
 -13   5   6   58.77   36.69
  -5  -8  -6   50.79   35.84
 -13   5   3    9.64   26.37
  -5  -8  -3   34.18   27.96
 -13   5   0  198.86   62.10
  -5  -8   0  197.32   60.40
 -13   5  -3   63.84   31.06
  -5  -8   3   77.81   41.75
 -13   5  -6   16.70   15.41
  -5  -8   6  -27.14   38.78
  -5  -8   9   41.67   30.67
 -13   5  -9   11.13   14.19
 -13   5 -12  -28.74   33.95
  -5  -8  12  -18.02   33.27
 -13   5 -15    7.36   16.61
  -5  -8  15  -14.45   32.66
 -13   5 -18  -27.92   25.47
  -5  -8  18  -33.05   33.55
 -13   5 -21   90.43   34.93
  -5  -8  21   78.67   45.66
 -13   5 -24  103.19   45.49
  -5  -8  24   51.90   30.84
 -13   5 -27  154.01   51.68
  -5  -8  27  158.15   60.21
 -13   5 -30   35.28   29.42
  -8  13  30   28.29   27.74
  13  -5  30   -3.19   19.11
  -5  -8  30   65.69   44.43
 -13   5 -33   17.33   23.95
  -8  13  33   46.06   30.68
  13  -5  33    3.76   12.61
 -13   5 -36   79.29   35.11
  -8  13  36   57.08   37.28
  13  -5  36   -2.38   17.06
  -5  -8  36   26.19   37.46
 -13   5 -39  146.79   47.00
  -8  13  39  121.54   48.06
  13  -5  39   89.13   35.83
  -5  -8  39   86.23   49.97
 -13   5 -42   22.18   12.75
  -8  13  42  -19.92   16.62
  13  -5  42   -6.10   18.42
  -5  -8  42  -34.09   32.65
 -13   5 -45    6.24   14.36
  -8  13  45   -5.33   20.61
  13  -5  45    7.25   26.99
  -5  -8  45   -2.93   36.39
 -13   5 -48   35.90   19.51
  -8  13  48   74.15   38.60
  13  -5  48   79.83   33.24
  -5  -8  48   -2.71   36.93
 -13   5 -51   22.57   13.77
  -8  13  51  -12.84   31.44
  13  -5  51  -54.79   33.23
  -5  -8  51  -25.77   40.86
 -13   5 -54   12.22   13.90
  -8  13  54   36.83   29.45
  -5  -8  54  -30.19   47.21
  -8  13  57   -3.44   25.23
  -5  -8  57  -12.86   38.90
  -8  13  60  -17.54   37.37
  -8  13  63  -26.95   28.40
 -13   4  61  -22.85   24.06
   4   9  58   59.80   43.11
 -13   4  58  -23.55   35.74
   4   9  55   18.76   20.45
 -13   4  55  -53.89   38.55
   4   9  52  108.54   52.29
 -13   4  52   30.71   44.80
   4   9  49   66.83   49.80
 -13   4  49  -44.64   35.24
 -13   4  46   -9.50   24.58
   4   9  46   31.30   36.18
 -13   4  43   13.88   27.49
   4   9  43   -1.02   14.65
 -13   4  40   91.85   47.73
   4   9  40   92.88   43.11
 -13   4  37  -27.79   22.23
   4   9  37   21.54   20.37
 -13   4  34   -9.28   25.12
   4   9  34   -0.24   21.73
  -4  -9 -34   -0.15   16.48
 -13   4  31   55.34   40.57
   4   9  31   19.45   16.16
  -4  -9 -31   61.61   34.46
 -13   4  28   10.30   34.59
  -4  -9 -28    3.34   16.59
 -13   4  25   87.21   49.08
  -4  -9 -25   34.14   21.92
 -13   4  22   98.02   47.24
  -4  -9 -22   87.70   45.03
 -13   4  19   -9.93   15.65
  -4  -9 -19   14.79   14.87
 -13   4  16   46.67   32.00
  -4  -9 -16   48.85   31.85
 -13   4  13  172.44   56.69
  -4  -9 -13  139.82   54.04
 -13   4  10   98.76   46.65
  -4  -9 -10   94.58   48.64
 -13   4   7   66.84   38.68
  -4  -9  -7   80.06   46.93
 -13   4   4  213.98   60.63
  -4  -9  -4  147.85   52.46
 -13   4   1   38.56   38.23
  -4  -9  -1   78.79   39.36
 -13   4  -2   13.50   28.32
  -4  -9   2   64.91   41.45
 -13   4  -5   26.46   24.45
  -4  -9   5   54.94   31.37
 -13   4  -8   68.69   40.17
  -4  -9   8  100.95   45.39
 -13   4 -11    5.41   15.05
  -4  -9  11   15.68   24.74
 -13   4 -14  -19.69   26.22
  -4  -9  14   39.64   31.93
 -13   4 -17   54.28   35.95
  -4  -9  17  132.95   50.51
 -13   4 -20  -43.81   39.10
  -4  -9  20   -1.95   23.34
 -13   4 -23   10.49   14.07
  -4  -9  23    8.08   23.24
 -13   4 -26  -22.51   26.72
  -4  -9  26   28.15   26.92
 -13   4 -29   -3.34   21.71
  -4  -9  29   -5.21   27.55
  13  -4  32  -38.75   28.66
 -13   4 -32  -33.94   26.60
  -4  -9  32   21.34   30.38
  13  -4  35  135.02   43.43
 -13   4 -35  157.23   52.09
  -4  -9  35  100.78   55.70
  -9  13  38   90.57   44.50
  13  -4  38   26.27   20.58
 -13   4 -38   29.88   32.53
  -4  -9  38   50.56   39.82
  -9  13  41   30.31   31.33
  13  -4  41   19.30   23.00
 -13   4 -41   -2.21   15.65
  -4  -9  41   42.86   32.66
  -9  13  44  132.90   54.34
  13  -4  44   68.16   38.85
 -13   4 -44   63.57   34.17
  -4  -9  44  105.17   58.59
  -9  13  47   37.19   38.53
  -9  13  47   29.00   18.86
  13  -4  47   17.46   25.58
 -13   4 -47   20.11   20.20
  -4  -9  47   19.18   29.84
  -9  13  50   -8.97   16.73
  -9  13  50   17.22   17.10
 -13   4 -50   -8.72   19.37
  13  -4  50   -4.01   21.38
  -4  -9  50   56.04   37.39
  -9  13  53   20.89   32.59
  -9  13  53   18.05   33.65
 -13   4 -53  -64.24   33.83
  13  -4  53    6.14   21.07
  -4  -9  53   38.12   41.90
  -9  13  56    4.93   20.60
  13  -4  56  -24.58   26.94
  -4  -9  56   15.63   28.84
  -9  13  59  -12.03   20.14
  13  -4  59  -13.94   18.95
   3  10  56    0.48   26.00
 -13   3  56   25.67   29.50
   3  10  53  -25.23   36.91
 -13   3  53   -9.14   21.52
   3  10  50  -36.36   32.09
 -13   3  50   -6.75   18.53
   3  10  47   21.06   26.58
 -13   3  47  -61.56   40.50
   3  10  44   68.56   44.71
 -13   3  44    8.28   31.46
   3  10  41   30.91   28.36
 -13   3  41  -66.34   51.47
   3  10  38  -31.02   24.91
 -13   3  38   -2.60   23.79
 -13   3  35   71.95   45.48
  -3 -10 -35   70.67   39.96
   3  10  35   35.64   27.84
 -13   3  32   51.13   39.21
   3  10  32    1.62   19.70
  -3 -10 -32   32.82   31.03
 -13   3  29   26.69   24.95
   3  10  29   11.60   14.13
  -3 -10 -29   35.45   24.85
 -13   3  26  -36.52   30.69
   3  10  26  -18.99   23.84
  -3 -10 -26    0.42   18.13
 -13   3  23  -15.81   33.38
  -3 -10 -23   34.68   30.93
 -13   3  20  -33.26   33.37
  -3 -10 -20   34.98   22.37
 -13   3  17   41.03   28.19
  -3 -10 -17  103.33   45.12
 -13   3  14   48.80   39.25
  -3 -10 -14  113.16   49.94
 -13   3  11   -0.70   20.38
  -3 -10 -11   38.64   27.77
 -13   3   8   47.90   33.74
  -3 -10  -8   67.24   37.60
 -13   3   5   -3.83   19.86
  -3 -10  -5  -12.49   16.74
 -13   3   2   25.42   25.54
  -3 -10  -2    6.05   23.59
 -13   3  -1    7.34   24.54
  -3 -10   1   24.20   29.93
 -13   3  -4  182.12   61.62
  -3 -10   4  208.45   70.41
 -13   3  -7   -4.74   23.36
  -3 -10   7    8.13   20.85
 -13   3 -10   22.79   22.72
  -3 -10  10  -25.52   35.81
 -13   3 -13   56.83   35.91
  -3 -10  13   22.73   23.36
 -13   3 -16   -4.93   20.92
  -3 -10  16  -24.39   26.33
 -13   3 -19    2.71   17.71
  -3 -10  19  -16.79   27.11
 -13   3 -22   28.99   24.03
  -3 -10  22  -47.65   42.72
 -13   3 -25   30.55   21.89
  -3 -10  25   -8.78   36.54
 -13   3 -28   24.27   26.00
  -3 -10  28  -13.71   23.81
 -13   3 -31   55.83   32.98
  -3 -10  31   73.85   39.72
 -13   3 -34   48.42   33.42
  -3 -10  34   20.48   16.30
  13  -3  37  -16.85   17.10
  -3 -10  37  -17.55   20.02
 -13   3 -40   63.95   39.86
  13  -3  40    6.23   25.93
  -3 -10  40   29.98   29.47
 -10  13  43   68.44   34.66
 -13   3 -43   -7.36   16.78
 -10  13  43   53.51   39.89
  13  -3  43  -19.86   23.02
  -3 -10  43   44.54   33.26
 -13   3 -46   18.90   29.09
 -10  13  46   69.08   47.70
  13  -3  46   43.10   33.17
  -3 -10  46  -41.32   45.00
 -10  13  46  -26.51   37.08
 -13   3 -49   47.24   34.93
 -10  13  49   10.29   17.59
 -10  13  49   18.43   30.91
  13  -3  49   67.14   44.29
  -3 -10  49    7.41   38.50
 -10  13  52   75.39   44.74
  13  -3  52   85.65   42.13
  -3 -10  52    9.70   28.27
 -10  13  52   63.77   41.15
 -10  13  55   -6.63   18.43
 -10  13  55  -31.83   29.14
  13  -3  55  -26.37   33.33
  13  -3  58   31.77   23.19
   2  11  54   13.49   17.47
   2  11  51   14.31   29.06
   2  11  48   13.25   18.11
 -13   2  48   37.81   38.35
   2  11  45    7.88   16.28
 -13   2  45   14.23   33.03
   2  11  42    5.63   20.68
 -13   2  42   77.66   50.57
   2  11  39   46.72   30.74
 -13   2  39  101.06   45.48
   2  11  36   10.17   25.95
 -13   2  36   63.34   36.09
   2  11  33  -11.66   18.85
 -13   2  33   76.04   39.11
  -2 -11 -30  -29.87   31.26
   2  11  30    0.15   20.66
  -2 -11 -27    4.34   29.08
   2  11  27   72.90   36.64
 -13   2  27   61.84   34.83
   2  11  24    3.47   13.34
  -2 -11 -24   -0.20   21.84
 -13   2  24   33.62   25.38
   2  11  21    6.14   21.23
  -2 -11 -21   32.91   30.08
 -13   2  21   60.75   43.85
 -13   2  18    4.43   20.34
  -2 -11 -18   37.27   19.01
 -13   2  15   16.80   19.64
  -2 -11 -15  -10.06   30.73
 -13   2  12    9.38   20.65
  -2 -11 -12  -15.93   27.77
 -13   2   9   12.18   16.09
  -2 -11  -9   18.35   16.94
 -13   2   6   24.42   26.30
  -2 -11  -6   -5.88   24.74
 -13   2   3   26.13   25.35
  -2 -11  -3   36.68   36.95
 -13   2   0  112.41   48.97
  -2 -11   0  111.94   53.27
 -13   2  -3  -29.39   29.29
  -2 -11   3   27.71   31.88
 -13   2  -6   88.01   44.98
  -2 -11   6   27.09   23.87
 -13   2  -9   24.87   31.69
  -2 -11   9    9.17   28.34
 -13   2 -12   91.30   46.99
  -2 -11  12   70.14   42.88
 -13   2 -15   51.52   36.44
  -2 -11  15   18.19   23.13
 -13   2 -18   38.85   32.76
  -2 -11  18   52.25   31.32
 -13   2 -21  133.36   50.04
  -2 -11  21  102.32   49.46
 -13   2 -24  -17.56   20.01
  -2 -11  24   23.75   27.62
 -13   2 -27   15.85   25.34
  -2 -11  27   80.11   44.45
 -13   2 -30    2.82   27.86
  -2 -11  30   30.61   26.83
 -13   2 -33  -29.72   34.86
  -2 -11  33  -15.99   16.88
 -13   2 -36   40.38   35.56
 -11  13  36   60.29   29.55
  13  -2  36   15.24   13.97
  -2 -11  36   36.53   31.57
 -13   2 -39  108.47   54.18
 -11  13  39   29.50   24.11
  -2 -11  39   34.29   34.63
 -13   2 -42   -7.92   26.38
  13  -2  42   55.55   39.46
 -11  13  42  -34.27   34.54
  -2 -11  42  -13.46   27.76
 -13   2 -45    7.69   17.77
 -11  13  45   29.11   33.83
  13  -2  45   -0.93   19.45
  -2 -11  45   34.10   41.81
 -11  13  48  182.81   66.72
  13  -2  48  138.42   54.75
 -11  13  48  146.35   57.26
  -2 -11  48  187.93   70.23
 -11  13  51  -15.71   17.22
 -11  13  51   64.36   42.97
  13  -2  51   34.21   33.00
 -11  13  54    7.78   15.20
  13  -2  54   76.40   42.71
   1  12  46   -4.75   32.01
   1  12  43  -47.76   37.79
   1  12  40   27.36   29.19
 -13   1  40   29.58   41.61
   1  12  37   24.09   38.87
 -13   1  37   -6.89   36.43
   1  12  34   69.95   41.60
 -13   1  34   -6.22   22.61
   1  12  31   72.63   41.25
 -13   1  31  163.85   67.20
   1  12  28   12.18   37.16
 -13   1  28   51.92   41.80
   1  12  25   42.53   34.64
 -13   1  25   30.74   22.57
  -1 -12 -22   32.21   22.83
   1  12  22    0.63   18.61
 -13   1  22   34.12   23.38
  -1 -12 -19   31.44   28.45
   1  12  19   15.45   14.12
 -13   1  19  -31.27   31.70
   1  12  16  -52.52   36.93
  -1 -12 -16  -19.70   33.49
 -13   1  16   18.70   17.18
  -1 -12 -13  -31.53   32.47
 -13   1  13   22.31   25.51
  -1 -12 -10   16.00   24.42
 -13   1  10   15.96   31.29
  -1 -12  -7  -40.86   29.95
 -13   1   7    9.58   31.27
  -1 -12  -4  -12.61   37.15
 -13   1   4   -6.01   29.46
  -1 -12  -1   60.60   38.41
 -13   1   1   34.65   29.39
  -1 -12   2    1.41   29.38
 -13   1  -2   67.38   35.31
  -1 -12   5   23.37   26.56
 -13   1  -5   67.24   39.20
  -1 -12   8   41.36   26.56
 -13   1  -8   76.61   42.37
  -1 -12  11    1.59   19.76
 -13   1 -11   48.22   34.28
  -1 -12  14   78.40   34.40
 -13   1 -14  187.44   64.47
  -1 -12  17  192.67   62.20
 -13   1 -17  185.70   66.59
  -1 -12  20    3.40   28.93
 -13   1 -20   62.45   42.24
  -1 -12  23   51.21   32.22
 -13   1 -23   32.03   31.19
  -1 -12  26   39.09   37.11
 -12  13  26    0.66   19.60
 -13   1 -26   43.26   31.71
  -1 -12  29  -44.47   31.20
 -13   1 -29    7.02   25.18
 -12  13  29   14.93   21.67
 -12  13  32   -6.06   17.61
  -1 -12  32  -10.71   22.25
 -13   1 -32   47.49   33.46
 -12  13  35   22.24   23.11
  -1 -12  35   43.49   40.90
 -13   1 -35   30.44   21.80
 -12  13  38  -10.95   24.56
  13  -1  38  -24.76   28.48
  -1 -12  38  -17.94   35.17
 -13   1 -38  -24.36   30.90
  13  -1  41  -33.96   34.14
  -1 -12  41  -35.97   37.84
 -13   1 -41    4.78   20.45
 -12  13  44  144.59   59.61
  13  -1  44   62.14   39.44
 -12  13  47   45.54   39.97
  13  -1  47  -55.92   39.71
   0  13  38   19.14   23.41
   0  13  35   49.82   25.53
   0  13  32   91.03   42.79
   0  13  29   20.08   32.24
 -13   0  29   22.42   19.88
   0  13  26   72.33   37.94
 -13   0  26   91.02   42.28
   0  13  23   59.04   31.27
 -13   0  23   76.40   74.85
   0  13  20  -41.71   25.44
 -13   0  20  -20.16   39.99
   0  13  17  -14.85   14.99
 -13   0  17   -4.74   19.72
   0  13  14   -6.78   20.51
 -13   0  14   -5.29   23.08
   0  13  11  -29.15   24.39
 -13   0  11   10.29   31.15
   0 -13  -8  -29.98   31.55
   0  13   8  -52.64   35.75
 -13   0   8   24.15   20.41
   0 -13  -5  -24.58   34.97
 -13   0   5   21.77   17.84
   0 -13  -2  -28.09   29.80
 -13   0   2  -20.34   32.99
   0 -13   1   25.16   16.26
 -13   0  -1   30.88   30.90
   0 -13   4  -16.35   25.99
 -13   0  -4   16.99   29.36
   0 -13   7  -12.03   25.74
 -13   0  -7   17.64   26.95
   0 -13  10   34.07   21.72
 -13   0 -10   63.71   34.75
   0 -13  13   55.94   39.27
 -13   0 -13  112.57   55.07
 -13  13  16   93.32   52.89
   0 -13  16   59.86   43.65
 -13   0 -16   25.32   33.14
 -13  13  19   16.89   20.77
   0 -13  19   42.26   30.84
 -13   0 -19   75.57   45.67
 -13  13  22   -9.67   28.49
   0 -13  22    7.35   28.67
 -13   0 -22   32.38   40.62
   0 -13  25   -8.27   17.67
 -13  13  25   16.31   27.82
 -13  13  28    2.21   26.71
   0 -13  28  -36.86   30.20
 -13   0 -28   21.78   22.45
 -13  13  31   89.41   48.94
   0 -13  31   36.53   31.61
 -13   0 -31   66.87   49.56
 -13   0 -34  -31.15   31.22
 -13  13  34    2.92   18.11
 -13  13  37  -30.88   42.81
 -13  -1 -24  -11.61   22.47
 -14  13  21   26.46   29.65
 -13  -1 -21   -5.04   22.04
 -14  13  18   17.69   21.15
   1 -14  18   -4.16   25.03
 -13  -1 -18   57.53   41.10
   1 -14  15   15.29   31.28
 -13  -1 -15   32.06   34.51
 -14  13  15    4.25   27.53
   1 -14  12    1.66   21.25
 -13  -1 -12   -2.25   36.01
 -14  13  12   86.35   41.87
 -14  13   9   13.61   17.59
 -13  -1  -9   74.57   38.88
 -14  13   6   20.66   23.24
 -13  -1  -6   10.01   25.02
 -14  13   3   29.94   29.28
 -13  -1  -3   36.94   37.20
 -14  13   0  111.71   53.49
  -1  14   0  -23.09   24.56
 -13  -1   0   57.96   45.79
  -1  14   3  -20.07   22.00
 -13  -1   3   18.18   33.52
  -1  14   6   31.68   17.85
 -13  -1   6    9.56   21.89
  -1  14   9  -21.33   26.15
 -13  -1   9  -35.60   30.73
 -13  -1  12   -2.84   25.90
  -1  14  12  -19.04   23.79
 -13  -1  15   41.90   42.67
  -1  14  15   -7.09   19.60
 -13  -1  18   37.06   54.64
  -1  14  18   53.47   30.20
  -1  14  21   27.44   29.22
  -1  14  24   36.18   28.77
 -14  12  37   13.41   18.20
 -14  12  34   20.35   34.85
 -14  12  31   80.25   48.22
 -12  -2 -31   66.53   38.77
 -14  12  28    3.92   20.20
 -12  -2 -28   30.62   19.75
 -14  12  25   11.11   21.76
 -12  -2 -25    9.37   18.79
 -12  -2 -22  -25.57   22.32
 -14  12  22  -37.26   33.37
 -12  -2 -19  -29.76   18.69
 -14  12  19    7.68   18.96
 -12  -2 -16   60.80   40.67
 -14  12  16   29.84   31.43
 -14  12  13   27.14   34.36
 -12  -2 -13   98.54   47.62
 -14  12  10   32.45   24.22
 -12  -2 -10    0.24   31.08
 -12  -2  -7    9.64   25.53
 -14  12   7   20.77   31.91
 -12  -2  -4  105.17   57.13
 -14  12   4  135.57   55.62
 -14  12   1   81.38   49.38
 -12  -2  -1   14.20   30.22
 -12  -2   2   32.10   38.86
 -14  12  -2  409.89  106.22
 -14  12  -5    3.65   18.64
 -12  -2   5   16.22   34.04
  -2  14   5   19.23   12.61
 -14  12  -8   79.67   46.41
 -12  -2   8   34.51   33.74
  -2  14   8   69.15   30.65
 -12  -2  11   21.55   29.39
  -2  14  11   28.45   26.21
 -14  12 -11   32.35   33.90
 -12  -2  14   64.38   44.98
  -2  14  14   44.07   28.41
 -14  12 -14   62.37   39.29
 -12  -2  17   41.37   38.50
  -2  14  17   65.48   37.44
 -12  -2  20   68.88   49.62
  -2  14  20   32.21   24.57
 -12  -2  23   -6.47   32.30
  -2  14  23   -1.92   14.30
 -12  -2  26   15.67   32.82
  -2  14  26  -11.53   12.65
 -12  -2  29   50.73   52.83
  -2  14  29  -49.18   34.20
  -2  14  32  -30.24   26.00
  -2  14  35   65.30   33.72
 -14  11  44  108.70   57.07
 -14  11  41   16.56   22.83
  11   3  41   -5.44   17.46
 -14  11  38   35.98   39.94
 -14  11  35   75.01   54.46
 -11  -3 -32    9.24   21.90
 -14  11  32    6.11   29.51
 -11  -3 -29  -46.67   34.93
 -14  11  29  -10.16   28.60
 -11  -3 -26  -69.25   40.39
 -14  11  26  -17.41   27.50
 -14  11  23  -22.13   29.10
 -11  -3 -23    9.78   22.04
 -14  11  20  -16.23   28.71
 -11  -3 -20   10.80   24.11
 -14  11  17  -50.05   41.55
 -11  -3 -17   32.23   26.59
 -11  -3 -14   -8.05   25.26
 -14  11  14  -45.66   36.23
 -11  -3 -11   -3.02   25.36
 -14  11  11   43.95   31.05
 -11  -3  -8  143.22   55.75
 -14  11   8  107.44   49.82
 -14  11   5   45.56   35.80
 -11  -3  -5    3.59   23.62
 -14  11   2   11.07   20.94
 -11  -3  -2   22.05   26.64
 -11  -3   1  122.47   60.97
 -14  11  -1   27.14   28.17
 -11  -3   4  182.84   67.85
 -14  11  -4  121.93   53.53
 -11  -3   7   81.95   51.79
 -14  11  -7   -7.98   15.74
 -14  11 -10   32.71   31.92
 -11  -3  10   53.51   42.79
 -14  11 -13   81.41   52.07
 -11  -3  13   45.79   36.06
  -3  14  13   58.11   27.08
 -11  -3  16  102.37   76.14
 -14  11 -16   72.17   42.67
  -3  14  16   46.65   22.74
 -14  11 -19   -5.70   22.48
 -11  -3  19  -10.63   27.35
  -3  14  19  -16.88   17.49
 -14  11 -22    5.88   24.73
 -11  -3  22  -33.65   30.35
  -3  14  22   52.95   48.00
 -11  -3  25   48.99   49.28
  -3  14  25    5.08   11.78
 -14  11 -25   22.26   23.21
 -14  11 -28   -3.80   23.07
 -11  -3  28    4.00   20.85
  -3  14  28   20.19   22.85
 -11  -3  31   61.07   45.03
  -3  14  31   48.70   29.90
 -14  11 -31   97.84   48.43
 -11  -3  34   40.36   41.68
  -3  14  34    8.48   15.77
 -14  11 -34   16.43   31.13
 -14  11 -37   36.09   33.44
  -3  14  37  -23.95   27.09
 -14  11 -40   99.31   47.49
  -3  14  40   52.47   30.01
  -3  14  43   47.44   37.32
 -14  10  48   16.23   18.78
 -14  10  45    6.27   35.35
 -14  10  42   53.33   42.48
  10   4  42   -8.64   25.85
 -14  10  39   84.80   47.51
  10   4  39   52.98   45.43
 -14  10  36  120.82   54.42
 -10  -4 -33   52.38   34.71
 -14  10  33   17.37   35.41
 -10  -4 -30   42.32   38.37
 -14  10  30  109.57   55.79
 -10  -4 -27   56.51   40.64
 -14  10  27  110.51   55.91
 -10  -4 -24   40.11   33.59
 -14  10  24   -4.64   20.64
 -10  -4 -21   24.25   28.38
 -14  10  21    7.93   18.78
 -10  -4 -18   -1.70   18.74
 -14  10  18   11.42   29.09
 -14  10  15   -2.39   18.20
 -10  -4 -15  -31.59   30.90
 -14  10  12   28.98   32.74
 -10  -4 -12  -51.83   39.87
 -14  10   9   30.35   28.23
 -10  -4  -9  -24.72   34.16
 -10  -4  -6   29.15   32.61
 -14  10   6  -24.98   30.35
 -10  -4  -3   65.44   40.45
 -14  10   3   51.36   42.28
 -10  -4   0  132.38   55.86
 -14  10   0  309.02   75.62
 -10  -4   3   41.07   38.53
 -14  10  -3   66.95   39.64
 -10  -4   6   16.18   29.92
 -14  10  -6   86.57   57.06
 -14  10  -9   38.06   28.74
 -10  -4   9  -11.19   27.88
 -14  10 -12   65.77   42.38
 -10  -4  12  124.93   53.07
 -14  10 -15   12.66   22.66
 -10  -4  15   -2.19   21.21
 -10  -4  18  -40.97   37.45
 -14  10 -18   -9.00   25.45
 -10  -4  21   63.04   41.60
 -14  10 -21   66.07   32.44
 -10  -4  24    8.89   24.59
 -14  10 -24  -21.23   26.91
 -10  -4  27   48.15   32.75
 -14  10 -27    4.39   22.41
  -4  14  27   38.82   25.31
 -10  -4  30   45.52   37.10
  -4  14  30   64.74   28.96
 -14  10 -30   25.41   21.17
 -10  -4  33  -29.57   35.54
  -4  14  33    5.11   18.68
 -14  10 -33   15.44   23.30
  -4  14  36   47.13   31.02
 -10  -4  36   66.68   47.34
  -4  14  36   43.44   29.02
 -14  10 -36  -26.92   27.33
 -14  10 -39   30.51   31.36
  -4  14  39  100.77   44.30
 -10  -4  39   68.52   49.42
  -4  14  39  139.81   48.31
 -14  10 -42  -17.29   18.59
  -4  14  42  112.91   44.98
 -10  -4  42   63.98   53.64
  -4  14  42   43.69   30.31
 -14  10 -45   -9.62   17.28
  -4  14  45   69.85   44.45
  -4  14  45   -2.29   31.01
 -14  10 -48   20.84   24.60
  -4  14  48  135.78   52.81
  -4  14  48  106.98   45.70
 -14   9  49   27.55   34.18
   9   5  46   24.72   34.42
 -14   9  46    3.00   18.52
   9   5  43   39.95   40.30
 -14   9  43    4.30   22.45
   9   5  40   34.28   24.67
 -14   9  40  -16.62   21.37
 -14   9  37    9.49   32.89
 -14   9  34   86.36   46.49
  -9  -5 -34   71.76   46.25
  -9  -5 -31  152.36   59.99
 -14   9  31  114.77   57.09
  -9  -5 -28   94.89   44.61
 -14   9  28   37.97   32.99
  -9  -5 -25  -44.09   26.22
 -14   9  25  -23.41   38.44
  -9  -5 -22  -13.68   29.91
 -14   9  22   22.44   30.20
  -9  -5 -19   14.32   18.50
 -14   9  19   22.23   20.50
  -9  -5 -16   31.29   25.58
 -14   9  16  -23.98   30.64
  -9  -5 -13   73.38   46.40
 -14   9  13   16.74   30.28
  -9  -5 -10  -13.03   28.18
 -14   9  10   17.22   22.06
  -9  -5  -7   32.17   31.87
 -14   9   7   30.97   21.01
  -9  -5  -4  175.16   65.14
 -14   9   4   58.03   40.25
 -14   9   1   13.33   25.39
  -9  -5  -1  106.46   57.01
 -14   9  -2   33.08   30.02
  -9  -5   2   70.46   49.98
  -9  -5   5   56.41   44.81
 -14   9  -5  -20.16   21.43
  -9  -5   8  199.72   69.22
 -14   9  -8  139.00   59.99
  -9  -5  11   74.70   42.59
 -14   9 -11   50.59   36.40
  -9  -5  14   22.75   30.67
 -14   9 -14    5.03   25.73
  -9  -5  17  172.89   69.63
  -5  14  17   69.19   33.02
 -14   9 -17   64.31   42.68
  -9  -5  20  103.87   58.01
  -5  14  20   40.55   31.81
 -14   9 -20   93.32   43.35
  -9  -5  23   87.69   52.84
  -5  14  23   10.71   23.41
 -14   9 -23   57.61   32.38
  -9  -5  26   45.43   52.10
  -5  14  26   10.45   18.33
 -14   9 -26   22.14   26.38
  -9  -5  29   17.86   22.74
  -5  14  29    6.74   18.75
 -14   9 -29   30.27   36.41
  -9  -5  32   30.35   30.94
  -5  14  32   -2.08   20.43
 -14   9 -32    7.10   23.90
  -9  -5  35   88.45   51.97
  -5  14  35   96.05   43.58
 -14   9 -35   51.89   36.94
  -9  -5  38   44.95   43.87
  -5  14  38   23.11   25.00
 -14   9 -38    3.95   17.42
  -9  -5  41   36.46   39.87
  -5  14  41    8.31   30.33
 -14   9 -41   -6.30   23.09
  -9  -5  44   62.84   46.57
  -5  14  44   99.88   39.18
 -14   9 -44   50.09   31.30
  -5  14  47   39.46   29.18
 -14   9 -47   -0.39   15.12
  -5  14  50  -14.19   27.36
 -14   9 -50  -46.35   31.33
 -14   8  53   20.60   37.56
 -14   8  50   41.22   37.18
 -14   8  47   10.17   21.07
   8   6  47    2.90   22.48
   8   6  44   61.62   44.58
 -14   8  44   56.21   43.87
   8   6  41   35.40   30.06
 -14   8  41  -22.84   32.76
   8   6  38    7.85   19.43
 -14   8  38   33.00   30.23
 -14   8  35  122.59   60.18
  -8  -6 -32   37.26   36.98
 -14   8  32   44.89   42.21
  -8  -6 -29   -0.81   20.82
 -14   8  29   34.89   32.21
 -14   8  26   15.92   23.79
  -8  -6 -26    6.39   21.93
  -8  -6 -23   32.89   35.61
 -14   8  23   66.87   44.48
  -8  -6 -20   12.23   20.24
 -14   8  20   -7.52   15.70
  -8  -6 -17    4.08   18.59
 -14   8  17   -7.14   21.57
  -8  -6 -14   12.05   22.46
 -14   8  14   36.69   24.24
  -8  -6 -11   -4.05   17.14
 -14   8  11  -27.64   32.07
  -8  -6  -8  -18.69   27.91
 -14   8   8   11.62   24.81
  -8  -6  -5   25.61   32.46
 -14   8   5  -16.84   15.49
  -8  -6  -2  -27.68   19.94
 -14   8   2  -23.89   29.37
  -8  -6   1   49.58   35.70
  -6  14   1   56.30   32.42
 -14   8  -1    1.00   18.90
  -8  -6   4   50.25   35.86
  -6  14   4   63.14   31.72
 -14   8  -4   78.03   37.13
  -8  -6   7   -9.01   31.46
  -6  14   7   43.38   28.43
 -14   8  -7   13.73   16.11
  -8  -6  10   76.37   44.99
  -6  14  10   43.09   27.72
 -14   8 -10   -5.18   16.69
  -8  -6  13   26.80   25.71
  -6  14  13   21.10   17.96
 -14   8 -13   38.90   30.31
  -8  -6  16   82.57   42.80
  -6  14  16   77.99   34.99
 -14   8 -16   84.76   40.51
 -14   8 -19   44.43   33.84
  -8  -6  19   48.03   34.19
  -6  14  19   67.53   33.30
 -14   8 -22  -11.26   21.79
  -8  -6  22   18.95   28.79
  -6  14  22   28.87   31.26
 -14   8 -25   44.92   36.23
  -8  -6  25   33.94   30.18
  -6  14  25   21.98   28.65
 -14   8 -28   -7.57   26.87
  -8  -6  28   -3.07   23.54
  -6  14  28   28.62   19.32
  -8  -6  31   79.81   53.42
 -14   8 -31   84.51   40.46
  -6  14  31   95.89   43.91
  -8  -6  34   92.60   49.02
 -14   8 -34   36.75   36.96
  -6  14  34    8.16   20.38
  -8  -6  37    1.05   27.89
 -14   8 -37  -12.20   23.53
  -6  14  37   33.88   34.51
  -8  -6  40   71.15   44.67
 -14   8 -40   28.38   29.38
  -6  14  40   83.36   37.85
  -8  -6  43   61.03   43.81
 -14   8 -43   28.72   28.81
  -6  14  43   50.83   30.45
  -8  -6  46   -5.72   29.50
 -14   8 -46  -22.10   14.75
  -6  14  46  -16.88   17.83
 -14   8 -49    8.07   17.69
  -6  14  49    8.57   31.48
 -14   8 -52   57.69   32.43
  -6  14  52   26.17   32.26
 -14   7  54    2.99   40.89
 -14   7  51   29.03   49.96
 -14   7  48   32.08   45.69
   7   7  48   78.96   40.13
 -14   7  45   49.81   52.89
   7   7  45   -4.04   25.65
 -14   7  42   24.45   33.08
   7   7  42   20.33   19.24
 -14   7  39   20.02   30.23
   7   7  39    5.46   21.24
   7   7  36  -12.32   27.76
 -14   7  36   45.68   42.12
 -14   7  33   12.89   25.14
  -7  -7 -33  -30.85   39.57
 -14   7  30  -16.08   30.71
  -7  -7 -30  -23.82   22.35
 -14   7  27  115.00   48.31
  -7  -7 -27  131.48   42.99
 -14   7  24    0.04   18.44
  -7  -7 -24   18.11   16.76
 -14   7  21   69.15   43.86
  -7  -7 -21   35.38   38.27
  -7  -7 -18   56.47   35.96
 -14   7  18  101.62   44.03
  -7  -7 -15  -28.68   33.94
 -14   7  15   -7.31   15.89
  -7  -7 -12  -21.47   33.62
 -14   7  12   25.88   25.71
  -7  -7  -9   52.37   21.66
 -14   7   9   22.45   27.45
  -7  -7  -6  -24.85   29.20
 -14   7   6   22.34   27.88
  -7  -7  -3   23.15   28.01
 -14   7   3   31.16   32.70
  -7  -7   0   35.25   25.36
 -14   7   0   -8.50   19.81
  -7  -7   3    9.59   20.16
 -14   7  -3   -8.88   19.25
  -7  -7   6   -8.73   22.89
 -14   7  -6  -35.32   36.01
  -7  -7   9   21.08   27.32
 -14   7  -9  -17.43   28.37
  -7  -7  12   98.54   47.30
 -14   7 -12   31.90   24.89
  -7  14  12  103.43   41.55
  -7  -7  15  -16.31   32.49
  -7  14  15   56.48   33.70
 -14   7 -15   27.05   28.52
  -7  -7  18  -11.16   18.18
  -7  14  18   13.93   13.57
 -14   7 -18   44.62   32.32
  -7  -7  21   40.21   35.90
  -7  14  21   40.83   29.70
 -14   7 -21   35.88   23.35
  -7  -7  24   44.29   26.36
  -7  14  24   28.94   25.26
 -14   7 -24   37.48   29.82
  -7  -7  27  151.75   60.49
  -7  14  27  120.17   43.67
 -14   7 -27   76.60   40.28
  -7  -7  30   41.74   46.67
  -7  14  30   -1.47   17.72
 -14   7 -30  -11.79   22.38
  -7  -7  33    1.18   20.96
  -7  14  33   60.93   37.91
 -14   7 -33   14.44   24.95
  -7  -7  36    5.65   22.03
  -7  14  36   39.94   32.69
 -14   7 -36   47.95   39.62
  -7  14  39  -11.83   18.21
 -14   7 -39   25.40   27.27
  -7  -7  42   44.52   31.44
  -7  14  42   -0.28   18.39
  -7  -7  45   64.00   58.17
  -7  14  45    5.31   21.56
 -14   7 -45    5.32   27.01
  -7  -7  48   61.04   39.49
  -7  14  48  108.15   47.60
 -14   7 -48  117.59   48.05
  -7  14  51   37.59   34.90
 -14   7 -51   20.30   28.11
  -7  14  54  -25.29   22.35
 -14   7 -54    5.13   23.50
 -14   6  52   63.86   62.40
 -14   6  49    4.38   25.60
 -14   6  46  -19.75   18.99
   6   8  46   16.41   22.65
 -14   6  43    9.25   19.95
   6   8  43   38.31   44.52
 -14   6  40   81.39   57.09
   6   8  40   45.64   43.83
 -14   6  37   24.74   40.88
   6   8  37  -48.51   38.19
 -14   6  34   66.00   50.15
   6   8  34  -27.86   30.44
 -14   6  31  116.29   53.46
  -6  -8 -31  138.85   53.01
 -14   6  28  -15.21   18.39
  -6  -8 -28   35.36   31.31
 -14   6  25  -31.81   27.94
  -6  -8 -25    8.45   23.35
 -14   6  22   47.27   29.38
  -6  -8 -22   35.92   27.60
 -14   6  19    7.98   22.35
  -6  -8 -19   25.56   33.02
 -14   6  16   -6.07   15.50
  -6  -8 -16   32.07   33.02
 -14   6  13  113.63   51.85
  -6  -8 -13   72.44   41.14
 -14   6  10   29.09   26.64
  -6  -8 -10   95.59   44.46
 -14   6   7    4.11   21.29
  -6  -8  -7   -1.83   23.98
 -14   6   4   52.19   33.62
  -6  -8  -4   69.31   39.70
 -14   6   1   34.59   25.82
  -6  -8  -1   37.42   26.68
 -14   6  -2   19.66   18.57
  -6  -8   2   20.40   20.07
  -6  -8   5   28.04   29.18
 -14   6  -5    1.21   15.23
 -14   6  -8  -23.15   36.22
  -6  -8   8   57.80   39.87
 -14   6 -11   -8.22   28.47
  -6  -8  11   52.67   42.29
 -14   6 -14  -29.67   31.67
  -6  -8  14   40.15   43.17
 -14   6 -17   32.15   31.56
  -6  -8  17   59.92   47.22
 -14   6 -20   59.67   37.85
  -6  -8  20   41.57   32.73
 -14   6 -23   79.67   36.31
  -8  14  23   49.45   28.06
  -6  -8  23   56.96   39.56
 -14   6 -26  -28.30   20.05
  -8  14  26   47.63   36.29
  -6  -8  26   34.46   36.97
 -14   6 -29  -15.35   15.42
  -8  14  29  -17.44   25.12
  -6  -8  29  -29.51   33.96
 -14   6 -32   62.80   38.92
  -8  14  32   -9.50   16.40
  -6  -8  32  -34.00   44.14
 -14   6 -35  196.19   62.79
  -8  14  35  158.73   54.98
  -6  -8  35  158.87   64.42
 -14   6 -38    9.94   23.56
  -8  14  38    4.57   15.85
  -6  -8  38   17.58   20.64
 -14   6 -41  -24.70   26.24
  -8  14  41   -1.82   15.46
  -6  -8  41  -40.01   42.94
 -14   6 -44   57.89   29.01
  -8  14  44   68.76   32.82
  -6  -8  44   -2.32   33.34
 -14   6 -47   17.22   13.53
  -6  -8  47   31.29   30.04
 -14   6 -50   53.46   26.47
  -8  14  50  -14.74   33.27
 -14   6 -53   94.31   38.30
  -8  14  53   22.35   23.19
 -14   5  47   58.74   48.93
   5   9  47  127.15   58.40
 -14   5  44   35.08   59.37
   5   9  44   70.46   46.27
 -14   5  41   12.50   27.60
   5   9  41   22.45   27.30
 -14   5  38    3.38   34.15
   5   9  38   30.39   27.35
 -14   5  35   37.95   43.03
   5   9  35   43.14   23.68
 -14   5  32   80.30   42.18
   5   9  32  -14.57   29.65
 -14   5  29   53.23   37.17
  -5  -9 -29   79.55   40.97
 -14   5  26   66.18   42.39
  -5  -9 -26   29.53   39.55
 -14   5  23   52.09   37.01
  -5  -9 -23   17.97   22.77
 -14   5  20   28.72   24.21
  -5  -9 -20   18.06   41.32
 -14   5  17  147.65   59.35
  -5  -9 -17   79.22   42.78
 -14   5  14   47.85   35.60
  -5  -9 -14   66.64   43.12
 -14   5  11   97.90   45.62
  -5  -9 -11   53.41   28.81
 -14   5   8   44.72   36.99
  -5  -9  -8   60.77   41.56
 -14   5   5   28.53   29.19
  -5  -9  -5  108.31   50.18
 -14   5   2   28.77   29.18
  -5  -9  -2   23.50   26.76
 -14   5  -1   24.18   27.22
  -5  -9   1   15.09   22.12
 -14   5  -4  109.95   48.58
  -5  -9   4   74.09   42.70
 -14   5  -7   -7.32   23.08
  -5  -9   7    2.39   27.29
 -14   5 -10  -20.40   27.69
  -5  -9  10    9.59   21.61
 -14   5 -13   -3.06   15.57
  -5  -9  13    6.26   22.32
 -14   5 -16  -22.75   28.12
  -5  -9  16   10.68   26.90
 -14   5 -19    8.20   16.32
  -5  -9  19   30.79   26.90
 -14   5 -22  -43.62   32.99
  -5  -9  22  -29.70   32.73
 -14   5 -25   -4.65   16.10
  -5  -9  25  -32.63   33.89
 -14   5 -28   -9.75   18.07
  -5  -9  28   94.44   53.72
  -9  14  31  179.78   59.50
  14  -5  31  138.72   46.61
 -14   5 -31  136.25   52.97
  -5  -9  31  126.51   58.91
  -9  14  34   73.81   40.64
  14  -5  34   29.20   26.02
 -14   5 -34   56.36   34.18
  -5  -9  34   31.65   37.72
  -9  14  37   20.23   21.76
  14  -5  37  -45.87   35.83
 -14   5 -37  -18.70   29.75
  -5  -9  37  -45.82   34.86
  -9  14  40  104.99   49.96
 -14   5 -40   15.50   14.51
  -5  -9  40   92.00   49.78
  -9  14  43   51.01   37.83
 -14   5 -43   10.46   16.14
  -5  -9  43    9.35   20.95
  -9  14  46    2.55   24.96
 -14   5 -46   26.61   26.14
  -9  14  49   46.10   34.97
 -14   5 -49   -1.17   20.79
   4  10  45   35.54   46.59
 -14   4  42    1.04   19.60
   4  10  42  -15.73   22.96
 -14   4  39   47.63   43.88
   4  10  39   41.69   35.81
 -14   4  36   38.40   33.29
   4  10  36   32.46   30.10
 -14   4  33   18.01   27.43
   4  10  33   15.34   27.31
 -14   4  30   -4.77   23.95
   4  10  30    1.92   18.67
  -4 -10 -30  -32.87   39.28
 -14   4  27   78.26   45.63
   4  10  27   34.48   14.48
  -4 -10 -27   83.23   44.63
 -14   4  24   26.68   22.83
  -4 -10 -24   -9.89   18.04
 -14   4  21    4.92   17.87
  -4 -10 -21    1.16   28.01
 -14   4  18   56.94   41.38
  -4 -10 -18   21.78   35.41
 -14   4  15   21.92   17.22
  -4 -10 -15   68.98   38.80
 -14   4  12   51.90   36.89
  -4 -10 -12   50.63   38.99
 -14   4   9    9.42   26.20
  -4 -10  -9   39.26   36.76
 -14   4   6    0.13   20.32
  -4 -10  -6   34.54   37.57
 -14   4   3    1.55   25.66
  -4 -10  -3   35.95   35.33
 -14   4   0  162.96   59.67
  -4 -10   0  194.29   70.46
 -14   4  -3   65.73   44.25
  -4 -10   3   27.23   31.86
 -14   4  -6   -6.84   19.07
  -4 -10   6    3.87   16.56
 -14   4  -9   20.84   28.34
  -4 -10   9   20.74   29.07
 -14   4 -12   44.37   33.85
  -4 -10  12  -12.87   24.98
 -14   4 -15   25.44   33.74
  -4 -10  15  -13.57   21.53
 -14   4 -18   37.94   29.73
  -4 -10  18  -59.99   48.01
 -14   4 -21   72.41   41.97
  -4 -10  21  -76.33   46.27
 -14   4 -24   35.51   26.30
  -4 -10  24  -40.08   28.92
 -14   4 -27  138.48   53.95
  -4 -10  27   61.20   47.48
 -14   4 -30   -6.79   19.25
  -4 -10  30   35.65   39.10
 -14   4 -33   52.78   37.53
  14  -4  33  -26.91   32.88
  -4 -10  33   -0.79   19.24
 -10  14  36  104.01   51.57
 -14   4 -36   17.79   32.67
  14  -4  36   27.14   23.57
  -4 -10  36   64.09   44.09
 -10  14  39  129.23   54.47
 -14   4 -39   65.27   41.03
  14  -4  39   57.69   33.90
  -4 -10  39  143.56   65.59
 -10  14  42   43.82   38.00
 -14   4 -42   44.98   34.99
  14  -4  42    6.49   25.02
  -4 -10  42   29.50   37.42
 -10  14  45   64.62   43.28
 -10  14  45   41.91   36.05
 -14   4 -45   35.27   30.07
  14  -4  45   84.01   43.64
 -10  14  48  110.68   50.82
 -10  14  48  631.90  109.72
   3  11  43   67.45   40.95
   3  11  40   76.31   47.32
   3  11  37    0.73   15.85
   3  11  34    0.17   23.41
 -14   3  34   -1.04   23.09
   3  11  31   84.74   41.74
 -14   3  31   48.69   34.04
 -14   3  28    7.30   22.37
   3  11  28   22.84   26.53
  -3 -11 -28   -3.11   18.70
 -14   3  25   12.98   20.28
   3  11  25  -30.00   34.08
  -3 -11 -25    3.87   17.65
 -14   3  22   28.36   31.16
   3  11  22   17.27   25.68
  -3 -11 -22   13.84   28.13
 -14   3  19   20.76   23.36
  -3 -11 -19   13.67   20.59
 -14   3  16  100.30   55.42
  -3 -11 -16   11.30   32.68
 -14   3  13   54.17   40.57
  -3 -11 -13   11.10   33.38
 -14   3  10   19.57   22.19
  -3 -11 -10   28.17   24.94
 -14   3   7   47.43   37.95
  -3 -11  -7   58.57   45.33
 -14   3   4  222.14   69.49
  -3 -11  -4  227.69   71.52
 -14   3   1   36.86   32.47
  -3 -11  -1   94.68   51.47
 -14   3  -2   -2.07   24.02
  -3 -11   2   59.57   43.83
 -14   3  -5   -9.25   24.92
  -3 -11   5   66.11   43.10
 -14   3  -8   83.83   42.20
  -3 -11   8   84.85   46.15
 -14   3 -11   -1.76   20.15
  -3 -11  11   26.38   29.28
 -14   3 -14   14.71   31.30
  -3 -11  14   44.52   38.56
 -14   3 -17   41.92   33.03
  -3 -11  17   72.42   43.93
 -14   3 -20  -72.03   39.13
  -3 -11  20   19.61   30.61
 -14   3 -23   24.02   25.15
  -3 -11  23   44.69   40.39
 -14   3 -26   -1.54   22.62
  -3 -11  26   68.38   44.39
 -14   3 -29  -12.34   25.75
  -3 -11  29   -4.40   23.36
 -14   3 -32    8.78   29.55
  -3 -11  32   88.55   48.27
 -14   3 -35  -11.21   19.74
  14  -3  35   48.83   33.08
  -3 -11  35   43.01   36.45
 -14   3 -38  -17.95   18.53
  14  -3  38   -5.46   14.68
 -11  14  38    6.48   29.21
 -14   3 -41  -27.68   21.90
  14  -3  41  -11.17   28.20
 -11  14  41    3.40   15.55
 -14   3 -44  201.46   59.66
 -11  14  44  134.57   59.95
  14  -3  44   52.04   35.34
 -11  14  44  110.03   51.89
   2  12  35  100.27   43.13
   2  12  32  -24.94   13.82
   2  12  29  -12.44   14.53
  -2 -12 -26   -1.87   23.06
   2  12  26   21.20   22.51
 -14   2  26  -15.67   39.39
  -2 -12 -23   31.26   23.20
   2  12  23   -2.93   18.07
 -14   2  23  -15.17   26.39
  -2 -12 -20   11.62   30.64
   2  12  20  -31.32   23.42
 -14   2  20    9.83   25.62
   2  12  17   27.92   12.09
  -2 -12 -17   -8.53   23.18
  -2 -12 -14   -6.57   19.99
 -14   2  14   45.65   38.52
  -2 -12 -11   -7.66   24.37
 -14   2  11    4.81   23.89
  -2 -12  -8   53.60   39.03
 -14   2   8   35.13   40.59
  -2 -12  -5  -28.51   25.63
 -14   2   5   45.81   29.99
 -14   2   2   13.58   21.00
  -2 -12  -2  -18.91   26.42
 -14   2  -1    7.78   20.79
  -2 -12   1  -13.62   28.56
 -14   2  -4   54.74   36.77
  -2 -12   4   64.57   44.08
 -14   2  -7  -14.12   25.27
  -2 -12   7    1.93   24.66
 -14   2 -10   36.93   38.16
  -2 -12  10   46.14   37.62
 -14   2 -13   28.85   29.64
  -2 -12  13    8.93   24.92
 -14   2 -16  -18.25   25.48
  -2 -12  16   47.68   36.17
 -14   2 -19   24.09   19.81
  -2 -12  19   -0.40   17.94
 -14   2 -22   11.40   23.78
  -2 -12  22   20.05   27.81
 -14   2 -25   19.18   17.45
  -2 -12  25   77.92   43.35
 -14   2 -28   32.45   26.80
  -2 -12  28  115.11   58.88
 -14   2 -31    9.17   21.42
 -12  14  31   48.26   33.22
 -14   2 -34  -32.20   32.19
 -12  14  34   15.03   15.87
 -14   2 -37  -12.64   23.32
  14  -2  37  -20.35   28.93
 -12  14  37  -45.62   33.84
   1  13  24  -33.52   29.73
   1  13  21   34.01   15.90
   1  13  18   37.42   33.66
  -1 -13 -15   25.83   30.96
   1  13  15  -50.95   38.34
 -14   1  15   61.35   40.84
  -1 -13 -12   -8.40   18.77
   1  13  12  -28.43   26.25
  -1 -13  -9  -36.95   39.90
 -14   1   9   16.95   22.88
  -1 -13  -6  -31.45   44.90
 -14   1   6   30.37   26.92
  -1 -13  -3   66.42   34.51
 -14   1   3   50.23   39.65
  -1 -13   0   22.92   30.03
 -14   1   0   37.36   33.81
  -1 -13   3  -31.86   29.62
 -14   1  -3   45.63   32.94
  -1 -13   6    0.85   19.61
 -14   1  -6  -38.27   34.58
  -1 -13   9   39.81   44.67
 -14   1  -9  -82.63   49.65
  -1 -13  12   28.13   40.87
 -14   1 -12  -18.54   24.19
  -1 -13  15   48.24   33.87
 -14   1 -15  -30.67   28.12
  -1 -13  18   29.81   27.37
 -14   1 -18  -17.04   25.89
 -13  14  21   44.51   33.96
  -1 -13  21  -11.74   23.99
 -14   1 -21  -12.58   17.98
 -13  14  24  -43.54   37.09
 -14   1 -24    8.03   21.96
 -12  -3 -18  -30.34   28.93
 -12  -3 -15  -28.25   31.49
 -12  -3 -12   -7.94   29.46
 -12  -3  -9  -25.72   33.07
 -12  -3  -6    8.64   34.85
 -12  -3  -3  -49.90   39.72
 -12  -3   0   46.53   39.54
 -12  -3   3   20.48   45.03
 -12  -3   6   12.88   21.50
 -12  -3   9  -13.23   36.21
 -12  -3  12    5.64   27.94
 -11  -4 -25  -18.25   31.39
 -11  -4 -22  -32.68   51.30
 -11  -4 -19   86.06   50.48
 -11  -4 -16   16.35   31.95
 -15  11  16   34.61   35.28
 -15  11  13   20.22   27.27
 -11  -4 -13  118.20   49.57
 -15  11  10   15.35   21.71
 -11  -4 -10   65.54   38.91
 -15  11   7   21.18   19.42
 -11  -4  -7   83.53   53.67
 -15  11   4  110.58   56.05
 -11  -4  -4  150.11   65.55
 -11  -4  -1   19.22   34.84
 -15  11   1   42.39   41.24
 -11  -4   2   19.40   37.43
 -15  11  -2   32.16   28.19
 -11  -4   5   10.49   25.87
 -15  11  -5   36.04   36.53
 -11  -4   8   84.48   47.82
 -15  11  -8   95.45   42.32
 -11  -4  11   16.41   21.15
 -15  11 -11   26.08   39.86
 -11  -4  14   58.99   46.90
 -15  11 -14   41.80   35.49
 -15  11 -17   58.30   38.45
 -11  -4  17   -7.31   24.08
 -15  11 -20    9.64   20.33
 -11  -4  20  -10.42   28.21
 -15  11 -23  -44.85   37.95
 -10  -5 -26    2.00   23.25
 -15  10  26   -4.51   18.04
 -10  -5 -23  -34.96   29.87
 -15  10  23   70.53   44.25
 -10  -5 -20    0.54   30.38
 -15  10  20   -6.96   21.88
 -10  -5 -17    0.89   22.44
 -15  10  17    2.27   20.60
 -10  -5 -14   81.85   45.46
 -15  10  14  -16.17   30.73
 -10  -5 -11   34.94   26.67
 -15  10  11   53.50   28.55
 -10  -5  -8   82.62   46.50
 -15  10   8   50.31   38.36
 -10  -5  -5  130.85   64.41
 -15  10   5   16.75   25.34
 -10  -5  -2   53.39   46.84
 -15  10   2    8.38   18.02
 -15  10  -1   43.11   34.18
 -10  -5   1   76.58   53.14
 -15  10  -4  123.82   48.43
 -10  -5   4   93.30   51.07
 -15  10  -7   -6.04   26.32
 -10  -5   7   86.54   50.31
 -10  -5  10  147.89   69.22
 -15  10 -10    7.31   26.50
 -10  -5  13   98.58   72.19
 -15  10 -13   46.26   27.22
 -10  -5  16   56.61   45.16
 -15  10 -16  -34.11   28.57
 -10  -5  19  -10.62   26.42
 -15  10 -19  -24.74   27.49
 -10  -5  22    9.70   28.96
 -15  10 -22  -22.74   33.19
 -10  -5  25   41.99   44.20
 -15  10 -25   14.50   17.98
 -15  10 -28  -15.85   31.14
 -15  10 -31  100.72   43.12
 -15  10 -34  102.79   43.14
 -15   9  30  -20.47   37.58
 -15   9  27  108.16   52.92
  -9  -6 -27  114.58   60.94
 -15   9  24   10.39   31.47
  -9  -6 -24   -7.51   33.85
  -9  -6 -21   -2.00   23.17
 -15   9  21   34.99   22.56
  -9  -6 -18   23.79   40.06
 -15   9  18   33.19   36.54
  -9  -6 -15    3.54   24.42
 -15   9  15   24.92   23.30
  -9  -6 -12   49.26   33.07
 -15   9  12    6.37   15.65
  -9  -6  -9  -20.88   25.14
 -15   9   9  -28.82   27.34
  -9  -6  -6   11.02   20.43
 -15   9   6   -0.55   21.98
  -9  -6  -3   29.00   41.66
 -15   9   3   49.49   35.87
  -9  -6   0   77.90   50.15
 -15   9   0   76.59   44.88
  -9  -6   3   72.08   44.40
 -15   9  -3   27.10   31.72
  -9  -6   6   70.56   46.16
 -15   9  -6   11.97   29.77
  -9  -6   9   83.70   45.16
 -15   9  -9   -4.52   23.60
  -9  -6  12   46.64   38.32
 -15   9 -12    9.07   16.10
  -9  -6  15   18.10   34.27
 -15   9 -15   11.34   18.44
  -9  -6  18   50.00   42.52
 -15   9 -18    7.44   24.87
 -15   9 -21   25.05   27.55
  -9  -6  21   51.66   49.79
 -15   9 -24   13.20   30.01
  -9  -6  24   32.46   36.67
 -15   9 -27   91.72   50.77
  -9  -6  27   19.03   28.72
 -15   9 -30   12.83   19.17
  -9  -6  30   99.88   91.15
 -15   9 -33   -2.42   15.26
 -15   9 -36  -16.77   34.49
  -6  15  36   60.02   35.16
 -15   8  31   15.28   16.69
 -15   8  28  -18.82   27.21
 -15   8  25  -17.69   31.43
  -8  -7 -25   35.61   32.45
  -8  -7 -22  -20.31   38.53
 -15   8  22   45.24   33.87
  -8  -7 -19  126.28   58.81
 -15   8  19   17.56   27.53
  -8  -7 -16   -4.04   19.97
 -15   8  16   93.96   48.43
  -8  -7 -13   94.28   51.06
 -15   8  13   13.48   21.53
  -8  -7 -10  -29.25   26.71
 -15   8  10   29.41   33.62
  -8  -7  -7    9.49   19.21
 -15   8   7   50.36   37.61
  -8  -7  -4   32.15   26.22
 -15   8   4   -6.04   17.21
  -8  -7  -1   21.15   34.72
 -15   8   1   -7.91   19.23
  -8  -7   2  -15.93   29.05
 -15   8  -2   -7.77   26.02
  -8  -7   5  -27.63   23.56
 -15   8  -5   32.22   25.32
  -8  -7   8   20.60   29.72
 -15   8  -8   76.27   39.24
  -8  -7  11   27.37   32.36
 -15   8 -11   74.51   43.60
  -8  -7  14   61.95   45.17
 -15   8 -14   84.45   45.02
  -8  -7  17   51.93   30.71
  -7  15  17   53.79   23.72
 -15   8 -17   74.54   43.14
  -8  -7  20   28.06   36.63
  -7  15  20   21.56   24.27
 -15   8 -20   -4.09   17.83
  -8  -7  23   70.26   43.59
  -7  15  23   49.71   29.09
 -15   8 -23   40.02   34.24
  -8  -7  26   13.43   35.45
  -7  15  26  -27.92   29.49
 -15   8 -26   31.68   33.95
  -8  -7  29   -1.67   32.49
  -7  15  29    4.42   23.74
 -15   8 -29   -8.00   30.23
  -8  -7  32   68.11   52.98
  -7  15  32   31.60   17.48
 -15   8 -32  -29.68   30.40
  -7  15  35   86.89   40.21
 -15   8 -35   22.90   22.38
  -7  15  38    8.95   31.69
 -15   8 -38  -20.88   30.51
 -15   7  32   19.20   35.84
 -15   7  29   -2.70   20.78
 -15   7  26    3.79   19.36
  -7  -8 -26  -24.25   39.70
 -15   7  23   30.41   30.64
  -7  -8 -23   22.42   24.40
 -15   7  20  -17.77   21.88
  -7  -8 -20   33.55   28.02
 -15   7  17   61.58   47.14
  -7  -8 -17   88.09   49.43
 -15   7  14   18.03   26.65
  -7  -8 -14   27.08   31.37
 -15   7  11   12.48   20.92
  -7  -8 -11  -26.43   35.17
 -15   7   8   24.43   32.49
  -7  -8  -8   50.32   36.93
 -15   7   5   65.08   37.36
  -7  -8  -5   51.52   23.32
 -15   7   2  -13.59   20.22
  -7  -8  -2  -18.05   25.48
 -15   7  -1  -15.69   26.01
  -7  -8   1  -34.28   37.87
 -15   7  -4   44.41   32.18
  -7  -8   4   60.77   48.04
  -7  -8   7  -14.38   30.11
 -15   7  -7  -69.34   41.92
  -7  -8  10   44.84   41.02
 -15   7 -10   -5.45   17.99
  -8  15  10   69.13   37.52
  -7  -8  13   13.16   30.37
 -15   7 -13   39.11   26.15
  -8  15  13   45.57   29.42
  -7  -8  16  -28.90   26.01
 -15   7 -16  -47.73   34.56
  -8  15  16   16.38   16.67
  -7  -8  19    4.10   24.63
 -15   7 -19   82.09   44.69
  -8  15  19   47.54   24.35
  -7  -8  22  -53.13   45.95
 -15   7 -22   13.67   26.99
  -8  15  22    5.40   21.76
  -7  -8  25  -54.82   48.32
 -15   7 -25    2.04   22.10
  -8  15  25  -13.01   22.53
  -7  -8  28  -13.64   32.94
 -15   7 -28  -18.24   24.41
  -8  15  28   40.53   33.29
  -7  -8  31   78.46   56.70
 -15   7 -31   63.17   39.83
  -8  15  31  143.99   51.58
 -15   7 -34   24.53   37.41
  -8  15  34  -80.18   46.03
 -15   7 -37  -62.18   28.44
  -8  15  37  -43.12   33.90
   6   9  33  -57.29   39.26
 -15   6  27   31.04   43.59
 -15   6  24   74.67   56.82
  -6  -9 -24  -38.58   35.77
 -15   6  21   53.47   42.52
  -6  -9 -21   39.65   42.74
 -15   6  18   69.41   48.45
  -6  -9 -18   76.34   47.98
 -15   6  15   24.72   34.13
  -6  -9 -15  -26.31   27.19
 -15   6  12    8.21   18.42
  -6  -9 -12   40.02   32.25
 -15   6   9   61.37   41.13
  -6  -9  -9   40.77   33.05
 -15   6   6   19.48   26.16
  -6  -9  -6  -16.32   21.34
 -15   6   3   52.47   39.22
  -6  -9  -3   20.23   28.45
 -15   6   0   92.36   51.70
  -6  -9   0   58.15   41.96
 -15   6  -3   15.19   36.71
  -6  -9   3  -46.63   40.46
 -15   6  -6   -2.80   24.38
  -6  -9   6   29.78   38.97
 -15   6  -9   66.04   40.92
  -6  -9   9   21.57   23.46
 -15   6 -12    6.67   18.83
  -6  -9  12    7.38   24.52
 -15   6 -15  -34.40   29.15
  -6  -9  15   14.79   19.33
 -15   6 -18  -24.20   35.12
  -6  -9  18   -3.29   29.53
  -9  15  21   -1.09   27.59
 -15   6 -21   43.85   31.04
  -6  -9  21   -4.82   23.19
  -9  15  24   58.58   33.81
 -15   6 -24   17.52   24.23
  -6  -9  24   44.83   40.35
  -9  15  27   66.89   38.67
 -15   6 -27  101.58   63.74
  -6  -9  27   94.19   47.53
  -9  15  30  -19.69   15.96
 -15   6 -30   -5.69   19.41
  -6  -9  30    2.97   27.32
  -9  15  33    6.41   22.16
 -15   6 -33   10.18   21.96
  -9  15  36  -29.94   27.99
 -15   6 -36  -23.56   26.67
   5  10  31  -14.79   30.32
   5  10  28  -19.23   21.32
  -5 -10 -25   27.92   17.68
 -15   5  22  -10.60   20.64
  -5 -10 -22   37.36   42.80
 -15   5  19   -5.57   31.84
  -5 -10 -19   91.65   42.61
 -15   5  16   27.03   29.94
  -5 -10 -16  -40.24   34.94
 -15   5  13   41.45   41.63
  -5 -10 -13   65.23   45.43
 -15   5  10  -12.49   17.71
  -5 -10 -10   -0.49   27.35
 -15   5   7   21.31   22.37
  -5 -10  -7  -12.53   30.70
 -15   5   4  124.69   51.75
  -5 -10  -4   99.22   50.04
 -15   5   1   84.91   48.83
  -5 -10  -1   -5.37   19.93
 -15   5  -2   21.35   34.84
  -5 -10   2  -34.69   33.76
 -15   5  -5    8.05   18.41
  -5 -10   5   66.79   40.29
 -15   5  -8   41.37   35.46
  -5 -10   8  104.93   54.75
 -15   5 -11   23.08   16.32
  -5 -10  11   32.70   33.26
 -15   5 -14  -55.57   36.10
  -5 -10  14  -27.27   37.77
 -15   5 -17   10.96   22.52
  -5 -10  17  -42.23   30.90
 -15   5 -20    2.85   16.96
  -5 -10  20   88.59   46.81
 -15   5 -23   17.80   34.71
  -5 -10  23   95.03   49.52
 -15   5 -26  -21.98   28.01
  -5 -10  26   39.62   36.13
 -10  15  29    9.05   17.26
 -15   5 -29  -24.13   26.06
 -10  15  32   87.97   45.93
 -15   5 -32    8.91   17.99
   4  11  29  -13.56   27.77
   4  11  26  -61.11   43.58
   4  11  23  -55.02   37.45
  -4 -11 -23   27.89   24.38
  -4 -11 -20   16.86   18.92
 -15   4  17   21.21   24.44
  -4 -11 -17   30.81   26.38
 -15   4  14    1.75   22.60
  -4 -11 -14   22.92   27.83
 -15   4  11    4.23   25.07
  -4 -11 -11  109.74   58.08
 -15   4   8   49.80   47.29
  -4 -11  -8   84.24   44.38
 -15   4   5   21.82   23.02
  -4 -11  -5   12.40   18.16
 -15   4   2   -9.28   18.97
  -4 -11  -2  120.09   60.40
 -15   4  -1   16.47   31.21
  -4 -11   1   81.38   42.13
 -15   4  -4  124.25   63.77
  -4 -11   4  142.31   61.15
 -15   4  -7   33.98   39.26
  -4 -11   7   90.78   52.27
 -15   4 -10  -58.63   37.38
  -4 -11  10   55.10   39.30
 -15   4 -13   -8.34   25.18
  -4 -11  13   48.60   38.12
 -15   4 -16    0.05   28.94
  -4 -11  16   19.50   25.88
 -15   4 -19   -1.80   30.09
  -4 -11  19  -21.59   29.90
 -15   4 -22   -0.22   17.23
  -4 -11  22   27.43   36.30
 -15   4 -25   34.59   32.55
 -15   4 -28   23.93   29.45
  -3 -12 -18   15.73   33.21
  -3 -12 -15   88.39   45.50
  -3 -12 -12   24.80   37.26
  -3 -12  -9  -25.01   34.78
 -15   3   6   -6.73   31.71
  -3 -12  -6  -42.39   37.24
 -15   3   3   39.85   25.26
  -3 -12  -3    4.05   26.75
 -15   3   0   56.76   37.70
  -3 -12   0   57.58   37.68
 -15   3  -3   19.53   32.01
  -3 -12   3   17.98   25.87
 -15   3  -6  -10.65   26.18
  -3 -12   6   28.74   31.60
 -15   3  -9   56.53   46.18
  -3 -12   9   24.44   31.30
 -15   3 -12   25.91   25.66
  -3 -12  12  -28.48   25.73
 -15   3 -15  -22.35   39.85
  -3 -12  15  -70.38   44.71
 -15   3 -18  -27.25   28.17
  -9  -7  -8   62.49   52.03
  -9  -7  -5  -10.39   28.88
  -9  -7  -2   22.96   22.65
  -9  -7   1   52.34   38.52
  -9  -7   4   21.73   26.02
  -9  -7   7   -3.57   21.07
  -9  -7  10   58.74   46.49
  -8  -8 -12   30.04   30.34
  -8  -8  -9   -0.06   31.86
  -8  -8  -6  -50.44   50.43
  -8  -8  -3   13.05   28.74
  -8  -8   0   37.99   37.81
  -8  -8   3  -18.11   26.52
  -8  -8   6   -8.66   43.87
  -8  -8   9   10.45   24.50
  -8  -8  12  -11.04   32.14
  -7  -9 -10   61.44   44.55
  -7  -9  -7   17.22   37.96
  -7  -9  -4   58.05   43.59
  -7  -9  -1   -2.38   33.74
  -7  -9   2   22.68   23.87
  -7  -9   5   14.64   22.98
  -7  -9   8   77.12   49.01
   0   0   0    0.00    0.00
;
_shelx_hkl_checksum              24889
_shelx_fab_file
;
    0    0   15     -8.11      0.00
    0    0   18     23.42      0.00
    0    0   21     26.99      0.00
    0    0   24     -0.93      0.00
    0    0   27    -30.58      0.00
    0    0   30    -35.76      0.00
    0    0   33    -18.90      0.00
    0    0   36    -15.06      0.00
    0    0   39     -8.51      0.00
    0    0   42      9.44      0.00
    0    0   45     21.65      0.00
    0    0   48      8.86      0.00
    0    0   51    -13.71      0.00
    0    0   54     -6.43      0.00
    0    0   57    -12.67      0.00
    0    0   60     -0.34      0.00
    0    0   63      8.83      0.00
    0    0   66     10.26      0.00
    0    0   69     -4.97      0.00
    0    0   72    -13.77      0.00
    0    0   75      8.26      0.00
    0    0   78     21.16      0.00
    0    0   81     14.50      0.00
    0    0   84     -7.75      0.00
    0    0   87      0.93      0.00
    0    0   90     -0.01      0.00
    0    0   93      3.36      0.00
    0    0   96      6.32      0.00
    0    0   99     12.11      0.00
    0    0  102      5.82      0.00
    0    0  105      6.92      0.00
    0    1  104      0.54      0.00
    0    1  101      5.95      0.00
    0    1   98      3.82      0.00
    0    1   95      7.78      0.00
    0    1   92      0.32      0.00
    0    1   89      3.77      0.00
    0    1   86      6.29      0.00
    0    1   83      5.90      0.00
    0    1   80     -7.98      0.00
    0    1   77      3.89      0.00
    0    1   74      7.86      0.00
    0    1   71      6.18      0.00
    0    1   68     -1.76      0.00
    0    1   65     -0.78      0.00
    0    1   62      8.48      0.00
    0    1   59     -0.23      0.00
    0    1   56     -4.36      0.00
    0    1   53     -9.37      0.00
    0    1   50     -2.28      0.00
    0    1   47    -10.73      0.00
    0    1   44      6.51      0.00
    0    1   41     14.82      0.00
    0    1   38      0.47      0.00
    0    1   35     -8.03      0.00
    0    1   32    -14.73      0.00
    0    1   29    -15.03      0.00
    0    1   26    -23.56      0.00
    0    1   23    -26.16      0.00
    0    1   20      2.38      0.00
    0    1   17      5.55      0.00
    0    1   14      6.34      0.00
    0    1   11     21.31      0.00
   -1    1   13    -42.44      0.00
   -1    1   16     -2.37      0.00
   -1    1   19    -19.82      0.00
   -1    1   22      4.28      0.00
   -1    1   25      5.96      0.00
   -1    1   28    -11.14      0.00
   -1    1   31    -15.46      0.00
   -1    1   34    -12.24      0.00
   -1    1   37      4.43      0.00
   -1    1   40     -1.29      0.00
   -1    1   43    -12.31      0.00
   -1    1   46      1.96      0.00
   -1    1   49      5.04      0.00
   -1    1   52      0.21      0.00
   -1    1   55     -9.76      0.00
   -1    1   58      0.96      0.00
   -1    1   61     -2.97      0.00
   -1    1   64      6.44      0.00
   -1    1   67     10.69      0.00
   -1    1   70      3.40      0.00
   -1    1   73     -8.83      0.00
   -1    1   76    -15.00      0.00
   -1    1   79      9.83      0.00
   -1    1   82     20.02      0.00
   -1    1   85     12.37      0.00
   -1    1   88     -5.13      0.00
   -1    1   91     -0.85      0.00
   -1    1   94     -1.68      0.00
   -1    1   97      4.45      0.00
   -1    1  100      5.59      0.00
   -1    1  103      6.40      0.00
   -1    1  106      0.81      0.00
    1    1  105      1.52      0.00
    1    1  102      4.63      0.00
    1    1   99     10.77      0.00
    1    1   96      2.56      0.00
    1    1   93     -5.83      0.00
    1    1   90     -8.14      0.00
    1    1   87     -1.55      0.00
    1    1   84     -1.49      0.00
    1    1   81     11.78      0.00
    1    1   78     12.04      0.00
    1    1   75      3.31      0.00
    1    1   72     -8.97      0.00
    1    1   69     -5.56      0.00
    1    1   66      2.98      0.00
    1    1   63      3.84      0.00
    1    1   60      1.90      0.00
    1    1   57     -4.70      0.00
    1    1   54      3.00      0.00
    1    1   51     -6.71      0.00
    1    1   48      5.23      0.00
    1    1   45      9.77      0.00
    1    1   42     -0.65      0.00
    1    1   39    -12.40      0.00
    1    1   36     -7.13      0.00
    1    1   33     -4.92      0.00
    1    1   30    -16.31      0.00
    1    1   27    -13.31      0.00
    1    1   24      0.99      0.00
    1    1   21     16.01      0.00
    1    1   18     16.04      0.00
    1    1   15     -4.74      0.00
    1    1   12     24.74      0.00
    1    1    9    -24.66      0.00
    1    1    6    -11.95      0.00
    1    1    3     67.60      0.00
   -1    2    0    189.77      0.00
   -1    2    3     61.32      0.00
   -1    2    6    -15.23      0.00
   -1    2    9    -31.31      0.00
   -1    2   12     12.27      0.00
   -1    2   15     -5.17      0.00
   -1    2   18     36.32      0.00
   -1    2   21     30.25      0.00
   -1    2   24     -3.94      0.00
   -1    2   27    -23.34      0.00
   -1    2   30    -16.58      0.00
   -1    2   33      0.21      0.00
   -1    2   36     -1.23      0.00
   -1    2   39    -11.92      0.00
   -1    2   42     -5.26      0.00
   -1    2   45      6.39      0.00
   -1    2   48      7.20      0.00
   -1    2   51     -6.18      0.00
   -1    2   54     -2.62      0.00
   -1    2   57    -12.44      0.00
   -1    2   60      1.97      0.00
   -1    2   63     10.99      0.00
   -1    2   66      6.15      0.00
   -1    2   69     -9.27      0.00
   -1    2   72    -11.41      0.00
   -1    2   75      4.06      0.00
   -1    2   78     12.73      0.00
   -1    2   81     14.18      0.00
   -1    2   84      0.72      0.00
   -1    2   87     -2.11      0.00
   -1    2   90     -8.17      0.00
   -1    2   93     -1.87      0.00
   -1    2   96      4.30      0.00
   -1    2   99      9.24      0.00
   -1    2  102      4.03      0.00
   -1    2  105      2.38      0.00
    0    2  106      1.54      0.00
    0    2  103      9.03      0.00
    0    2  100      2.51      0.00
    0    2   97     -6.26      0.00
    0    2   94    -12.08      0.00
    0    2   91      0.49      0.00
    0    2   88      5.73      0.00
    0    2   85     12.39      0.00
    0    2   82      6.63      0.00
    0    2   79      1.42      0.00
    0    2   76     -8.51      0.00
    0    2   73     -4.31      0.00
    0    2   70      2.46      0.00
    0    2   67      8.15      0.00
    0    2   64      3.95      0.00
    0    2   61     -6.97      0.00
    0    2   58      2.62      0.00
    0    2   55     -1.74      0.00
    0    2   52      2.17      0.00
    0    2   49     -1.07      0.00
    0    2   46     -2.57      0.00
    0    2   43    -13.46      0.00
    0    2   40     -2.46      0.00
    0    2   37      3.20      0.00
    0    2   34     -7.14      0.00
    0    2   31    -10.61      0.00
    0    2   28     -9.13      0.00
    0    2   25      4.75      0.00
    0    2   22     13.51      0.00
    0    2   19     -1.33      0.00
    0    2   16      9.78      0.00
    0    2   13    -11.49      0.00
    0    2   10     -4.56      0.00
    0    2    7     25.84      0.00
    0    2    4    119.73      0.00
    0    2    1     41.27      0.00
   -2    2    2      5.03      0.00
   -2    2    5      9.81      0.00
   -2    2    8     52.92      0.00
   -2    2   11     -5.12      0.00
   -2    2   14     16.79      0.00
   -2    2   17     26.16      0.00
   -2    2   20     12.40      0.00
   -2    2   23    -12.38      0.00
   -2    2   26    -11.05      0.00
   -2    2   29     -4.58      0.00
   -2    2   32     -7.50      0.00
   -2    2   35     -9.80      0.00
   -2    2   38     -1.57      0.00
   -2    2   41     12.72      0.00
   -2    2   44      6.47      0.00
   -2    2   47     -9.82      0.00
   -2    2   50      1.99      0.00
   -2    2   53     -2.80      0.00
   -2    2   56     -2.67      0.00
   -2    2   59     -3.88      0.00
   -2    2   62      2.99      0.00
   -2    2   65     -1.29      0.00
   -2    2   68      1.97      0.00
   -2    2   71      6.13      0.00
   -2    2   74      3.03      0.00
   -2    2   77     -1.90      0.00
   -2    2   80     -6.59      0.00
   -2    2   83      3.99      0.00
   -2    2   86      4.75      0.00
   -2    2   89     -0.72      0.00
   -2    2   92     -3.60      0.00
   -2    2   95      2.02      0.00
   -2    2   98      3.36      0.00
   -2    2  101      3.14      0.00
   -2    2  104     -1.64      0.00
   -3    2  106      2.57      0.00
   -3    2  103      7.59      0.00
   -3    2  100      1.89      0.00
   -3    2   97     -5.86      0.00
   -3    2   94     -6.26      0.00
   -3    2   91     -4.92      0.00
   -3    2   88     -6.11      0.00
   -3    2   85      0.53      0.00
   -3    2   82     10.24      0.00
   -3    2   79      6.34      0.00
   -3    2   76     -5.91      0.00
   -3    2   73     -8.11      0.00
   -3    2   70     -4.75      0.00
   -3    2   67     -0.30      0.00
   -3    2   64      5.40      0.00
   -3    2   61      4.38      0.00
   -3    2   58      5.86      0.00
   -3    2   55     -5.48      0.00
   -3    2   52      2.32      0.00
   -3    2   49      7.18      0.00
   -3    2   46      0.98      0.00
   -3    2   43    -18.07      0.00
   -3    2   40     -3.62      0.00
   -3    2   37     10.66      0.00
   -3    2   34      4.44      0.00
   -3    2   31      0.06      0.00
   -3    2   28     -4.44      0.00
   -3    2   25     -6.09      0.00
   -3    2   22     -6.69      0.00
   -3    2   19      0.05      0.00
   -3    2   16     21.77      0.00
   -3    2   13     13.87      0.00
   -3    2   10      5.31      0.00
   -3    2    7     10.42      0.00
   -3    2    4     66.80      0.00
   -3    2    1     23.11      0.00
   -1    3    2      3.27      0.00
   -1    3    5     -8.33      0.00
   -1    3    8     18.87      0.00
   -1    3   11      0.89      0.00
   -1    3   14     37.71      0.00
   -1    3   17     27.33      0.00
   -1    3   20      2.15      0.00
   -1    3   23     -9.76      0.00
   -1    3   26      6.82      0.00
   -1    3   29      8.42      0.00
   -1    3   32     -0.19      0.00
   -1    3   35    -10.53      0.00
   -1    3   38     -9.27      0.00
   -1    3   41     -0.16      0.00
   -1    3   44      1.85      0.00
   -1    3   47     -8.28      0.00
   -1    3   50     -1.86      0.00
   -1    3   53     -8.87      0.00
   -1    3   56     -0.61      0.00
   -1    3   59      2.23      0.00
   -1    3   62      2.59      0.00
   -1    3   65     -7.38      0.00
   -1    3   68     -0.42      0.00
   -1    3   71      3.48      0.00
   -1    3   74      1.76      0.00
   -1    3   77      6.29      0.00
   -1    3   80      4.52      0.00
   -1    3   83      0.09      0.00
   -1    3   86     -7.95      0.00
   -1    3   89      1.15      0.00
   -1    3   92      6.13      0.00
   -1    3   95      5.07      0.00
   -1    3   98     -5.61      0.00
   -1    3  101     -4.33      0.00
   -1    3  104     -3.98      0.00
    1    2  107      8.53      0.00
    1    2  104      0.64      0.00
    1    2  101     -6.60      0.00
    1    2   98     -6.46      0.00
    1    2   95      4.23      0.00
    1    2   92      1.10      0.00
    1    2   89     -3.79      0.00
    1    2   86     -3.61      0.00
    1    2   83      2.17      0.00
    1    2   80      0.25      0.00
    1    2   77      2.32      0.00
    1    2   74     -0.94      0.00
    1    2   71     -1.98      0.00
    1    2   68      0.70      0.00
    1    2   65      0.31      0.00
    1    2   62      4.32      0.00
    1    2   59     -1.62      0.00
    1    2   56      0.76      0.00
    1    2   53      1.60      0.00
    1    2   50      7.56      0.00
    1    2   47     -9.31      0.00
    1    2   44     -5.88      0.00
    1    2   41      0.57      0.00
    1    2   38     -3.49      0.00
    1    2   35     -5.71      0.00
    1    2   32     -2.34      0.00
    1    2   29     -1.68      0.00
    1    2   26     -6.19      0.00
    1    2   23     -3.02      0.00
    1    2   20      8.01      0.00
    1    2   17      8.53      0.00
    1    2   14     11.77      0.00
    1    2   11      8.86      0.00
    1    2    8     44.01      0.00
    1    2    5      8.16      0.00
    1    2    2      9.33      0.00
   -2    3    1     19.40      0.00
   -2    3    4     47.20      0.00
   -2    3    7     -7.31      0.00
   -2    3   10     10.51      0.00
   -2    3   13     17.12      0.00
   -2    3   16     14.65      0.00
   -2    3   19      5.71      0.00
   -2    3   22     23.88      0.00
   -2    3   25      9.29      0.00
   -2    3   28    -13.19      0.00
   -2    3   31    -15.86      0.00
   -2    3   34     -0.59      0.00
   -2    3   37     16.30      0.00
   -2    3   40     10.37      0.00
   -2    3   43    -13.27      0.00
   -2    3   46     -7.40      0.00
   -2    3   49     -2.63      0.00
   -2    3   52      0.25      0.00
   -2    3   55     -5.92      0.00
   -2    3   58     -0.85      0.00
   -2    3   61     -5.91      0.00
   -2    3   64      4.78      0.00
   -2    3   67      9.70      0.00
   -2    3   70      1.03      0.00
   -2    3   73     -8.23      0.00
   -2    3   76     -7.36      0.00
   -2    3   79      3.18      0.00
   -2    3   82      7.39      0.00
   -2    3   85      7.06      0.00
   -2    3   88     -0.35      0.00
   -2    3   91     -5.08      0.00
   -2    3   94     -5.28      0.00
   -2    3   97      0.51      0.00
   -2    3  100      1.90      0.00
   -2    3  103      4.19      0.00
    0    3  105     -6.13      0.00
    0    3  102     -4.19      0.00
    0    3   99     10.42      0.00
    0    3   96      5.18      0.00
    0    3   93     -8.22      0.00
    0    3   90    -17.43      0.00
    0    3   87     -1.56      0.00
    0    3   84      8.25      0.00
    0    3   81     12.07      0.00
    0    3   78      2.78      0.00
    0    3   75     -1.70      0.00
    0    3   72     -3.48      0.00
    0    3   69     -3.44      0.00
    0    3   66      3.54      0.00
    0    3   63      2.75      0.00
    0    3   60     -0.01      0.00
    0    3   57     -6.65      0.00
    0    3   54      5.79      0.00
    0    3   51     -1.63      0.00
    0    3   48     -1.02      0.00
    0    3   45     -4.31      0.00
    0    3   42     -9.98      0.00
    0    3   39    -15.84      0.00
    0    3   36     -1.68      0.00
    0    3   33     10.14      0.00
    0    3   30      3.38      0.00
    0    3   27    -10.41      0.00
    0    3   24     -9.45      0.00
    0    3   21     10.40      0.00
    0    3   18     31.78      0.00
    0    3   15     16.37      0.00
    0    3   12     16.22      0.00
    0    3    9    -12.00      0.00
    0    3    6     -3.57      0.00
    0    3    3     13.41      0.00
    0    3    0     51.68      0.00
   -3    3    3      5.72      0.00
   -3    3    6      4.24      0.00
   -3    3    9     11.78      0.00
   -3    3   12     17.86      0.00
   -3    3   15      1.74      0.00
   -3    3   18     15.09      0.00
   -3    3   21     11.69      0.00
   -3    3   24     -4.45      0.00
   -3    3   27     -6.92      0.00
   -3    3   30      3.84      0.00
   -3    3   33     16.69      0.00
   -3    3   36      7.50      0.00
   -3    3   39    -14.28      0.00
   -3    3   42     -7.00      0.00
   -3    3   45      4.24      0.00
   -3    3   48      3.33      0.00
   -3    3   51     -5.12      0.00
   -3    3   54      6.81      0.00
   -3    3   57      1.85      0.00
   -3    3   60     -0.39      0.00
   -3    3   63     -0.36      0.00
   -3    3   66      0.60      0.00
   -3    3   69     -6.08      0.00
   -3    3   72     -6.41      0.00
   -3    3   75      3.15      0.00
   -3    3   78      8.59      0.00
   -3    3   81      1.32      0.00
   -3    3   84     -4.66      0.00
   -3    3   87     -5.32      0.00
   -3    3   90     -3.47      0.00
   -3    3   93     -5.17      0.00
   -3    3   96      0.39      0.00
   -3    3   99      4.19      0.00
   -3    3  102      5.27      0.00
   -3    3  105      0.74      0.00
   -4    3  104      1.65      0.00
   -4    3  101     -2.92      0.00
   -4    3   98     -0.77      0.00
   -4    3   95     -1.62      0.00
   -4    3   92     -4.50      0.00
   -4    3   89    -10.22      0.00
   -4    3   86      2.56      0.00
   -4    3   83      3.59      0.00
   -4    3   80     -2.74      0.00
   -4    3   77     -6.10      0.00
   -4    3   74      0.23      0.00
   -4    3   71     -1.84      0.00
   -4    3   68     -0.44      0.00
   -4    3   65      4.56      0.00
   -4    3   62      4.78      0.00
   -4    3   59     -6.06      0.00
   -4    3   56     -3.59      0.00
   -4    3   53      5.84      0.00
   -4    3   50     10.56      0.00
   -4    3   47     -4.16      0.00
   -4    3   44      0.11      0.00
   -4    3   41      3.54      0.00
   -4    3   38     -2.23      0.00
   -4    3   35     -4.39      0.00
   -4    3   32      4.97      0.00
   -4    3   29      4.12      0.00
   -4    3   26     -7.17      0.00
   -4    3   23     -0.56      0.00
   -4    3   20      8.69      0.00
   -4    3   17     12.46      0.00
   -4    3   14      1.63      0.00
   -4    3   11      1.67      0.00
   -4    3    8     21.29      0.00
   -4    3    5     10.99      0.00
   -4    3    2      0.78      0.00
   -1    4    1      2.07      0.00
   -1    4    4     22.56      0.00
   -1    4    7     -0.14      0.00
   -1    4   10      6.69      0.00
   -1    4   13      2.57      0.00
   -1    4   16      9.12      0.00
   -1    4   19     13.01      0.00
   -1    4   22     29.69      0.00
   -1    4   25     10.20      0.00
   -1    4   28     -8.09      0.00
   -1    4   31    -10.09      0.00
   -1    4   34      0.75      0.00
   -1    4   37      4.03      0.00
   -1    4   40     -2.37      0.00
   -1    4   43    -11.80      0.00
   -1    4   46     -2.73      0.00
   -1    4   49     -1.99      0.00
   -1    4   52     -2.44      0.00
   -1    4   55     -7.40      0.00
   -1    4   58     -0.79      0.00
   -1    4   61     -5.23      0.00
   -1    4   64      2.02      0.00
   -1    4   67      0.95      0.00
   -1    4   70      0.10      0.00
   -1    4   73      1.80      0.00
   -1    4   76      5.11      0.00
   -1    4   79      2.77      0.00
   -1    4   82     -2.60      0.00
   -1    4   85      5.75      0.00
   -1    4   88      5.59      0.00
   -1    4   91     -1.08      0.00
   -1    4   94    -15.70      0.00
   -1    4   97     -7.07      0.00
   -1    4  100      1.46      0.00
   -1    4  103      8.71      0.00
    2    2  105     -4.77      0.00
    2    2  102     -2.61      0.00
    2    2   99      4.82      0.00
    2    2   96      0.49      0.00
    2    2   93     -9.77      0.00
    2    2   90     -6.35      0.00
    2    2   87     -0.11      0.00
    2    2   84     -2.19      0.00
    2    2   81     -1.94      0.00
    2    2   78      3.56      0.00
    2    2   75      0.17      0.00
    2    2   72     -2.12      0.00
    2    2   69      0.14      0.00
    2    2   66      2.11      0.00
    2    2   63     -3.79      0.00
    2    2   60     -2.20      0.00
    2    2   57      0.39      0.00
    2    2   54      9.37      0.00
    2    2   51      2.06      0.00
    2    2   48      4.89      0.00
    2    2   45      4.23      0.00
    2    2   42     -7.13      0.00
    2    2   39    -19.77      0.00
    2    2   36     -5.55      0.00
    2    2   33      8.97      0.00
    2    2   30      3.09      0.00
    2    2   27      2.02      0.00
    2    2   24      0.23      0.00
    2    2   21     -1.15      0.00
    2    2   18     -1.02      0.00
    2    2   15      7.10      0.00
    2    2   12     19.53      0.00
    2    2    9      6.36      0.00
    2    2    6      5.90      0.00
    2    2    3     15.97      0.00
   -2    4    0     35.70      0.00
   -2    4    3     -2.36      0.00
   -2    4    6     -8.37      0.00
   -2    4    9    -10.26      0.00
   -2    4   12      7.24      0.00
   -2    4   15     21.53      0.00
   -2    4   18     50.02      0.00
   -2    4   21     21.28      0.00
   -2    4   24    -14.50      0.00
   -2    4   27    -19.84      0.00
   -2    4   30      1.86      0.00
   -2    4   33     15.69      0.00
   -2    4   36     14.64      0.00
   -2    4   39     -6.80      0.00
   -2    4   42    -10.36      0.00
   -2    4   45     -4.23      0.00
   -2    4   48      0.20      0.00
   -2    4   51     -9.24      0.00
   -2    4   54     -4.10      0.00
   -2    4   57     -6.99      0.00
   -2    4   60      0.21      0.00
   -2    4   63      2.73      0.00
   -2    4   66      1.94      0.00
   -2    4   69     -2.14      0.00
   -2    4   72     -0.21      0.00
   -2    4   75      0.01      0.00
   -2    4   78     -0.29      0.00
   -2    4   81      7.31      0.00
   -2    4   84      5.54      0.00
   -2    4   87     -3.69      0.00
   -2    4   90    -10.49      0.00
   -2    4   93     -1.36      0.00
   -2    4   96      4.20      0.00
   -2    4   99      5.83      0.00
   -2    4  102      0.37      0.00
   -2    4  105     -1.27      0.00
    1    3  103      8.76      0.00
    1    3  100      4.06      0.00
    1    3   97     -7.94      0.00
    1    3   94    -14.36      0.00
    1    3   91     -2.62      0.00
    1    3   88      0.31      0.00
    1    3   85      3.79      0.00
    1    3   82      5.67      0.00
    1    3   79      3.02      0.00
    1    3   76     -3.89      0.00
    1    3   73     -3.55      0.00
    1    3   70      0.64      0.00
    1    3   67     -1.97      0.00
    1    3   64     -0.63      0.00
    1    3   61     -2.52      0.00
    1    3   58      6.51      0.00
    1    3   55      1.94      0.00
    1    3   52      4.88      0.00
    1    3   49      5.55      0.00
    1    3   46     -0.52      0.00
    1    3   43    -21.67      0.00
    1    3   40    -16.54      0.00
    1    3   37      3.53      0.00
    1    3   34      6.34      0.00
    1    3   31      0.94      0.00
    1    3   28     -1.70      0.00
    1    3   25      0.41      0.00
    1    3   22      3.15      0.00
    1    3   19      5.02      0.00
    1    3   16     10.01      0.00
    1    3   13     -0.39      0.00
    1    3   10      4.23      0.00
    1    3    7     14.36      0.00
    1    3    4     35.36      0.00
    1    3    1      3.05      0.00
   -3    4    2     -3.39      0.00
   -3    4    5     -0.12      0.00
   -3    4    8      8.53      0.00
   -3    4   11      0.61      0.00
   -3    4   14     23.61      0.00
   -3    4   17     22.30      0.00
   -3    4   20      4.28      0.00
   -3    4   23     -1.60      0.00
   -3    4   26      7.06      0.00
   -3    4   29      8.28      0.00
   -3    4   32      4.65      0.00
   -3    4   35     -5.99      0.00
   -3    4   38     -2.52      0.00
   -3    4   41      5.87      0.00
   -3    4   44      5.72      0.00
   -3    4   47     -7.62      0.00
   -3    4   50      0.92      0.00
   -3    4   53      0.46      0.00
   -3    4   56     -3.11      0.00
   -3    4   59     -4.64      0.00
   -3    4   62      0.62      0.00
   -3    4   65     -2.34      0.00
   -3    4   68     -2.18      0.00
   -3    4   71      2.35      0.00
   -3    4   74      3.15      0.00
   -3    4   77     -0.34      0.00
   -3    4   80     -2.48      0.00
   -3    4   83     -3.26      0.00
   -3    4   86     -0.81      0.00
   -3    4   89     -0.70      0.00
   -3    4   92      0.42      0.00
   -3    4   95     -1.49      0.00
   -3    4   98      1.82      0.00
   -3    4  101      2.91      0.00
    0    4  104     -0.18      0.00
    0    4  101     -7.61      0.00
    0    4   98    -13.53      0.00
    0    4   95      2.73      0.00
    0    4   92      3.68      0.00
    0    4   89      1.03      0.00
    0    4   86     -4.71      0.00
    0    4   83      1.80      0.00
    0    4   80      1.30      0.00
    0    4   77      2.89      0.00
    0    4   74      3.04      0.00
    0    4   71     -0.73      0.00
    0    4   68      0.54      0.00
    0    4   65     -0.57      0.00
    0    4   62      4.36      0.00
    0    4   59     -6.08      0.00
    0    4   56     -4.78      0.00
    0    4   53      1.57      0.00
    0    4   50      9.93      0.00
    0    4   47     -6.10      0.00
    0    4   44    -12.10      0.00
    0    4   41     -5.17      0.00
    0    4   38     -3.34      0.00
    0    4   35     -7.04      0.00
    0    4   32     -0.74      0.00
    0    4   29     10.94      0.00
    0    4   26     10.78      0.00
    0    4   23     -3.40      0.00
    0    4   20     -1.14      0.00
    0    4   17      4.42      0.00
    0    4   14     14.06      0.00
    0    4   11      8.79      0.00
    0    4    8     18.71      0.00
    0    4    5     -3.74      0.00
    0    4    2     -4.03      0.00
   -4    4    1     11.68      0.00
   -4    4    4     23.53      0.00
   -4    4    7     -3.37      0.00
   -4    4   10     -6.15      0.00
   -4    4   13     11.81      0.00
   -4    4   16     16.03      0.00
   -4    4   19     10.45      0.00
   -4    4   22      0.94      0.00
   -4    4   25     -2.63      0.00
   -4    4   28     -5.60      0.00
   -4    4   31     -3.64      0.00
   -4    4   34      4.23      0.00
   -4    4   37     11.73      0.00
   -4    4   40      7.83      0.00
   -4    4   43     -4.36      0.00
   -4    4   46      4.18      0.00
   -4    4   49      4.81      0.00
   -4    4   52     -2.62      0.00
   -4    4   55     -5.89      0.00
   -4    4   58      3.21      0.00
   -4    4   61      1.85      0.00
   -4    4   64     -2.28      0.00
   -4    4   67      3.13      0.00
   -4    4   70      6.34      0.00
   -4    4   73     -4.64      0.00
   -4    4   76     -8.94      0.00
   -4    4   79     -2.38      0.00
   -4    4   82      5.49      0.00
   -4    4   85     -2.79      0.00
   -4    4   88     -1.12      0.00
   -4    4   91     -5.72      0.00
   -4    4   94     -2.70      0.00
   -4    4   97     -2.29      0.00
   -4    4  100      5.54      0.00
   -4    4  103      5.44      0.00
   -5    4  102      1.67      0.00
   -5    4   99      3.65      0.00
   -5    4   96      2.67      0.00
   -5    4   93    -13.28      0.00
   -5    4   90     -7.44      0.00
   -5    4   87     -0.21      0.00
   -5    4   84      5.42      0.00
   -5    4   81     -2.32      0.00
   -5    4   78      4.73      0.00
   -5    4   75     -3.20      0.00
   -5    4   72     -7.01      0.00
   -5    4   69      0.53      0.00
   -5    4   66      8.15      0.00
   -5    4   63      0.04      0.00
   -5    4   60     -4.98      0.00
   -5    4   57      1.43      0.00
   -5    4   54      7.06      0.00
   -5    4   51      2.25      0.00
   -5    4   48      0.14      0.00
   -5    4   45     -0.83      0.00
   -5    4   42     -0.15      0.00
   -5    4   39      0.11      0.00
   -5    4   36      7.86      0.00
   -5    4   33      5.65      0.00
   -5    4   30     -5.70      0.00
   -5    4   27     -3.59      0.00
   -5    4   24     -0.63      0.00
   -5    4   21      2.96      0.00
   -5    4   18     -6.17      0.00
   -5    4   15      2.38      0.00
   -5    4   12      5.06      0.00
   -5    4    9      3.79      0.00
   -5    4    6     -2.51      0.00
   -5    4    3     16.08      0.00
   -1    5    0     29.07      0.00
   -1    5    3      1.65      0.00
   -1    5    6    -11.39      0.00
   -1    5    9     -3.87      0.00
   -1    5   12     14.18      0.00
   -1    5   15      9.89      0.00
   -1    5   18     21.63      0.00
   -1    5   21      7.21      0.00
   -1    5   24     -6.33      0.00
   -1    5   27     -7.00      0.00
   -1    5   30      7.02      0.00
   -1    5   33      5.59      0.00
   -1    5   36     -1.65      0.00
   -1    5   39     -3.38      0.00
   -1    5   42     -1.17      0.00
   -1    5   45     -2.72      0.00
   -1    5   48     -5.78      0.00
   -1    5   51     -4.12      0.00
   -1    5   54      5.16      0.00
   -1    5   57     -1.63      0.00
   -1    5   60     -4.93      0.00
   -1    5   63     -6.21      0.00
   -1    5   66      3.26      0.00
   -1    5   69      1.60      0.00
   -1    5   72      2.56      0.00
   -1    5   75      2.33      0.00
   -1    5   78      3.47      0.00
   -1    5   81      6.99      0.00
   -1    5   84      3.55      0.00
   -1    5   87     -0.91      0.00
   -1    5   90    -14.08      0.00
   -1    5   93     -5.20      0.00
   -1    5   96      0.95      0.00
   -1    5   99      5.98      0.00
   -1    5  102     -5.21      0.00
   -5    3  103      4.35      0.00
   -5    3  100      2.61      0.00
   -5    3   97     -8.49      0.00
   -5    3   94     -8.12      0.00
   -5    3   91     -2.20      0.00
   -5    3   88     -0.65      0.00
   -5    3   85     -5.71      0.00
   -5    3   82      6.68      0.00
   -5    3   79      5.70      0.00
   -5    3   76     -3.21      0.00
   -5    3   73     -6.25      0.00
   -5    3   70      0.82      0.00
   -5    3   67     -2.25      0.00
   -5    3   64     -1.86      0.00
   -5    3   61      1.09      0.00
   -5    3   58      5.13      0.00
   -5    3   55      1.58      0.00
   -5    3   52      3.20      0.00
   -5    3   49      3.57      0.00
   -5    3   46      0.54      0.00
   -5    3   43    -10.57      0.00
   -5    3   40     -5.41      0.00
   -5    3   37      3.00      0.00
   -5    3   34      0.95      0.00
   -5    3   31      2.85      0.00
   -5    3   28      4.66      0.00
   -5    3   25      0.43      0.00
   -5    3   22    -12.30      0.00
   -5    3   19     -2.63      0.00
   -5    3   16      4.24      0.00
   -5    3   13      7.18      0.00
   -5    3   10      2.59      0.00
   -5    3    7     15.05      0.00
   -5    3    4     25.80      0.00
   -5    3    1      4.60      0.00
   -2    5    2    -12.07      0.00
   -2    5    5     -9.58      0.00
   -2    5    8     10.76      0.00
   -2    5   11     14.20      0.00
   -2    5   14     32.01      0.00
   -2    5   17     17.81      0.00
   -2    5   20     -1.28      0.00
   -2    5   23     -9.94      0.00
   -2    5   26      4.59      0.00
   -2    5   29      5.51      0.00
   -2    5   32      7.83      0.00
   -2    5   35      1.75      0.00
   -2    5   38     -3.29      0.00
   -2    5   41     -3.61      0.00
   -2    5   44     -1.11      0.00
   -2    5   47     -7.55      0.00
   -2    5   50     -2.45      0.00
   -2    5   53     -1.47      0.00
   -2    5   56     -3.21      0.00
   -2    5   59     -7.93      0.00
   -2    5   62     -0.17      0.00
   -2    5   65      2.57      0.00
   -2    5   68      3.36      0.00
   -2    5   71     -1.83      0.00
   -2    5   74     -2.98      0.00
   -2    5   77      4.88      0.00
   -2    5   80      6.88      0.00
   -2    5   83      1.99      0.00
   -2    5   86     -7.32      0.00
   -2    5   89     -1.34      0.00
   -2    5   92     -0.79      0.00
   -2    5   95     -0.35      0.00
   -2    5   98     -7.14      0.00
   -2    5  101     -0.91      0.00
    2    3  101     -4.15      0.00
    2    3   98     -8.86      0.00
    2    3   95     -1.93      0.00
    2    3   92     -1.27      0.00
    2    3   89     -2.12      0.00
    2    3   86      5.31      0.00
    2    3   83      7.26      0.00
    2    3   80     -4.44      0.00
    2    3   77     -9.24      0.00
    2    3   74     -1.77      0.00
    2    3   71     -2.61      0.00
    2    3   68     -0.16      0.00
    2    3   65      3.47      0.00
    2    3   62      7.89      0.00
    2    3   59     -0.17      0.00
    2    3   56     -2.39      0.00
    2    3   53     -1.54      0.00
    2    3   50      3.59      0.00
    2    3   47     -4.59      0.00
    2    3   44     -4.96      0.00
    2    3   41      1.97      0.00
    2    3   38     -2.05      0.00
    2    3   35     -7.17      0.00
    2    3   32     -1.55      0.00
    2    3   29      4.63      0.00
    2    3   26     -4.40      0.00
    2    3   23     -2.54      0.00
    2    3   20      2.25      0.00
    2    3   17      4.41      0.00
    2    3   14      3.79      0.00
    2    3   11     10.09      0.00
    2    3    8     16.94      0.00
    2    3    5      2.45      0.00
    2    3    2     -2.52      0.00
   -3    5    1      5.93      0.00
   -3    5    4     18.03      0.00
   -3    5    7      3.30      0.00
   -3    5   10      6.72      0.00
   -3    5   13      7.79      0.00
   -3    5   16      9.95      0.00
   -3    5   19     12.29      0.00
   -3    5   22     19.31      0.00
   -3    5   25      2.73      0.00
   -3    5   28     -7.92      0.00
   -3    5   31     -9.65      0.00
   -3    5   34     -1.09      0.00
   -3    5   37      8.15      0.00
   -3    5   40     13.28      0.00
   -3    5   43     -2.29      0.00
   -3    5   46     -4.68      0.00
   -3    5   49      0.09      0.00
   -3    5   52     -0.42      0.00
   -3    5   55     -8.64      0.00
   -3    5   58     -4.96      0.00
   -3    5   61     -1.63      0.00
   -3    5   64     -0.09      0.00
   -3    5   67      1.99      0.00
   -3    5   70      2.35      0.00
   -3    5   73      1.61      0.00
   -3    5   76     -1.77      0.00
   -3    5   79     -3.18      0.00
   -3    5   82     -1.13      0.00
   -3    5   85      3.82      0.00
   -3    5   88      0.38      0.00
   -3    5   91     -6.98      0.00
   -3    5   94     -7.29      0.00
   -3    5   97      1.79      0.00
   -3    5  100      7.94      0.00
   -3    5  103     10.48      0.00
    1    4  102     -7.28      0.00
    1    4   99      3.96      0.00
    1    4   96      3.34      0.00
    1    4   93     -1.31      0.00
    1    4   90     -7.65      0.00
    1    4   87     -0.83      0.00
    1    4   84     -2.30      0.00
    1    4   81      2.60      0.00
    1    4   78      7.39      0.00
    1    4   75      0.12      0.00
    1    4   72     -5.08      0.00
    1    4   69     -1.31      0.00
    1    4   66      7.40      0.00
    1    4   63     -3.05      0.00
    1    4   60     -6.60      0.00
    1    4   57     -4.20      0.00
    1    4   54      8.55      0.00
    1    4   51      5.03      0.00
    1    4   48      1.31      0.00
    1    4   45      2.56      0.00
    1    4   42     -5.27      0.00
    1    4   39    -16.96      0.00
    1    4   36    -11.99      0.00
    1    4   33      8.22      0.00
    1    4   30      8.89      0.00
    1    4   27      1.29      0.00
    1    4   24     -0.34      0.00
    1    4   21      0.99      0.00
    1    4   18      2.16      0.00
    1    4   15      1.59      0.00
    1    4   12      9.79      0.00
    1    4    9     -1.25      0.00
    1    4    6     -0.42      0.00
    1    4    3     13.59      0.00
   -4    5    0     27.88      0.00
   -4    5    3      2.90      0.00
   -4    5    6     -9.63      0.00
   -4    5    9      1.01      0.00
   -4    5   12     13.59      0.00
   -4    5   15     16.49      0.00
   -4    5   18     14.48      0.00
   -4    5   21      0.50      0.00
   -4    5   24    -14.32      0.00
   -4    5   27    -11.93      0.00
   -4    5   30      0.69      0.00
   -4    5   33     10.92      0.00
   -4    5   36     15.04      0.00
   -4    5   39      4.06      0.00
   -4    5   42      0.01      0.00
   -4    5   45      0.32      0.00
   -4    5   48     -0.27      0.00
   -4    5   51     -3.56      0.00
   -4    5   54      1.03      0.00
   -4    5   57      1.59      0.00
   -4    5   60     -2.22      0.00
   -4    5   63      3.71      0.00
   -4    5   66      6.29      0.00
   -4    5   69     -1.89      0.00
   -4    5   72    -10.27      0.00
   -4    5   75     -5.00      0.00
   -4    5   78      4.33      0.00
   -4    5   81      3.34      0.00
   -4    5   84      1.15      0.00
   -4    5   87     -7.86      0.00
   -4    5   90     -6.79      0.00
   -4    5   93     -2.95      0.00
   -4    5   96      7.44      0.00
   -4    5   99      7.34      0.00
    0    5  100      1.57      0.00
    0    5   97     -5.68      0.00
    0    5   94    -16.69      0.00
    0    5   91     -2.25      0.00
    0    5   88      3.46      0.00
    0    5   85      9.93      0.00
    0    5   82      7.38      0.00
    0    5   79      1.89      0.00
    0    5   76     -4.89      0.00
    0    5   73     -2.96      0.00
    0    5   70      5.50      0.00
    0    5   67     -2.17      0.00
    0    5   64     -2.22      0.00
    0    5   61     -0.42      0.00
    0    5   58      8.03      0.00
    0    5   55     -1.71      0.00
    0    5   52     -5.11      0.00
    0    5   49      2.18      0.00
    0    5   46      6.15      0.00
    0    5   43     -2.93      0.00
    0    5   40    -11.57      0.00
    0    5   37      0.89      0.00
    0    5   34      6.67      0.00
    0    5   31      1.70      0.00
    0    5   28     -3.08      0.00
    0    5   25      1.31      0.00
    0    5   22      4.72      0.00
    0    5   19     -1.26      0.00
    0    5   16     10.71      0.00
    0    5   13      3.37      0.00
    0    5   10     -5.42      0.00
    0    5    7     -5.43      0.00
    0    5    4     20.60      0.00
    0    5    1     13.93      0.00
   -5    5    2      3.47      0.00
   -5    5    5      9.63      0.00
   -5    5    8     12.43      0.00
   -5    5   11      2.38      0.00
   -5    5   14     -6.84      0.00
   -5    5   17      1.01      0.00
   -5    5   20     -2.86      0.00
   -5    5   23     -3.04      0.00
   -5    5   26     -5.67      0.00
   -5    5   29      0.88      0.00
   -5    5   32      5.16      0.00
   -5    5   35      4.83      0.00
   -5    5   38      1.26      0.00
   -5    5   41     -2.56      0.00
   -5    5   44     -0.57      0.00
   -5    5   47      5.11      0.00
   -5    5   50     10.36      0.00
   -5    5   53      6.20      0.00
   -5    5   56     -3.20      0.00
   -5    5   59     -0.65      0.00
   -5    5   62      3.23      0.00
   -5    5   65     -0.34      0.00
   -5    5   68     -6.41      0.00
   -5    5   71      0.64      0.00
   -5    5   74      8.21      0.00
   -5    5   77      0.45      0.00
   -5    5   80      1.26      0.00
   -5    5   83     -3.95      0.00
   -5    5   86     -5.50      0.00
   -5    5   89    -10.39      0.00
   -5    5   92      4.01      0.00
   -5    5   95      1.64      0.00
   -5    5   98      2.00      0.00
   -6    5   97     -8.47      0.00
   -6    5   94     -9.98      0.00
   -6    5   91     -1.73      0.00
   -6    5   88      9.89      0.00
   -6    5   85     -3.14      0.00
   -6    5   82      1.31      0.00
   -6    5   79     -0.65      0.00
   -6    5   76     -0.62      0.00
   -6    5   73     -1.50      0.00
   -6    5   70      7.01      0.00
   -6    5   67      3.91      0.00
   -6    5   64      0.94      0.00
   -6    5   61      2.71      0.00
   -6    5   58      0.54      0.00
   -6    5   55     -2.01      0.00
   -6    5   52     -4.17      0.00
   -6    5   49      0.32      0.00
   -6    5   46      7.92      0.00
   -6    5   43      9.91      0.00
   -6    5   40      3.03      0.00
   -6    5   37     -4.04      0.00
   -6    5   34     -6.66      0.00
   -6    5   31     -1.35      0.00
   -6    5   28      0.41      0.00
   -6    5   25      1.71      0.00
   -6    5   22     -8.58      0.00
   -6    5   19     -3.01      0.00
   -6    5   16     -4.95      0.00
   -6    5   13     -0.05      0.00
   -6    5   10     -3.72      0.00
   -6    5    7     11.60      0.00
   -6    5    4     15.81      0.00
   -6    5    1      5.86      0.00
   -1    6    2      6.07      0.00
   -1    6    5     14.42      0.00
   -1    6    8     10.74      0.00
   -1    6   11    -14.39      0.00
   -1    6   14     -0.75      0.00
   -1    6   17      7.05      0.00
   -1    6   20      6.59      0.00
   -1    6   23      0.30      0.00
   -1    6   26      7.76      0.00
   -1    6   29     -0.05      0.00
   -1    6   32     -6.82      0.00
   -1    6   35      2.19      0.00
   -1    6   38      2.04      0.00
   -1    6   41     -0.82      0.00
   -1    6   44     -2.64      0.00
   -1    6   47      7.51      0.00
   -1    6   50      8.04      0.00
   -1    6   53     -1.59      0.00
   -1    6   56     -6.91      0.00
   -1    6   59     -4.07      0.00
   -1    6   62      5.00      0.00
   -1    6   65     -1.77      0.00
   -1    6   68      0.59      0.00
   -1    6   71      3.00      0.00
   -1    6   74      6.93      0.00
   -1    6   77      2.74      0.00
   -1    6   80      0.41      0.00
   -1    6   83      0.65      0.00
   -1    6   86     -4.58      0.00
   -1    6   89      2.28      0.00
   -1    6   92      1.51      0.00
   -1    6   95      0.97      0.00
   -1    6   98    -10.38      0.00
   -6    4   98     -7.08      0.00
   -6    4   95     -1.94      0.00
   -6    4   92      3.86      0.00
   -6    4   89     -7.11      0.00
   -6    4   86      0.62      0.00
   -6    4   83      7.32      0.00
   -6    4   80      4.07      0.00
   -6    4   77     -7.18      0.00
   -6    4   74     -0.40      0.00
   -6    4   71     -0.86      0.00
   -6    4   68      0.89      0.00
   -6    4   65      5.16      0.00
   -6    4   62      4.73      0.00
   -6    4   59     -3.53      0.00
   -6    4   56     -7.10      0.00
   -6    4   53     -3.79      0.00
   -6    4   50      3.97      0.00
   -6    4   47      4.82      0.00
   -6    4   44      0.90      0.00
   -6    4   41     -2.14      0.00
   -6    4   38     -1.45      0.00
   -6    4   35      1.91      0.00
   -6    4   32      3.22      0.00
   -6    4   29     -0.12      0.00
   -6    4   26    -12.54      0.00
   -6    4   23     -3.85      0.00
   -6    4   20      1.57      0.00
   -6    4   17      8.95      0.00
   -6    4   14     -2.06      0.00
   -6    4   11      1.86      0.00
   -6    4    8      0.73      0.00
   -6    4    5      2.29      0.00
   -6    4    2      4.62      0.00
   -2    6    1     17.14      0.00
   -2    6    4     18.88      0.00
   -2    6    7     -3.77      0.00
   -2    6   10      0.50      0.00
   -2    6   13      7.49      0.00
   -2    6   16      9.81      0.00
   -2    6   19      0.67      0.00
   -2    6   22     11.60      0.00
   -2    6   25      3.27      0.00
   -2    6   28     -3.01      0.00
   -2    6   31     -1.76      0.00
   -2    6   34     -0.80      0.00
   -2    6   37     -1.77      0.00
   -2    6   40      1.46      0.00
   -2    6   43      2.82      0.00
   -2    6   46     -0.13      0.00
   -2    6   49      0.18      0.00
   -2    6   52     -1.84      0.00
   -2    6   55     -6.10      0.00
   -2    6   58     -1.31      0.00
   -2    6   61     -1.02      0.00
   -2    6   64      1.74      0.00
   -2    6   67      3.07      0.00
   -2    6   70      4.60      0.00
   -2    6   73      0.38      0.00
   -2    6   76     -2.13      0.00
   -2    6   79      0.34      0.00
   -2    6   82     -1.35      0.00
   -2    6   85      3.86      0.00
   -2    6   88     -0.47      0.00
   -2    6   91     -2.22      0.00
   -2    6   94    -12.25      0.00
   -2    6   97     -3.45      0.00
   -2    6  100      0.90      0.00
    3    3   99     -0.56      0.00
    3    3   96     -0.33      0.00
    3    3   93     -5.69      0.00
    3    3   90     -2.82      0.00
    3    3   87      6.40      0.00
    3    3   84      2.71      0.00
    3    3   81     -6.70      0.00
    3    3   78     -0.08      0.00
    3    3   75      1.00      0.00
    3    3   72     -1.87      0.00
    3    3   69      0.15      0.00
    3    3   66      5.26      0.00
    3    3   63     -1.46      0.00
    3    3   60     -6.28      0.00
    3    3   57     -7.02      0.00
    3    3   54      0.20      0.00
    3    3   51      3.75      0.00
    3    3   48      4.00      0.00
    3    3   45      3.11      0.00
    3    3   42     -1.63      0.00
    3    3   39     -8.70      0.00
    3    3   36     -7.65      0.00
    3    3   33      1.46      0.00
    3    3   30     -1.59      0.00
    3    3   27      2.72      0.00
    3    3   24      3.78      0.00
    3    3   21      5.29      0.00
    3    3   18     -3.90      0.00
    3    3   15     -0.46      0.00
    3    3   12     -0.25      0.00
    3    3    9      1.77      0.00
    3    3    6      2.40      0.00
    3    3    3     12.85      0.00
   -3    6    0     21.99      0.00
   -3    6    3      6.76      0.00
   -3    6    6     -2.37      0.00
   -3    6    9     -3.50      0.00
   -3    6   12      6.17      0.00
   -3    6   15     10.13      0.00
   -3    6   18     26.13      0.00
   -3    6   21     13.10      0.00
   -3    6   24     -6.92      0.00
   -3    6   27    -17.06      0.00
   -3    6   30     -8.50      0.00
   -3    6   33      1.95      0.00
   -3    6   36     13.61      0.00
   -3    6   39      6.67      0.00
   -3    6   42     -4.49      0.00
   -3    6   45     -0.36      0.00
   -3    6   48      3.89      0.00
   -3    6   51     -5.46      0.00
   -3    6   54     -7.50      0.00
   -3    6   57     -2.15      0.00
   -3    6   60      0.44      0.00
   -3    6   63      3.28      0.00
   -3    6   66      6.69      0.00
   -3    6   69      3.90      0.00
   -3    6   72     -5.30      0.00
   -3    6   75     -6.46      0.00
   -3    6   78     -3.72      0.00
   -3    6   81      4.97      0.00
   -3    6   84      1.48      0.00
   -3    6   87     -3.43      0.00
   -3    6   90    -10.52      0.00
   -3    6   93     -3.03      0.00
   -3    6   96      1.82      0.00
   -3    6   99      6.27      0.00
    2    4  100     -1.47      0.00
    2    4   97     -3.18      0.00
    2    4   94     -8.25      0.00
    2    4   91      0.87      0.00
    2    4   88      2.51      0.00
    2    4   85      2.71      0.00
    2    4   82      5.08      0.00
    2    4   79      2.74      0.00
    2    4   76     -6.82      0.00
    2    4   73     -8.22      0.00
    2    4   70      0.54      0.00
    2    4   67     -1.59      0.00
    2    4   64     -0.65      0.00
    2    4   61      0.01      0.00
    2    4   58      4.93      0.00
    2    4   55      2.42      0.00
    2    4   52      0.16      0.00
    2    4   49      0.53      0.00
    2    4   46     -1.63      0.00
    2    4   43     -7.75      0.00
    2    4   40     -9.80      0.00
    2    4   37      3.50      0.00
    2    4   34      4.01      0.00
    2    4   31      3.36      0.00
    2    4   28      0.07      0.00
    2    4   25     -0.46      0.00
    2    4   22     -5.24      0.00
    2    4   19     -0.46      0.00
    2    4   16      5.94      0.00
    2    4   13      3.51      0.00
    2    4   10      1.06      0.00
    2    4    7      3.39      0.00
    2    4    4     14.86      0.00
    2    4    1      7.34      0.00
   -4    6    2      1.84      0.00
   -4    6    5      1.14      0.00
   -4    6    8      8.62      0.00
   -4    6   11      8.01      0.00
   -4    6   14     16.26      0.00
   -4    6   17      9.30      0.00
   -4    6   20     -6.17      0.00
   -4    6   23    -11.48      0.00
   -4    6   26     -2.26      0.00
   -4    6   29      0.71      0.00
   -4    6   32      4.21      0.00
   -4    6   35      2.49      0.00
   -4    6   38     -1.12      0.00
   -4    6   41      2.21      0.00
   -4    6   44      7.38      0.00
   -4    6   47      1.91      0.00
   -4    6   50     -1.86      0.00
   -4    6   53      2.03      0.00
   -4    6   56     -0.05      0.00
   -4    6   59      0.94      0.00
   -4    6   62      2.40      0.00
   -4    6   65      2.59      0.00
   -4    6   68     -4.70      0.00
   -4    6   71     -2.43      0.00
   -4    6   74     -0.65      0.00
   -4    6   77      0.56      0.00
   -4    6   80     -2.87      0.00
   -4    6   83     -4.79      0.00
   -4    6   86     -4.25      0.00
   -4    6   89      0.06      0.00
   -4    6   92      2.93      0.00
   -4    6   95      0.02      0.00
   -4    6   98     -3.47      0.00
    1    5   98     -9.33      0.00
    1    5   95      1.91      0.00
    1    5   92      4.86      0.00
    1    5   89      4.97      0.00
    1    5   86     -1.78      0.00
    1    5   83      0.06      0.00
    1    5   80     -1.93      0.00
    1    5   77     -1.30      0.00
    1    5   74      2.40      0.00
    1    5   71     -3.29      0.00
    1    5   68     -1.05      0.00
    1    5   65      1.43      0.00
    1    5   62      7.91      0.00
    1    5   59     -0.68      0.00
    1    5   56     -5.05      0.00
    1    5   53     -2.56      0.00
    1    5   50      5.18      0.00
    1    5   47      6.63      0.00
    1    5   44     -1.92      0.00
    1    5   41      1.60      0.00
    1    5   38     -1.93      0.00
    1    5   35     -1.49      0.00
    1    5   32     -4.18      0.00
    1    5   29      2.29      0.00
    1    5   26      1.05      0.00
    1    5   23      0.15      0.00
    1    5   20      6.42      0.00
    1    5   17      3.84      0.00
    1    5   14     -0.28      0.00
    1    5   11     -8.93      0.00
    1    5    8      4.19      0.00
    1    5    5      3.46      0.00
    1    5    2      8.86      0.00
   -5    6    1     13.05      0.00
   -5    6    4     17.64      0.00
   -5    6    7      2.46      0.00
   -5    6   10     -4.30      0.00
   -5    6   13     -0.70      0.00
   -5    6   16     -0.30      0.00
   -5    6   19      3.34      0.00
   -5    6   22      4.40      0.00
   -5    6   25     -4.15      0.00
   -5    6   28    -14.22      0.00
   -5    6   31     -7.75      0.00
   -5    6   34      1.04      0.00
   -5    6   37      4.69      0.00
   -5    6   40      7.12      0.00
   -5    6   43      9.27      0.00
   -5    6   46      5.87      0.00
   -5    6   49      3.67      0.00
   -5    6   52     -0.63      0.00
   -5    6   55      1.81      0.00
   -5    6   58     -0.27      0.00
   -5    6   61      1.15      0.00
   -5    6   64     -0.56      0.00
   -5    6   67      6.78      0.00
   -5    6   70      4.85      0.00
   -5    6   73     -3.31      0.00
   -5    6   76     -6.17      0.00
   -5    6   79     -3.52      0.00
   -5    6   82      0.25      0.00
   -5    6   85     -1.51      0.00
   -5    6   88      3.43      0.00
   -5    6   91     -4.15      0.00
   -5    6   94     -6.42      0.00
   -5    6   97     -3.81      0.00
    0    6   96      2.50      0.00
    0    6   93     -1.98      0.00
    0    6   90    -12.45      0.00
    0    6   87     -1.05      0.00
    0    6   84      7.93      0.00
    0    6   81     10.38      0.00
    0    6   78      6.59      0.00
    0    6   75     -0.47      0.00
    0    6   72     -1.96      0.00
    0    6   69     -5.17      0.00
    0    6   66      3.63      0.00
    0    6   63     -0.42      0.00
    0    6   60     -0.78      0.00
    0    6   57     -1.20      0.00
    0    6   54      7.19      0.00
    0    6   51      7.75      0.00
    0    6   48     -0.67      0.00
    0    6   45      2.12      0.00
    0    6   42      1.87      0.00
    0    6   39      3.95      0.00
    0    6   36     -5.81      0.00
    0    6   33      2.65      0.00
    0    6   30      5.34      0.00
    0    6   27      2.08      0.00
    0    6   24      0.16      0.00
    0    6   21      1.69      0.00
    0    6   18      1.33      0.00
    0    6   15    -11.23      0.00
    0    6   12      3.13      0.00
    0    6    9      3.18      0.00
    0    6    6      2.68      0.00
    0    6    3      0.04      0.00
    0    6    0     18.69      0.00
   -6    6    3     16.39      0.00
   -6    6    6      5.05      0.00
   -6    6    9     -0.29      0.00
   -6    6   12     -3.78      0.00
   -6    6   15     -1.67      0.00
   -6    6   18     -1.12      0.00
   -6    6   21      1.65      0.00
   -6    6   24    -10.03      0.00
   -6    6   27    -10.62      0.00
   -6    6   30     -8.12      0.00
   -6    6   33     -1.06      0.00
   -6    6   36      3.60      0.00
   -6    6   39     10.83      0.00
   -6    6   42      5.29      0.00
   -6    6   45     -1.84      0.00
   -6    6   48     -2.78      0.00
   -6    6   51      5.63      0.00
   -6    6   54      3.05      0.00
   -6    6   57      2.95      0.00
   -6    6   60      1.61      0.00
   -6    6   63      7.01      0.00
   -6    6   66      5.18      0.00
   -6    6   69     -0.41      0.00
   -6    6   72     -1.85      0.00
   -6    6   75     -0.31      0.00
   -6    6   78      3.12      0.00
   -6    6   81      0.00      0.00
   -6    6   84      8.89      0.00
   -6    6   87     -2.29      0.00
   -6    6   90    -10.61      0.00
   -6    6   93    -11.91      0.00
   -6    6   96      2.49      0.00
   -7    6   95     -1.32      0.00
   -7    6   92      4.74      0.00
   -7    6   89     -6.80      0.00
   -7    6   86     -5.10      0.00
   -7    6   83      1.57      0.00
   -7    6   80      9.66      0.00
   -7    6   77      1.53      0.00
   -7    6   74      3.36      0.00
   -7    6   71      1.70      0.00
   -7    6   68      4.85      0.00
   -7    6   65      4.43      0.00
   -7    6   62      1.79      0.00
   -7    6   59      1.57      0.00
   -7    6   56      0.09      0.00
   -7    6   53     -0.02      0.00
   -7    6   50      2.45      0.00
   -7    6   47      7.48      0.00
   -7    6   44     -0.38      0.00
   -7    6   41     -3.29      0.00
   -7    6   38     -0.88      0.00
   -7    6   35      3.35      0.00
   -7    6   32     -1.06      0.00
   -7    6   29     -2.30      0.00
   -7    6   26    -11.74      0.00
   -7    6   23     -6.64      0.00
   -7    6   20     -1.32      0.00
   -7    6   17      5.83      0.00
   -7    6   14     -3.06      0.00
   -7    6   11     -1.59      0.00
   -7    6    8     -1.96      0.00
   -7    6    5      2.10      0.00
   -7    6    2     16.15      0.00
   -1    7    1     21.84      0.00
   -1    7    4     10.58      0.00
   -1    7    7    -14.12      0.00
   -1    7   10     -1.94      0.00
   -1    7   13      2.65      0.00
   -1    7   16      1.68      0.00
   -1    7   19     -4.08      0.00
   -1    7   22      7.51      0.00
   -1    7   25      1.75      0.00
   -1    7   28     -7.56      0.00
   -1    7   31      0.83      0.00
   -1    7   34      3.10      0.00
   -1    7   37      4.38      0.00
   -1    7   40      0.17      0.00
   -1    7   43     11.25      0.00
   -1    7   46      6.60      0.00
   -1    7   49      1.96      0.00
   -1    7   52     -2.49      0.00
   -1    7   55      0.16      0.00
   -1    7   58      1.25      0.00
   -1    7   61     -4.37      0.00
   -1    7   64      4.81      0.00
   -1    7   67      5.76      0.00
   -1    7   70      3.69      0.00
   -1    7   73     -4.10      0.00
   -1    7   76      2.91      0.00
   -1    7   79      2.64      0.00
   -1    7   82      1.26      0.00
   -1    7   85      7.51      0.00
   -1    7   88      7.22      0.00
   -1    7   91      0.05      0.00
   -1    7   94     -9.98      0.00
   -7    5   96      3.41      0.00
   -7    5   93     -7.43      0.00
   -7    5   90     -8.98      0.00
   -7    5   87      1.94      0.00
   -7    5   84     11.04      0.00
   -7    5   81      0.98      0.00
   -7    5   78      3.15      0.00
   -7    5   75      1.87      0.00
   -7    5   72      1.69      0.00
   -7    5   69      0.97      0.00
   -7    5   66      1.75      0.00
   -7    5   63     -2.15      0.00
   -7    5   60     -1.45      0.00
   -7    5   57      0.34      0.00
   -7    5   54      1.75      0.00
   -7    5   51      2.24      0.00
   -7    5   48     -2.55      0.00
   -7    5   45     -4.17      0.00
   -7    5   42      2.41      0.00
   -7    5   39      6.51      0.00
   -7    5   36      1.62      0.00
   -7    5   33     -1.53      0.00
   -7    5   30     -8.68      0.00
   -7    5   27     -2.96      0.00
   -7    5   24      1.00      0.00
   -7    5   21      8.34      0.00
   -7    5   18     -3.88      0.00
   -7    5   15     -4.72      0.00
   -7    5   12    -10.83      0.00
   -7    5    9     -1.86      0.00
   -7    5    6      9.16      0.00
   -7    5    3     21.98      0.00
   -2    7    0     15.37      0.00
   -2    7    3     -5.36      0.00
   -2    7    6     -1.76      0.00
   -2    7    9      3.47      0.00
   -2    7   12      3.16      0.00
   -2    7   15     -6.41      0.00
   -2    7   18     10.65      0.00
   -2    7   21      7.69      0.00
   -2    7   24     -2.91      0.00
   -2    7   27     -1.58      0.00
   -2    7   30      3.46      0.00
   -2    7   33      0.66      0.00
   -2    7   36     -2.83      0.00
   -2    7   39      4.69      0.00
   -2    7   42     -0.04      0.00
   -2    7   45      3.12      0.00
   -2    7   48      3.91      0.00
   -2    7   51      2.13      0.00
   -2    7   54     -3.29      0.00
   -2    7   57     -6.62      0.00
   -2    7   60      2.31      0.00
   -2    7   63     10.34      0.00
   -2    7   66      9.77      0.00
   -2    7   69     -5.42      0.00
   -2    7   72     -6.39      0.00
   -2    7   75      0.01      0.00
   -2    7   78      1.65      0.00
   -2    7   81      4.39      0.00
   -2    7   84      3.00      0.00
   -2    7   87      1.46      0.00
   -2    7   90     -9.51      0.00
   -2    7   93     -3.93      0.00
   -2    7   96     -2.33      0.00
   -7    4   97     -5.00      0.00
   -7    4   94     -9.58      0.00
   -7    4   91     -0.47      0.00
   -7    4   88      7.08      0.00
   -7    4   85      1.49      0.00
   -7    4   82      3.87      0.00
   -7    4   79      5.92      0.00
   -7    4   76     -2.08      0.00
   -7    4   73     -8.33      0.00
   -7    4   70     -2.55      0.00
   -7    4   67     -0.42      0.00
   -7    4   64      1.93      0.00
   -7    4   61      3.38      0.00
   -7    4   58      1.23      0.00
   -7    4   55     -4.35      0.00
   -7    4   52     -7.51      0.00
   -7    4   49     -4.72      0.00
   -7    4   46      2.51      0.00
   -7    4   43      2.85      0.00
   -7    4   40     -1.49      0.00
   -7    4   37      2.90      0.00
   -7    4   34      2.47      0.00
   -7    4   31      1.91      0.00
   -7    4   28     -2.88      0.00
   -7    4   25      0.15      0.00
   -7    4   22     -5.80      0.00
   -7    4   19      1.06      0.00
   -7    4   16     -0.10      0.00
   -7    4   13      3.75      0.00
   -7    4   10      0.35      0.00
   -7    4    7      3.55      0.00
   -7    4    4      6.78      0.00
   -7    4    1      4.39      0.00
   -3    7    2      5.03      0.00
   -3    7    5      2.02      0.00
   -3    7    8      1.72      0.00
   -3    7   11     -5.51      0.00
   -3    7   14     13.54      0.00
   -3    7   17     14.37      0.00
   -3    7   20      0.91      0.00
   -3    7   23     -9.37      0.00
   -3    7   26      0.00      0.00
   -3    7   29      2.35      0.00
   -3    7   32      1.56      0.00
   -3    7   35      1.35      0.00
   -3    7   38     -5.58      0.00
   -3    7   41      1.35      0.00
   -3    7   44      8.09      0.00
   -3    7   47      2.02      0.00
   -3    7   50     -7.09      0.00
   -3    7   53     -3.27      0.00
   -3    7   56      1.86      0.00
   -3    7   59      5.49      0.00
   -3    7   62      8.57      0.00
   -3    7   65      2.36      0.00
   -3    7   68     -4.07      0.00
   -3    7   71     -0.60      0.00
   -3    7   74     -1.41      0.00
   -3    7   77     -2.16      0.00
   -3    7   80     -5.74      0.00
   -3    7   83     -0.84      0.00
   -3    7   86     -6.79      0.00
   -3    7   89     -1.81      0.00
   -3    7   92     -1.84      0.00
   -3    7   95      2.28      0.00
   -3    7   98     -3.31      0.00
    3    4   98     -3.60      0.00
    3    4   95     -0.17      0.00
    3    4   92      1.70      0.00
    3    4   89      0.20      0.00
    3    4   86     -1.09      0.00
    3    4   83      5.95      0.00
    3    4   80     -0.05      0.00
    3    4   77     -8.56      0.00
    3    4   74     -6.55      0.00
    3    4   71     -2.05      0.00
    3    4   68      2.45      0.00
    3    4   65      5.25      0.00
    3    4   62      3.79      0.00
    3    4   59     -3.98      0.00
    3    4   56     -7.68      0.00
    3    4   53     -5.61      0.00
    3    4   50     -0.13      0.00
    3    4   47      1.71      0.00
    3    4   44     -2.01      0.00
    3    4   41      4.22      0.00
    3    4   38      3.60      0.00
    3    4   35      0.88      0.00
    3    4   32     -6.14      0.00
    3    4   29     -1.76      0.00
    3    4   26     -3.24      0.00
    3    4   23      4.90      0.00
    3    4   20      5.78      0.00
    3    4   17      4.98      0.00
    3    4   14      0.36      0.00
    3    4   11     -2.42      0.00
    3    4    8      0.73      0.00
    3    4    5      2.10      0.00
    3    4    2      5.90      0.00
   -4    7    1      0.88      0.00
   -4    7    4      5.37      0.00
   -4    7    7     -0.09      0.00
   -4    7   10      9.85      0.00
   -4    7   13      6.49      0.00
   -4    7   16     -1.72      0.00
   -4    7   19     -6.56      0.00
   -4    7   22      7.65      0.00
   -4    7   25      4.71      0.00
   -4    7   28     -6.75      0.00
   -4    7   31     -8.93      0.00
   -4    7   34     -5.44      0.00
   -4    7   37      4.22      0.00
   -4    7   40     11.09      0.00
   -4    7   43      5.84      0.00
   -4    7   46     -4.19      0.00
   -4    7   49      1.03      0.00
   -4    7   52      1.99      0.00
   -4    7   55     -0.03      0.00
   -4    7   58      1.88      0.00
   -4    7   61      6.54      0.00
   -4    7   64      1.45      0.00
   -4    7   67      3.48      0.00
   -4    7   70      0.30      0.00
   -4    7   73     -4.16      0.00
   -4    7   76    -12.56      0.00
   -4    7   79     -5.53      0.00
   -4    7   82     -3.09      0.00
   -4    7   85      4.09      0.00
   -4    7   88      1.94      0.00
   -4    7   91     -1.07      0.00
   -4    7   94    -11.27      0.00
   -4    7   97     -7.26      0.00
    2    5   96     -2.43      0.00
    2    5   93     -3.17      0.00
    2    5   90     -8.31      0.00
    2    5   87      3.43      0.00
    2    5   84      7.16      0.00
    2    5   81      1.57      0.00
    2    5   78     -5.19      0.00
    2    5   75     -5.09      0.00
    2    5   72     -1.59      0.00
    2    5   69     -1.52      0.00
    2    5   66      1.05      0.00
    2    5   63      0.43      0.00
    2    5   60      2.65      0.00
    2    5   57      0.20      0.00
    2    5   54      0.34      0.00
    2    5   51      2.86      0.00
    2    5   48     -1.38      0.00
    2    5   45      0.34      0.00
    2    5   42     -2.32      0.00
    2    5   39      1.84      0.00
    2    5   36     -2.22      0.00
    2    5   33      3.73      0.00
    2    5   30     -0.57      0.00
    2    5   27      1.42      0.00
    2    5   24     -0.36      0.00
    2    5   21      0.21      0.00
    2    5   18      4.72      0.00
    2    5   15      2.73      0.00
    2    5   12      2.69      0.00
    2    5    9     -4.69      0.00
    2    5    6      1.62      0.00
    2    5    3     -2.05      0.00
   -5    7    0      7.90      0.00
   -5    7    3      3.38      0.00
   -5    7    6      7.61      0.00
   -5    7    9     -0.32      0.00
   -5    7   12     -3.08      0.00
   -5    7   15     -1.88      0.00
   -5    7   18     10.91      0.00
   -5    7   21      1.49      0.00
   -5    7   24    -17.76      0.00
   -5    7   27    -14.39      0.00
   -5    7   30      0.35      0.00
   -5    7   33      5.99      0.00
   -5    7   36      4.32      0.00
   -5    7   39      6.06      0.00
   -5    7   42      0.39      0.00
   -5    7   45      1.45      0.00
   -5    7   48      2.14      0.00
   -5    7   51      5.88      0.00
   -5    7   54      3.00      0.00
   -5    7   57      5.81      0.00
   -5    7   60      1.39      0.00
   -5    7   63      4.79      0.00
   -5    7   66      0.67      0.00
   -5    7   69     -1.17      0.00
   -5    7   72     -5.94      0.00
   -5    7   75     -1.10      0.00
   -5    7   78     -2.20      0.00
   -5    7   81     -0.86      0.00
   -5    7   84      0.20      0.00
   -5    7   87     -1.89      0.00
   -5    7   90     -8.92      0.00
   -5    7   93     -7.57      0.00
   -5    7   96      1.12      0.00
    1    6   94     -9.84      0.00
    1    6   91      1.65      0.00
    1    6   88      8.86      0.00
    1    6   85      5.47      0.00
    1    6   82     -3.81      0.00
    1    6   79     -0.83      0.00
    1    6   76      4.64      0.00
    1    6   73     -3.97      0.00
    1    6   70     -5.68      0.00
    1    6   67     -2.25      0.00
    1    6   64      8.24      0.00
    1    6   61      4.04      0.00
    1    6   58      3.38      0.00
    1    6   55      3.12      0.00
    1    6   52     -1.00      0.00
    1    6   49     -1.33      0.00
    1    6   46     -0.82      0.00
    1    6   43      8.85      0.00
    1    6   40      3.03      0.00
    1    6   37      5.56      0.00
    1    6   34     -2.63      0.00
    1    6   31     -0.61      0.00
    1    6   28     -2.70      0.00
    1    6   25      1.47      0.00
    1    6   22      4.61      0.00
    1    6   19     -0.69      0.00
    1    6   16      1.41      0.00
    1    6   13     -3.19      0.00
    1    6   10      2.95      0.00
    1    6    7     -7.92      0.00
    1    6    4      3.73      0.00
    1    6    1      4.30      0.00
   -6    7    2     12.67      0.00
   -6    7    5      3.69      0.00
   -6    7    8      1.15      0.00
   -6    7   11     -4.82      0.00
   -6    7   14      1.05      0.00
   -6    7   17     -0.64      0.00
   -6    7   20    -10.65      0.00
   -6    7   23     -7.64      0.00
   -6    7   26      0.30      0.00
   -6    7   29     -1.56      0.00
   -6    7   32     -9.58      0.00
   -6    7   35      0.85      0.00
   -6    7   38      3.84      0.00
   -6    7   41      2.16      0.00
   -6    7   44      0.03      0.00
   -6    7   47      9.49      0.00
   -6    7   50      3.61      0.00
   -6    7   53      2.73      0.00
   -6    7   56      2.13      0.00
   -6    7   59      8.85      0.00
   -6    7   62      1.42      0.00
   -6    7   65      0.68      0.00
   -6    7   68      2.10      0.00
   -6    7   71      5.40      0.00
   -6    7   74     -0.50      0.00
   -6    7   77     -4.28      0.00
   -6    7   80      1.78      0.00
   -6    7   83      0.94      0.00
   -6    7   86     -4.78      0.00
   -6    7   89     -8.55      0.00
   -6    7   92     -0.97      0.00
   -6    7   95     -0.83      0.00
    0    7   92      3.11      0.00
    0    7   89      0.86      0.00
    0    7   86     -4.93      0.00
    0    7   83      5.22      0.00
    0    7   80     15.84      0.00
    0    7   77      2.69      0.00
    0    7   74     -5.17      0.00
    0    7   71     -2.49      0.00
    0    7   68      8.21      0.00
    0    7   65     -1.16      0.00
    0    7   62      0.52      0.00
    0    7   59      0.26      0.00
    0    7   56      0.73      0.00
    0    7   53     -0.10      0.00
    0    7   50      2.80      0.00
    0    7   47      9.15      0.00
    0    7   44      4.84      0.00
    0    7   41      9.30      0.00
    0    7   38      0.81      0.00
    0    7   35      1.63      0.00
    0    7   32     -3.00      0.00
    0    7   29      4.95      0.00
    0    7   26      2.89      0.00
    0    7   23     -5.38      0.00
    0    7   20     -4.09      0.00
    0    7   17      0.91      0.00
    0    7   14      6.76      0.00
    0    7   11     -9.51      0.00
    0    7    8     -0.37      0.00
    0    7    5      2.52      0.00
    0    7    2     10.64      0.00
   -7    7    1      2.99      0.00
   -7    7    4     11.16      0.00
   -7    7    7      5.04      0.00
   -7    7   10      0.27      0.00
   -7    7   13     -2.47      0.00
   -7    7   16     -4.64      0.00
   -7    7   19     -5.77      0.00
   -7    7   22     -3.11      0.00
   -7    7   25      0.33      0.00
   -7    7   28     -8.92      0.00
   -7    7   31     -5.60      0.00
   -7    7   34     -2.08      0.00
   -7    7   37      1.29      0.00
   -7    7   40     -1.39      0.00
   -7    7   43      5.38      0.00
   -7    7   46     -2.68      0.00
   -7    7   49     -2.32      0.00
   -7    7   52      4.76      0.00
   -7    7   55     14.61      0.00
   -7    7   58      3.86      0.00
   -7    7   61     -0.62      0.00
   -7    7   64      1.02      0.00
   -7    7   67      4.26      0.00
   -7    7   70      3.84      0.00
   -7    7   73      2.87      0.00
   -7    7   76      6.91      0.00
   -7    7   79      0.97      0.00
   -7    7   82     -2.61      0.00
   -7    7   85     -4.58      0.00
   -7    7   88      3.83      0.00
   -7    7   91     -2.06      0.00
   -7    7   94     -4.90      0.00
   -8    7   90     -5.30      0.00
   -8    7   87      1.86      0.00
   -8    7   84      9.54      0.00
   -8    7   81      2.57      0.00
   -8    7   78     -0.19      0.00
   -8    7   75     -1.15      0.00
   -8    7   72      7.48      0.00
   -8    7   69      6.69      0.00
   -8    7   66      3.15      0.00
   -8    7   63     -0.44      0.00
   -8    7   60     -0.21      0.00
   -8    7   57     -1.72      0.00
   -8    7   54      3.28      0.00
   -8    7   51     13.56      0.00
   -8    7   48      5.74      0.00
   -8    7   45     -3.51      0.00
   -8    7   42     -5.23      0.00
   -8    7   39      0.53      0.00
   -8    7   36     -2.94      0.00
   -8    7   33     -0.45      0.00
   -8    7   30     -7.65      0.00
   -8    7   27     -6.38      0.00
   -8    7   24      1.71      0.00
   -8    7   21      9.04      0.00
   -8    7   18     -1.44      0.00
   -8    7   15     -4.99      0.00
   -8    7   12     -3.85      0.00
   -8    7    9     -5.78      0.00
   -8    7    6      4.97      0.00
   -8    7    3     14.67      0.00
   -1    8    0     15.49      0.00
   -1    8    3      0.26      0.00
   -1    8    6      7.05      0.00
   -1    8    9      0.59      0.00
   -1    8   12     -3.61      0.00
   -1    8   15     -7.13      0.00
   -1    8   18      5.02      0.00
   -1    8   21      1.20      0.00
   -1    8   24     -6.90      0.00
   -1    8   27     -2.30      0.00
   -1    8   30      3.42      0.00
   -1    8   33      7.89      0.00
   -1    8   36     -2.50      0.00
   -1    8   39      2.68      0.00
   -1    8   42      5.98      0.00
   -1    8   45     13.19      0.00
   -1    8   48      5.80      0.00
   -1    8   51      2.76      0.00
   -1    8   54      0.49      0.00
   -1    8   57     -4.78      0.00
   -1    8   60     -1.16      0.00
   -1    8   63     -3.22      0.00
   -1    8   66     -0.55      0.00
   -1    8   69      0.45      0.00
   -1    8   72     14.51      0.00
   -1    8   75      3.95      0.00
   -1    8   78     -3.01      0.00
   -1    8   81      3.27      0.00
   -1    8   84     13.61      0.00
   -1    8   87      3.91      0.00
   -1    8   90     -3.01      0.00
   -8    6   91     -0.22      0.00
   -8    6   88      8.67      0.00
   -8    6   85      4.06      0.00
   -8    6   82      2.83      0.00
   -8    6   79      2.58      0.00
   -8    6   76      3.16      0.00
   -8    6   73     -0.67      0.00
   -8    6   70     -0.07      0.00
   -8    6   67     -0.93      0.00
   -8    6   64      4.65      0.00
   -8    6   61      4.93      0.00
   -8    6   58      3.08      0.00
   -8    6   55      2.62      0.00
   -8    6   52     -0.62      0.00
   -8    6   49     -5.89      0.00
   -8    6   46     -1.04      0.00
   -8    6   43      5.64      0.00
   -8    6   40      2.20      0.00
   -8    6   37      2.26      0.00
   -8    6   34     -1.32      0.00
   -8    6   31     -2.57      0.00
   -8    6   28     -3.08      0.00
   -8    6   25      4.66      0.00
   -8    6   22     -3.66      0.00
   -8    6   19     -2.30      0.00
   -8    6   16     -3.71      0.00
   -8    6   13     -1.35      0.00
   -8    6   10      0.08      0.00
   -8    6    7      8.56      0.00
   -8    6    4      9.03      0.00
   -8    6    1      1.22      0.00
   -2    8    2      6.05      0.00
   -2    8    5      3.18      0.00
   -2    8    8     -0.93      0.00
   -2    8   11     -8.03      0.00
   -2    8   14      6.25      0.00
   -2    8   17      3.42      0.00
   -2    8   20     -4.61      0.00
   -2    8   23     -0.82      0.00
   -2    8   26      7.34      0.00
   -2    8   29      5.34      0.00
   -2    8   32     -6.53      0.00
   -2    8   35     -0.87      0.00
   -2    8   38     -1.60      0.00
   -2    8   41      8.45      0.00
   -2    8   44      9.40      0.00
   -2    8   47      8.97      0.00
   -2    8   50     -0.43      0.00
   -2    8   53     -5.94      0.00
   -2    8   56     -1.74      0.00
   -2    8   59      2.85      0.00
   -2    8   62      4.64      0.00
   -2    8   65     -4.60      0.00
   -2    8   68      3.05      0.00
   -2    8   71      4.88      0.00
   -2    8   74      1.13      0.00
   -2    8   77     -0.44      0.00
   -2    8   80      6.38      0.00
   -2    8   83      3.97      0.00
   -2    8   86     -4.23      0.00
   -2    8   89      0.50      0.00
   -2    8   92      1.85      0.00
   -8    5   92      4.19      0.00
   -8    5   89      2.99      0.00
   -8    5   86      0.29      0.00
   -8    5   83      3.52      0.00
   -8    5   80     -0.44      0.00
   -8    5   77     -4.88      0.00
   -8    5   74     -0.70      0.00
   -8    5   71      2.38      0.00
   -8    5   68      3.62      0.00
   -8    5   65      4.90      0.00
   -8    5   62      1.40      0.00
   -8    5   59     -5.90      0.00
   -8    5   56     -7.07      0.00
   -8    5   53     -3.96      0.00
   -8    5   50      4.19      0.00
   -8    5   47      5.52      0.00
   -8    5   44     -0.30      0.00
   -8    5   41      1.64      0.00
   -8    5   38      5.14      0.00
   -8    5   35      2.08      0.00
   -8    5   32     -4.97      0.00
   -8    5   29      1.57      0.00
   -8    5   26     -2.58      0.00
   -8    5   23      1.49      0.00
   -8    5   20      0.59      0.00
   -8    5   17      4.41      0.00
   -8    5   14     -3.07      0.00
   -8    5   11     -2.67      0.00
   -8    5    8     -2.65      0.00
   -8    5    5     -0.25      0.00
   -8    5    2      6.90      0.00
   -3    8    1      5.82      0.00
   -3    8    4      3.14      0.00
   -3    8    7     -9.26      0.00
   -3    8   10      0.44      0.00
   -3    8   13      0.89      0.00
   -3    8   16     -2.03      0.00
   -3    8   19     -2.35      0.00
   -3    8   22     10.68      0.00
   -3    8   25      9.19      0.00
   -3    8   28     -4.22      0.00
   -3    8   31     -3.84      0.00
   -3    8   34     -6.07      0.00
   -3    8   37      2.91      0.00
   -3    8   40      7.49      0.00
   -3    8   43      7.31      0.00
   -3    8   46     -3.26      0.00
   -3    8   49     -1.32      0.00
   -3    8   52      1.85      0.00
   -3    8   55      0.75      0.00
   -3    8   58      1.83      0.00
   -3    8   61     -1.64      0.00
   -3    8   64      3.27      0.00
   -3    8   67     10.50      0.00
   -3    8   70      5.73      0.00
   -3    8   73     -7.72      0.00
   -3    8   76    -11.40      0.00
   -3    8   79     -3.02      0.00
   -3    8   82     -5.81      0.00
   -3    8   85      0.65      0.00
   -3    8   88      3.39      0.00
   -3    8   91      6.04      0.00
   -3    8   94     -3.82      0.00
    4    4   93      0.63      0.00
    4    4   90     -4.83      0.00
    4    4   87      1.83      0.00
    4    4   84      1.55      0.00
    4    4   81     -1.37      0.00
    4    4   78     -2.90      0.00
    4    4   75      0.68      0.00
    4    4   72     -2.07      0.00
    4    4   69      0.20      0.00
    4    4   66      0.03      0.00
    4    4   63     -3.71      0.00
    4    4   60     -3.46      0.00
    4    4   57      1.02      0.00
    4    4   54      2.90      0.00
    4    4   51     -1.38      0.00
    4    4   48     -6.56      0.00
    4    4   45     -0.43      0.00
    4    4   42      6.00      0.00
    4    4   39      4.19      0.00
    4    4   36     -3.29      0.00
    4    4   33      4.53      0.00
    4    4   30      1.51      0.00
    4    4   27      1.35      0.00
    4    4   24     -2.76      0.00
    4    4   21      2.20      0.00
    4    4   18     -0.42      0.00
    4    4   15      0.78      0.00
    4    4   12     -0.68      0.00
    4    4    9     -1.98      0.00
    4    4    6      0.96      0.00
    4    4    3     -2.53      0.00
   -4    8    0      3.21      0.00
   -4    8    3     -3.36      0.00
   -4    8    6      2.47      0.00
   -4    8    9     -3.71      0.00
   -4    8   12     -4.69      0.00
   -4    8   15     -7.64      0.00
   -4    8   18     10.03      0.00
   -4    8   21     10.66      0.00
   -4    8   24     -4.55      0.00
   -4    8   27     -8.58      0.00
   -4    8   30     -4.28      0.00
   -4    8   33      4.10      0.00
   -4    8   36      5.64      0.00
   -4    8   39      5.26      0.00
   -4    8   42     -3.85      0.00
   -4    8   45      1.20      0.00
   -4    8   48      2.75      0.00
   -4    8   51     -1.65      0.00
   -4    8   54     -0.04      0.00
   -4    8   57      4.57      0.00
   -4    8   60      3.54      0.00
   -4    8   63      7.74      0.00
   -4    8   66      8.52      0.00
   -4    8   69     -1.82      0.00
   -4    8   72    -15.30      0.00
   -4    8   75     -7.58      0.00
   -4    8   78     -7.46      0.00
   -4    8   81     -0.76      0.00
   -4    8   84      0.33      0.00
   -4    8   87      5.73      0.00
   -4    8   90     -8.72      0.00
   -4    8   93     -9.18      0.00
    3    5   94     -4.37      0.00
    3    5   91      1.71      0.00
    3    5   88      3.34      0.00
    3    5   85     -0.11      0.00
    3    5   82     -8.37      0.00
    3    5   79     -1.79      0.00
    3    5   76     -0.51      0.00
    3    5   73     -2.78      0.00
    3    5   70     -5.60      0.00
    3    5   67     -1.17      0.00
    3    5   64      5.54      0.00
    3    5   61      6.61      0.00
    3    5   58      1.12      0.00
    3    5   55     -3.07      0.00
    3    5   52     -6.43      0.00
    3    5   49     -2.50      0.00
    3    5   46      1.23      0.00
    3    5   43      5.42      0.00
    3    5   40     -0.35      0.00
    3    5   37      5.35      0.00
    3    5   34      0.20      0.00
    3    5   31     -0.44      0.00
    3    5   28     -5.84      0.00
    3    5   25     -0.19      0.00
    3    5   22      3.43      0.00
    3    5   19      7.34      0.00
    3    5   16      4.62      0.00
    3    5   13     -2.99      0.00
    3    5   10     -1.07      0.00
    3    5    7     -9.79      0.00
    3    5    4     -1.15      0.00
    3    5    1     -1.09      0.00
   -5    8    2      8.23      0.00
   -5    8    5     -5.43      0.00
   -5    8    8     -5.43      0.00
   -5    8   11     -9.77      0.00
   -5    8   14      5.67      0.00
   -5    8   17      2.31      0.00
   -5    8   20     -8.76      0.00
   -5    8   23     -7.74      0.00
   -5    8   26      3.69      0.00
   -5    8   29      3.96      0.00
   -5    8   32     -4.47      0.00
   -5    8   35      0.65      0.00
   -5    8   38     -0.04      0.00
   -5    8   41      3.36      0.00
   -5    8   44      2.64      0.00
   -5    8   47      3.99      0.00
   -5    8   50      3.37      0.00
   -5    8   53      6.34      0.00
   -5    8   56     -0.64      0.00
   -5    8   59      0.15      0.00
   -5    8   62      4.81      0.00
   -5    8   65      7.52      0.00
   -5    8   68     -2.48      0.00
   -5    8   71     -0.87      0.00
   -5    8   74     -6.89      0.00
   -5    8   77     -6.26      0.00
   -5    8   80     -7.24      0.00
   -5    8   83      2.29      0.00
   -5    8   86     -5.18      0.00
   -5    8   89     -4.52      0.00
   -5    8   92     -1.36      0.00
    2    6   92     -0.91      0.00
    2    6   89     -3.39      0.00
    2    6   86     -9.36      0.00
    2    6   83      2.37      0.00
    2    6   80      9.18      0.00
    2    6   77     -1.51      0.00
    2    6   74    -12.47      0.00
    2    6   71     -5.44      0.00
    2    6   68      7.24      0.00
    2    6   65      4.04      0.00
    2    6   62      0.44      0.00
    2    6   59      4.32      0.00
    2    6   56      5.01      0.00
    2    6   53     -0.62      0.00
    2    6   50     -3.78      0.00
    2    6   47      4.50      0.00
    2    6   44      1.49      0.00
    2    6   41      3.22      0.00
    2    6   38     -4.38      0.00
    2    6   35      0.90      0.00
    2    6   32     -0.03      0.00
    2    6   29      5.31      0.00
    2    6   26      2.11      0.00
    2    6   23     -0.20      0.00
    2    6   20     -2.31      0.00
    2    6   17     -2.71      0.00
    2    6   14      8.33      0.00
    2    6   11     -2.41      0.00
    2    6    8     -1.15      0.00
    2    6    5     -6.49      0.00
    2    6    2      5.42      0.00
   -6    8    1     -9.06      0.00
   -6    8    4     -1.90      0.00
   -6    8    7     -5.02      0.00
   -6    8   10      4.50      0.00
   -6    8   13     -5.61      0.00
   -6    8   16     -9.09      0.00
   -6    8   19     -4.27      0.00
   -6    8   22      6.93      0.00
   -6    8   25     -1.88      0.00
   -6    8   28    -16.29      0.00
   -6    8   31     -3.81      0.00
   -6    8   34      6.38      0.00
   -6    8   37      7.02      0.00
   -6    8   40     -0.68      0.00
   -6    8   43      4.60      0.00
   -6    8   46     -0.30      0.00
   -6    8   49      1.25      0.00
   -6    8   52      1.82      0.00
   -6    8   55      9.45      0.00
   -6    8   58      4.82      0.00
   -6    8   61      4.44      0.00
   -6    8   64      1.25      0.00
   -6    8   67      4.49      0.00
   -6    8   70     -2.86      0.00
   -6    8   73     -3.51      0.00
   -6    8   76     -2.67      0.00
   -6    8   79      2.48      0.00
   -6    8   82     -3.97      0.00
   -6    8   85     -4.82      0.00
   -6    8   88     -1.89      0.00
   -6    8   91      0.23      0.00
    1    7   90     -4.64      0.00
    1    7   87      4.36      0.00
    1    7   84     11.25      0.00
    1    7   81     -1.64      0.00
    1    7   78    -11.27      0.00
    1    7   75     -1.37      0.00
    1    7   72     12.93      0.00
    1    7   69     -0.69      0.00
    1    7   66     -6.91      0.00
    1    7   63      0.20      0.00
    1    7   60      9.96      0.00
    1    7   57      3.39      0.00
    1    7   54     -1.04      0.00
    1    7   51      2.69      0.00
    1    7   48      2.42      0.00
    1    7   45      5.42      0.00
    1    7   42     -1.41      0.00
    1    7   39      3.09      0.00
    1    7   36      3.42      0.00
    1    7   33      9.23      0.00
    1    7   30     -0.87      0.00
    1    7   27     -6.13      0.00
    1    7   24     -6.00      0.00
    1    7   21      0.29      0.00
    1    7   18      9.84      0.00
    1    7   15     -0.94      0.00
    1    7   12     -0.85      0.00
    1    7    9     -5.66      0.00
    1    7    6      3.91      0.00
    1    7    3     -9.75      0.00
   -7    8    0      4.61      0.00
   -7    8    3      4.43      0.00
   -7    8    6      7.57      0.00
   -7    8    9     -8.44      0.00
   -7    8   12     -7.73      0.00
   -7    8   15     -8.25      0.00
   -7    8   18      2.32      0.00
   -7    8   21      1.37      0.00
   -7    8   24     -7.47      0.00
   -7    8   27     -4.06      0.00
   -7    8   30      1.26      0.00
   -7    8   33      0.62      0.00
   -7    8   36     -7.75      0.00
   -7    8   39      1.09      0.00
   -7    8   42     -3.56      0.00
   -7    8   45     -1.95      0.00
   -7    8   48      4.47      0.00
   -7    8   51     18.75      0.00
   -7    8   54      4.73      0.00
   -7    8   57     -4.21      0.00
   -7    8   60     -2.33      0.00
   -7    8   63      7.78      0.00
   -7    8   66      4.39      0.00
   -7    8   69      4.45      0.00
   -7    8   72      5.81      0.00
   -7    8   75      1.77      0.00
   -7    8   78     -6.12      0.00
   -7    8   81     -6.47      0.00
   -7    8   84      0.46      0.00
   -7    8   87      0.83      0.00
   -7    8   90     -2.70      0.00
    0    8   88      3.21      0.00
    0    8   85     -4.34      0.00
    0    8   82     -4.97      0.00
    0    8   79      9.76      0.00
    0    8   76     25.74      0.00
    0    8   73      3.72      0.00
    0    8   70    -11.76      0.00
    0    8   67    -11.70      0.00
    0    8   64      3.70      0.00
    0    8   61      2.50      0.00
    0    8   58      3.10      0.00
    0    8   55     -0.89      0.00
    0    8   52      1.56      0.00
    0    8   49      7.89      0.00
    0    8   46      4.68      0.00
    0    8   43      1.44      0.00
    0    8   40      2.69      0.00
    0    8   37     12.50      0.00
    0    8   34      2.84      0.00
    0    8   31     -2.36      0.00
    0    8   28     -2.41      0.00
    0    8   25      3.01      0.00
    0    8   22      0.31      0.00
    0    8   19     -9.58      0.00
    0    8   16     -6.15      0.00
    0    8   13      0.34      0.00
    0    8   10     10.30      0.00
    0    8    7     -1.41      0.00
    0    8    4      9.91      0.00
    0    8    1      7.84      0.00
   -8    8    2      5.29      0.00
   -8    8    5     -9.78      0.00
   -8    8    8     -0.61      0.00
   -8    8   11     -4.95      0.00
   -8    8   14      0.43      0.00
   -8    8   17      6.14      0.00
   -8    8   20      6.50      0.00
   -8    8   23     -3.32      0.00
   -8    8   26     -6.37      0.00
   -8    8   29     -6.00      0.00
   -8    8   32    -11.16      0.00
   -8    8   35     -1.76      0.00
   -8    8   38     -0.09      0.00
   -8    8   41      1.98      0.00
   -8    8   44      2.07      0.00
   -8    8   47     10.20      0.00
   -8    8   50     -3.53      0.00
   -8    8   53     -6.82      0.00
   -8    8   56      2.70      0.00
   -8    8   59     13.47      0.00
   -8    8   62      7.85      0.00
   -8    8   65      3.12      0.00
   -8    8   68      2.28      0.00
   -8    8   71     -2.98      0.00
   -8    8   74     -2.66      0.00
   -8    8   77      0.65      0.00
   -8    8   80      5.85      0.00
   -8    8   83      0.92      0.00
   -8    8   86     -1.65      0.00
   -8    8   89     -1.06      0.00
   -9    8   85      4.59      0.00
   -9    8   82      1.27      0.00
   -9    8   79     -0.55      0.00
   -9    8   76      4.76      0.00
   -9    8   73      3.31      0.00
   -9    8   70     -1.18      0.00
   -9    8   67     -7.24      0.00
   -9    8   64     -2.58      0.00
   -9    8   61     -1.44      0.00
   -9    8   58      5.47      0.00
   -9    8   55     14.52      0.00
   -9    8   52      9.49      0.00
   -9    8   49     -3.89      0.00
   -9    8   46     -7.30      0.00
   -9    8   43      0.76      0.00
   -9    8   40     -1.72      0.00
   -9    8   37      3.19      0.00
   -9    8   34      1.81      0.00
   -9    8   31     -3.56      0.00
   -9    8   28     -5.58      0.00
   -9    8   25      2.19      0.00
   -9    8   22      0.96      0.00
   -9    8   19     -1.65      0.00
   -9    8   16      3.63      0.00
   -9    8   13     -3.08      0.00
   -9    8   10      0.79      0.00
   -9    8    7      6.21      0.00
   -9    8    4      8.87      0.00
   -9    8    1     -6.01      0.00
   -1    9    2      3.08      0.00
   -1    9    5      5.07      0.00
   -1    9    8      6.79      0.00
   -1    9   11      3.45      0.00
   -1    9   14      7.36      0.00
   -1    9   17     -1.08      0.00
   -1    9   20     -8.49      0.00
   -1    9   23     -5.71      0.00
   -1    9   26      0.74      0.00
   -1    9   29      5.16      0.00
   -1    9   32     -4.47      0.00
   -1    9   35     -4.39      0.00
   -1    9   38      6.08      0.00
   -1    9   41     17.15      0.00
   -1    9   44      9.10      0.00
   -1    9   47      3.26      0.00
   -1    9   50      6.30      0.00
   -1    9   53     -0.29      0.00
   -1    9   56     -7.52      0.00
   -1    9   59     -9.65      0.00
   -1    9   62      3.41      0.00
   -1    9   65      4.73      0.00
   -1    9   68      7.16      0.00
   -1    9   71     -7.94      0.00
   -1    9   74     -6.41      0.00
   -1    9   77      6.39      0.00
   -1    9   80     23.31      0.00
   -1    9   83      8.46      0.00
   -1    9   86     -0.83      0.00
   -9    7   86      0.61      0.00
   -9    7   83      3.58      0.00
   -9    7   80      3.27      0.00
   -9    7   77     -0.04      0.00
   -9    7   74     -1.05      0.00
   -9    7   71     -1.82      0.00
   -9    7   68      4.44      0.00
   -9    7   65      3.80      0.00
   -9    7   62      1.56      0.00
   -9    7   59      0.68      0.00
   -9    7   56      3.11      0.00
   -9    7   53     -2.68      0.00
   -9    7   50      1.06      0.00
   -9    7   47      8.36      0.00
   -9    7   44      3.65      0.00
   -9    7   41     -0.86      0.00
   -9    7   38     -0.48      0.00
   -9    7   35     -1.03      0.00
   -9    7   32     -4.28      0.00
   -9    7   29      4.24      0.00
   -9    7   26      1.01      0.00
   -9    7   23     -0.14      0.00
   -9    7   20      1.45      0.00
   -9    7   17      1.53      0.00
   -9    7   14     -2.27      0.00
   -9    7   11      2.03      0.00
   -9    7    8      5.40      0.00
   -9    7    5     -2.02      0.00
   -9    7    2      2.94      0.00
   -2    9    1      1.67      0.00
   -2    9    4      2.39      0.00
   -2    9    7      0.06      0.00
   -2    9   10      9.02      0.00
   -2    9   13      2.80      0.00
   -2    9   16     -4.46      0.00
   -2    9   19     -3.88      0.00
   -2    9   22     -0.56      0.00
   -2    9   25      1.46      0.00
   -2    9   28     -5.40      0.00
   -2    9   31     -0.22      0.00
   -2    9   34      0.58      0.00
   -2    9   37      9.65      0.00
   -2    9   40      6.22      0.00
   -2    9   43      6.80      0.00
   -2    9   46      5.30      0.00
   -2    9   49      3.67      0.00
   -2    9   52      0.41      0.00
   -2    9   55     -1.86      0.00
   -2    9   58      2.42      0.00
   -2    9   61     -5.81      0.00
   -2    9   64     -3.51      0.00
   -2    9   67     -4.74      0.00
   -2    9   70      2.67      0.00
   -2    9   73      7.73      0.00
   -2    9   76     17.27      0.00
   -2    9   79      4.43      0.00
   -2    9   82     -5.34      0.00
   -2    9   85     -0.45      0.00
   -2    9   88      7.03      0.00
   -9    6   87      3.37      0.00
   -9    6   84      1.21      0.00
   -9    6   81     -0.01      0.00
   -9    6   78      0.05      0.00
   -9    6   75      0.96      0.00
   -9    6   72     -1.17      0.00
   -9    6   69      1.20      0.00
   -9    6   66      1.43      0.00
   -9    6   63     -2.42      0.00
   -9    6   60     -0.41      0.00
   -9    6   57      1.07      0.00
   -9    6   54      6.85      0.00
   -9    6   51      7.57      0.00
   -9    6   48      0.91      0.00
   -9    6   45     -5.37      0.00
   -9    6   42      0.70      0.00
   -9    6   39      3.02      0.00
   -9    6   36     -1.13      0.00
   -9    6   33      6.68      0.00
   -9    6   30      4.46      0.00
   -9    6   27      1.13      0.00
   -9    6   24     -2.53      0.00
   -9    6   21      3.01      0.00
   -9    6   18     -3.93      0.00
   -9    6   15     -2.21      0.00
   -9    6   12     -1.55      0.00
   -9    6    9     -2.00      0.00
   -9    6    6      2.73      0.00
   -9    6    3      3.83      0.00
   -3    9    0      3.69      0.00
   -3    9    3     -6.12      0.00
   -3    9    6     -2.24      0.00
   -3    9    9     -5.60      0.00
   -3    9   12     -3.39      0.00
   -3    9   15     -0.59      0.00
   -3    9   18      6.70      0.00
   -3    9   21      5.77      0.00
   -3    9   24     -4.60      0.00
   -3    9   27     -1.67      0.00
   -3    9   30     -3.56      0.00
   -3    9   33      4.29      0.00
   -3    9   36      3.70      0.00
   -3    9   39      6.61      0.00
   -3    9   42     -1.11      0.00
   -3    9   45      3.28      0.00
   -3    9   48      6.94      0.00
   -3    9   51      2.79      0.00
   -3    9   54     -0.40      0.00
   -3    9   57     -7.54      0.00
   -3    9   60     -2.83      0.00
   -3    9   63      3.52      0.00
   -3    9   66      9.32      0.00
   -3    9   69     -0.21      0.00
   -3    9   72     -2.35      0.00
   -3    9   75     -3.25      0.00
   -3    9   78     -7.74      0.00
   -3    9   81     -1.59      0.00
   -3    9   84      7.71      0.00
   -3    9   87      8.97      0.00
   -9    5   88     -0.48      0.00
   -9    5   85      1.28      0.00
   -9    5   82     -2.81      0.00
   -9    5   79     -1.43      0.00
   -9    5   76     -7.78      0.00
   -9    5   73     -0.94      0.00
   -9    5   70      2.44      0.00
   -9    5   67      0.65      0.00
   -9    5   64     -1.68      0.00
   -9    5   61      3.46      0.00
   -9    5   58      4.69      0.00
   -9    5   55     -0.07      0.00
   -9    5   52     -3.53      0.00
   -9    5   49     -2.34      0.00
   -9    5   46      4.55      0.00
   -9    5   43      3.96      0.00
   -9    5   40     -1.32      0.00
   -9    5   37      7.16      0.00
   -9    5   34      7.29      0.00
   -9    5   31      1.81      0.00
   -9    5   28     -5.79      0.00
   -9    5   25      1.69      0.00
   -9    5   22     -4.28      0.00
   -9    5   19     -2.23      0.00
   -9    5   16     -1.61      0.00
   -9    5   13     -0.11      0.00
   -9    5   10      0.72      0.00
   -9    5    7     -0.41      0.00
   -9    5    4      1.75      0.00
   -9    5    1     -7.33      0.00
   -4    9    2     -3.64      0.00
   -4    9    5     -8.00      0.00
   -4    9    8     -2.94      0.00
   -4    9   11     -7.15      0.00
   -4    9   14      3.04      0.00
   -4    9   17      5.19      0.00
   -4    9   20     -2.96      0.00
   -4    9   23     -4.62      0.00
   -4    9   26     -2.15      0.00
   -4    9   29      5.72      0.00
   -4    9   32      2.58      0.00
   -4    9   35      4.89      0.00
   -4    9   38     -4.69      0.00
   -4    9   41      0.75      0.00
   -4    9   44      6.21      0.00
   -4    9   47      3.41      0.00
   -4    9   50     -0.31      0.00
   -4    9   53     -2.08      0.00
   -4    9   56     -0.88      0.00
   -4    9   59      2.20      0.00
   -4    9   62     11.02      0.00
   -4    9   65      2.07      0.00
   -4    9   68     -8.57      0.00
   -4    9   71     -4.97      0.00
   -4    9   74     -7.16      0.00
   -4    9   77     -6.99      0.00
   -4    9   80     -3.83      0.00
   -4    9   83      7.78      0.00
   -4    9   86     -2.98      0.00
   -4    9   89     -3.79      0.00
    4    5   89      1.47      0.00
    4    5   86     -5.99      0.00
    4    5   83     -2.21      0.00
    4    5   80     -4.92      0.00
    4    5   77     -0.97      0.00
    4    5   74     -3.64      0.00
    4    5   71     -1.03      0.00
    4    5   68     -1.12      0.00
    4    5   65      5.29      0.00
    4    5   62      2.45      0.00
    4    5   59     -1.06      0.00
    4    5   56     -1.87      0.00
    4    5   53      1.33      0.00
    4    5   50      2.54      0.00
    4    5   47      1.14      0.00
    4    5   44     -3.21      0.00
    4    5   41      4.97      0.00
    4    5   38      5.77      0.00
    4    5   35      2.90      0.00
    4    5   32     -4.52      0.00
    4    5   29      2.43      0.00
    4    5   26     -3.53      0.00
    4    5   23     -2.10      0.00
    4    5   20     -0.71      0.00
    4    5   17      2.21      0.00
    4    5   14      1.51      0.00
    4    5   11     -4.92      0.00
    4    5    8     -2.16      0.00
    4    5    5     -6.65      0.00
    4    5    2      1.05      0.00
   -5    9    1     -8.48      0.00
   -5    9    4     -1.49      0.00
   -5    9    7     -9.76      0.00
   -5    9   10     -1.50      0.00
   -5    9   13     -4.02      0.00
   -5    9   16     -4.93      0.00
   -5    9   19     -5.76      0.00
   -5    9   22      1.91      0.00
   -5    9   25      4.28      0.00
   -5    9   28     -4.33      0.00
   -5    9   31      0.70      0.00
   -5    9   34     -1.05      0.00
   -5    9   37      3.53      0.00
   -5    9   40      4.25      0.00
   -5    9   43      5.00      0.00
   -5    9   46      1.49      0.00
   -5    9   49      1.13      0.00
   -5    9   52     -2.80      0.00
   -5    9   55     -3.74      0.00
   -5    9   58      7.90      0.00
   -5    9   61      8.74      0.00
   -5    9   64     -2.45      0.00
   -5    9   67     -1.00      0.00
   -5    9   70     -1.78      0.00
   -5    9   73     -6.31      0.00
   -5    9   76    -13.60      0.00
   -5    9   79      0.80      0.00
   -5    9   82     -3.43      0.00
   -5    9   85     -0.82      0.00
   -5    9   88     -0.46      0.00
    3    6   87      0.71      0.00
    3    6   84     -0.06      0.00
    3    6   81     -3.74      0.00
    3    6   78    -11.78      0.00
    3    6   75     -3.49      0.00
    3    6   72      2.06      0.00
    3    6   69      2.89      0.00
    3    6   66     -1.35      0.00
    3    6   63      4.20      0.00
    3    6   60      7.15      0.00
    3    6   57      3.76      0.00
    3    6   54     -1.90      0.00
    3    6   51     -0.20      0.00
    3    6   48     -2.35      0.00
    3    6   45      2.37      0.00
    3    6   42      2.10      0.00
    3    6   39      3.87      0.00
    3    6   36     -1.28      0.00
    3    6   33      4.07      0.00
    3    6   30     -3.14      0.00
    3    6   27     -4.21      0.00
    3    6   24     -3.94      0.00
    3    6   21      1.75      0.00
    3    6   18      6.23      0.00
    3    6   15      0.96      0.00
    3    6   12      2.34      0.00
    3    6    9     -4.49      0.00
    3    6    6     -1.39      0.00
    3    6    3    -19.65      0.00
   -6    9    0     -5.23      0.00
   -6    9    3     -2.20      0.00
   -6    9    6      6.86      0.00
   -6    9    9    -11.01      0.00
   -6    9   12     -9.36      0.00
   -6    9   15     -7.94      0.00
   -6    9   18      2.56      0.00
   -6    9   21     -2.96      0.00
   -6    9   24    -10.73      0.00
   -6    9   27     -0.30      0.00
   -6    9   30      6.29      0.00
   -6    9   33      6.40      0.00
   -6    9   36     -0.49      0.00
   -6    9   39      3.81      0.00
   -6    9   42     -1.00      0.00
   -6    9   45     -0.92      0.00
   -6    9   48     -1.52      0.00
   -6    9   51      2.95      0.00
   -6    9   54      6.93      0.00
   -6    9   57      6.76      0.00
   -6    9   60     -1.36      0.00
   -6    9   63      0.19      0.00
   -6    9   66      1.43      0.00
   -6    9   69      1.49      0.00
   -6    9   72     -5.77      0.00
   -6    9   75      1.20      0.00
   -6    9   78     -4.10      0.00
   -6    9   81     -2.21      0.00
   -6    9   84     -3.46      0.00
   -6    9   87      3.11      0.00
    2    7   88     -2.48      0.00
    2    7   85     -7.48      0.00
    2    7   82     -9.81      0.00
    2    7   79      2.91      0.00
    2    7   76     10.33      0.00
    2    7   73     -1.38      0.00
    2    7   70    -10.86      0.00
    2    7   67     -1.68      0.00
    2    7   64      8.57      0.00
    2    7   61      4.60      0.00
    2    7   58      1.16      0.00
    2    7   55      4.86      0.00
    2    7   52      3.11      0.00
    2    7   49      1.66      0.00
    2    7   46     -0.38      0.00
    2    7   43      2.61      0.00
    2    7   40      0.66      0.00
    2    7   37      4.53      0.00
    2    7   34     -3.54      0.00
    2    7   31     -4.95      0.00
    2    7   28     -2.59      0.00
    2    7   25      4.12      0.00
    2    7   22      6.53      0.00
    2    7   19      0.78      0.00
    2    7   16      2.00      0.00
    2    7   13     -1.57      0.00
    2    7   10      1.33      0.00
    2    7    7    -19.05      0.00
    2    7    4     -3.42      0.00
    2    7    1      4.38      0.00
   -7    9    2     10.40      0.00
   -7    9    5    -17.88      0.00
   -7    9    8    -12.72      0.00
   -7    9   11    -10.11      0.00
   -7    9   14      2.61      0.00
   -7    9   17     -4.30      0.00
   -7    9   20     -4.73      0.00
   -7    9   23      1.40      0.00
   -7    9   26      5.54      0.00
   -7    9   29     -1.13      0.00
   -7    9   32     -8.54      0.00
   -7    9   35      3.25      0.00
   -7    9   38      1.49      0.00
   -7    9   41     -0.71      0.00
   -7    9   44     -2.77      0.00
   -7    9   47      6.01      0.00
   -7    9   50      0.28      0.00
   -7    9   53     -0.39      0.00
   -7    9   56      3.12      0.00
   -7    9   59     10.88      0.00
   -7    9   62      4.06      0.00
   -7    9   65      0.31      0.00
   -7    9   68     -0.25      0.00
   -7    9   71      3.91      0.00
   -7    9   74     -2.15      0.00
   -7    9   77     -1.81      0.00
   -7    9   80     -2.72      0.00
   -7    9   83     -0.45      0.00
   -7    9   86     -5.94      0.00
    1    8   86     -1.37      0.00
    1    8   83      9.10      0.00
    1    8   80     15.65      0.00
    1    8   77     -3.10      0.00
    1    8   74    -15.47      0.00
    1    8   71     -8.92      0.00
    1    8   68      7.10      0.00
    1    8   65      4.49      0.00
    1    8   62      2.15      0.00
    1    8   59      0.94      0.00
    1    8   56      3.33      0.00
    1    8   53      3.60      0.00
    1    8   50      2.70      0.00
    1    8   47     -0.28      0.00
    1    8   44      1.90      0.00
    1    8   41      8.25      0.00
    1    8   38      1.47      0.00
    1    8   35     -4.19      0.00
    1    8   32     -0.07      0.00
    1    8   29      6.69      0.00
    1    8   26      3.38      0.00
    1    8   23     -4.79      0.00
    1    8   20     -4.90      0.00
    1    8   17     -2.41      0.00
    1    8   14      5.75      0.00
    1    8   11     -4.09      0.00
    1    8    8      6.84      0.00
    1    8    5      7.55      0.00
    1    8    2      5.00      0.00
   -8    9    1    -21.47      0.00
   -8    9    4     -8.07      0.00
   -8    9    7     -4.09      0.00
   -8    9   10      5.29      0.00
   -8    9   13     -2.69      0.00
   -8    9   16      1.99      0.00
   -8    9   19     -2.80      0.00
   -8    9   22      0.41      0.00
   -8    9   25     -5.03      0.00
   -8    9   28     -8.48      0.00
   -8    9   31      2.49      0.00
   -8    9   34      5.04      0.00
   -8    9   37      0.20      0.00
   -8    9   40     -7.66      0.00
   -8    9   43     -0.08      0.00
   -8    9   46     -8.78      0.00
   -8    9   49     -5.24      0.00
   -8    9   52      9.31      0.00
   -8    9   55     24.22      0.00
   -8    9   58      8.15      0.00
   -8    9   61     -7.00      0.00
   -8    9   64     -6.72      0.00
   -8    9   67      0.83      0.00
   -8    9   70      2.62      0.00
   -8    9   73      4.92      0.00
   -8    9   76      3.76      0.00
   -8    9   79     -3.61      0.00
   -8    9   82     -8.51      0.00
   -8    9   85     -3.91      0.00
    0    9   81     -5.59      0.00
    0    9   78     -9.55      0.00
    0    9   75     -0.21      0.00
    0    9   72     17.59      0.00
    0    9   69      8.19      0.00
    0    9   66     -4.48      0.00
    0    9   63    -16.16      0.00
    0    9   60     -6.55      0.00
    0    9   57      3.38      0.00
    0    9   54      8.68      0.00
    0    9   51     -0.69      0.00
    0    9   48      4.17      0.00
    0    9   45     12.13      0.00
    0    9   42      8.06      0.00
    0    9   39     -6.22      0.00
    0    9   36     -2.92      0.00
    0    9   33      6.43      0.00
    0    9   30      6.27      0.00
    0    9   27     -0.94      0.00
    0    9   24     -4.37      0.00
    0    9   21     -4.38      0.00
    0    9   18      0.02      0.00
    0    9   15     -0.21      0.00
    0    9   12      7.15      0.00
    0    9    9      8.92      0.00
    0    9    6      5.06      0.00
    0    9    3    -11.07      0.00
    0    9    0      3.87      0.00
   -9    9    3      5.54      0.00
   -9    9    6      4.27      0.00
   -9    9    9     -8.31      0.00
   -9    9   12      0.29      0.00
   -9    9   15     -6.62      0.00
   -9    9   18      2.42      0.00
   -9    9   21      2.77      0.00
   -9    9   24      1.27      0.00
   -9    9   27      0.11      0.00
   -9    9   30      2.89      0.00
   -9    9   33     -4.59      0.00
   -9    9   36    -12.63      0.00
   -9    9   39     -2.41      0.00
   -9    9   42     -4.50      0.00
   -9    9   45     -2.06      0.00
   -9    9   48      7.36      0.00
   -9    9   51     19.42      0.00
   -9    9   54      6.39      0.00
   -9    9   57     -5.73      0.00
   -9    9   60     -6.81      0.00
   -9    9   63     -3.57      0.00
   -9    9   66      0.99      0.00
   -9    9   69      4.41      0.00
   -9    9   72      4.89      0.00
   -9    9   75     -4.09      0.00
   -9    9   78     -5.43      0.00
   -9    9   81     -1.15      0.00
  -10    9   77     -1.39      0.00
  -10    9   74     -1.84      0.00
  -10    9   71     -3.35      0.00
  -10    9   68      1.67      0.00
  -10    9   65     -1.76      0.00
  -10    9   62     -4.96      0.00
  -10    9   59     -5.29      0.00
  -10    9   56      1.35      0.00
  -10    9   53      1.72      0.00
  -10    9   50      3.19      0.00
  -10    9   47      7.63      0.00
  -10    9   44      1.21      0.00
  -10    9   41     -0.06      0.00
  -10    9   38      1.82      0.00
  -10    9   35     -3.14      0.00
  -10    9   32    -11.65      0.00
  -10    9   29     -0.82      0.00
  -10    9   26     10.15      0.00
  -10    9   23      2.81      0.00
  -10    9   20      3.78      0.00
  -10    9   17     -0.69      0.00
  -10    9   14      1.31      0.00
  -10    9   11     -3.35      0.00
  -10    9    8      1.50      0.00
  -10    9    5     -8.86      0.00
  -10    9    2      2.70      0.00
   -1   10    1      6.98      0.00
   -1   10    4      5.81      0.00
   -1   10    7      0.36      0.00
   -1   10   10      5.32      0.00
   -1   10   13      2.65      0.00
   -1   10   16     -2.69      0.00
   -1   10   19     -0.99      0.00
   -1   10   22      1.89      0.00
   -1   10   25      1.99      0.00
   -1   10   28     -2.47      0.00
   -1   10   31     -2.80      0.00
   -1   10   34      5.93      0.00
   -1   10   37      6.38      0.00
   -1   10   40      2.26      0.00
   -1   10   43     -0.62      0.00
   -1   10   46     10.65      0.00
   -1   10   49      5.70      0.00
   -1   10   52      0.34      0.00
   -1   10   55     -3.47      0.00
   -1   10   58      7.72      0.00
   -1   10   61      0.22      0.00
   -1   10   64     -9.20      0.00
   -1   10   67    -17.21      0.00
   -1   10   70     -1.62      0.00
   -1   10   73     11.88      0.00
   -1   10   76     21.42      0.00
   -1   10   79      4.88      0.00
  -10    8   81      2.43      0.00
  -10    8   78     -0.20      0.00
  -10    8   75     -1.63      0.00
  -10    8   72      0.52      0.00
  -10    8   69     -0.23      0.00
  -10    8   66     -2.70      0.00
  -10    8   63     -6.71      0.00
  -10    8   60     -0.08      0.00
  -10    8   57     -0.14      0.00
  -10    8   54      4.69      0.00
  -10    8   51     10.04      0.00
  -10    8   48      6.49      0.00
  -10    8   45     -4.30      0.00
  -10    8   42     -4.02      0.00
  -10    8   39     -0.92      0.00
  -10    8   36     -3.97      0.00
  -10    8   33      4.89      0.00
  -10    8   30      9.28      0.00
  -10    8   27      3.07      0.00
  -10    8   24     -0.06      0.00
  -10    8   21      3.23      0.00
  -10    8   18      2.59      0.00
  -10    8   15     -1.37      0.00
  -10    8   12      0.13      0.00
  -10    8    9     -4.54      0.00
  -10    8    6      5.73      0.00
  -10    8    3      6.17      0.00
   -2   10    0      0.65      0.00
   -2   10    3     -6.98      0.00
   -2   10    6      2.91      0.00
   -2   10    9      4.56      0.00
   -2   10   12      2.84      0.00
   -2   10   15      1.70      0.00
   -2   10   18     -3.03      0.00
   -2   10   21     -4.24      0.00
   -2   10   24     -5.84      0.00
   -2   10   27      2.25      0.00
   -2   10   30      4.96      0.00
   -2   10   33      6.05      0.00
   -2   10   36     -3.23      0.00
   -2   10   39     -2.69      0.00
   -2   10   42      6.80      0.00
   -2   10   45     11.58      0.00
   -2   10   48     10.53      0.00
   -2   10   51      5.14      0.00
   -2   10   54      5.83      0.00
   -2   10   57     -9.33      0.00
   -2   10   60    -15.42      0.00
   -2   10   63    -13.14      0.00
   -2   10   66      8.17      0.00
   -2   10   69     13.83      0.00
   -2   10   72     14.61      0.00
   -2   10   75     -1.79      0.00
   -2   10   78     -5.20      0.00
   -2   10   81     -0.07      0.00
  -10    7   82     -2.37      0.00
  -10    7   79     -1.47      0.00
  -10    7   76     -6.06      0.00
  -10    7   73     -1.90      0.00
  -10    7   70      1.76      0.00
  -10    7   67     -0.21      0.00
  -10    7   64      0.05      0.00
  -10    7   61      0.49      0.00
  -10    7   58      5.03      0.00
  -10    7   55      6.67      0.00
  -10    7   52      5.35      0.00
  -10    7   49     -5.42      0.00
  -10    7   46     -1.95      0.00
  -10    7   43      2.11      0.00
  -10    7   40     -1.17      0.00
  -10    7   37      3.50      0.00
  -10    7   34      8.76      0.00
  -10    7   31      5.22      0.00
  -10    7   28     -2.32      0.00
  -10    7   25      4.71      0.00
  -10    7   22      1.84      0.00
  -10    7   19     -0.46      0.00
  -10    7   16     -3.34      0.00
  -10    7   13     -3.61      0.00
  -10    7   10      3.85      0.00
  -10    7    7      8.23      0.00
  -10    7    4      4.65      0.00
  -10    7    1     -7.40      0.00
   -3   10    2     -5.16      0.00
   -3   10    5     -8.59      0.00
   -3   10    8     -4.96      0.00
   -3   10   11      0.46      0.00
   -3   10   14      5.07      0.00
   -3   10   17      3.93      0.00
   -3   10   20     -3.53      0.00
   -3   10   23     -2.12      0.00
   -3   10   26     -5.56      0.00
   -3   10   29      1.61      0.00
   -3   10   32     -0.81      0.00
   -3   10   35      4.37      0.00
   -3   10   38      1.09      0.00
   -3   10   41      6.06      0.00
   -3   10   44     10.34      0.00
   -3   10   47      8.65      0.00
   -3   10   50      4.18      0.00
   -3   10   53     -7.31      0.00
   -3   10   56     -7.15      0.00
   -3   10   59     -3.63      0.00
   -3   10   62     10.32      0.00
   -3   10   65      2.34      0.00
   -3   10   68     -3.83      0.00
   -3   10   71     -8.81      0.00
   -3   10   74     -2.55      0.00
   -3   10   77      4.73      0.00
   -3   10   80     12.34      0.00
   -3   10   83      5.82      0.00
  -10    6   83     -1.09      0.00
  -10    6   80     -9.53      0.00
  -10    6   77     -2.69      0.00
  -10    6   74      0.90      0.00
  -10    6   71      0.66      0.00
  -10    6   68     -4.74      0.00
  -10    6   65      2.49      0.00
  -10    6   62      5.97      0.00
  -10    6   59      3.31      0.00
  -10    6   56      2.07      0.00
  -10    6   53     -1.77      0.00
  -10    6   50      1.65      0.00
  -10    6   47      2.68      0.00
  -10    6   44      0.03      0.00
  -10    6   41      2.54      0.00
  -10    6   38      7.94      0.00
  -10    6   35      5.01      0.00
  -10    6   32     -4.48      0.00
  -10    6   29      3.07      0.00
  -10    6   26     -0.46      0.00
  -10    6   23      0.31      0.00
  -10    6   20     -3.09      0.00
  -10    6   17     -1.48      0.00
  -10    6   14     -1.63      0.00
  -10    6   11      3.76      0.00
  -10    6    8      4.01      0.00
  -10    6    5     -5.15      0.00
  -10    6    2     -2.59      0.00
   -4   10    1     -7.24      0.00
   -4   10    4     -6.43      0.00
   -4   10    7    -10.21      0.00
   -4   10   10     -0.41      0.00
   -4   10   13      3.58      0.00
   -4   10   16     -0.68      0.00
   -4   10   19     -4.58      0.00
   -4   10   22     -6.48      0.00
   -4   10   25      2.42      0.00
   -4   10   28     -0.74      0.00
   -4   10   31      4.75      0.00
   -4   10   34     -3.37      0.00
   -4   10   37      1.98      0.00
   -4   10   40      7.76      0.00
   -4   10   43      8.63      0.00
   -4   10   46      0.74      0.00
   -4   10   49     -3.94      0.00
   -4   10   52      1.68      0.00
   -4   10   55      1.51      0.00
   -4   10   58      8.95      0.00
   -4   10   61     -2.42      0.00
   -4   10   64     -9.90      0.00
   -4   10   67     -8.10      0.00
   -4   10   70     -0.38      0.00
   -4   10   73     -1.73      0.00
   -4   10   76     -1.67      0.00
   -4   10   79      3.33      0.00
   -4   10   82     -3.33      0.00
   -4   10   85     -1.65      0.00
    5    5   84     -7.80      0.00
    5    5   81     -3.37      0.00
    5    5   78     -5.89      0.00
    5    5   75     -3.70      0.00
    5    5   72     -7.63      0.00
    5    5   69      5.79      0.00
    5    5   66      6.66      0.00
    5    5   63      2.65      0.00
    5    5   60     -0.98      0.00
    5    5   57      0.16      0.00
    5    5   54     -0.79      0.00
    5    5   51      0.19      0.00
    5    5   48      2.73      0.00
    5    5   45      6.94      0.00
    5    5   42      7.41      0.00
    5    5   39      2.07      0.00
    5    5   36     -6.15      0.00
    5    5   33      2.38      0.00
    5    5   30     -1.27      0.00
    5    5   27      0.01      0.00
    5    5   24     -1.85      0.00
    5    5   21      1.67      0.00
    5    5   18     -5.37      0.00
    5    5   15     -3.99      0.00
    5    5   12     -1.42      0.00
    5    5    9     -4.47      0.00
    5    5    6      2.54      0.00
    5    5    3     -0.75      0.00
   -5   10    0      0.45      0.00
   -5   10    3    -12.37      0.00
   -5   10    6     -5.73      0.00
   -5   10    9     -4.82      0.00
   -5   10   12     -1.58      0.00
   -5   10   15     -6.28      0.00
   -5   10   18     -2.67      0.00
   -5   10   21      2.69      0.00
   -5   10   24     -5.15      0.00
   -5   10   27     -1.76      0.00
   -5   10   30     -4.01      0.00
   -5   10   33      3.94      0.00
   -5   10   36      6.16      0.00
   -5   10   39      8.36      0.00
   -5   10   42     -0.50      0.00
   -5   10   45     -2.17      0.00
   -5   10   48      2.49      0.00
   -5   10   51     -0.84      0.00
   -5   10   54      5.32      0.00
   -5   10   57      0.30      0.00
   -5   10   60     -4.59      0.00
   -5   10   63     -2.94      0.00
   -5   10   66      4.71      0.00
   -5   10   69     -3.88      0.00
   -5   10   72    -13.81      0.00
   -5   10   75     -2.12      0.00
   -5   10   78     -3.20      0.00
   -5   10   81     -1.86      0.00
   -5   10   84     -1.02      0.00
    4    6   85     -3.48      0.00
    4    6   82     -9.80      0.00
    4    6   79     -4.51      0.00
    4    6   76     -4.53      0.00
    4    6   73      4.55      0.00
    4    6   70      1.09      0.00
    4    6   67      2.20      0.00
    4    6   64      0.01      0.00
    4    6   61      2.03      0.00
    4    6   58     -2.06      0.00
    4    6   55      0.78      0.00
    4    6   52      3.87      0.00
    4    6   49      7.79      0.00
    4    6   46      5.96      0.00
    4    6   43      0.96      0.00
    4    6   40     -5.45      0.00
    4    6   37      2.80      0.00
    4    6   34     -0.26      0.00
    4    6   31     -1.67      0.00
    4    6   28     -3.19      0.00
    4    6   25      3.11      0.00
    4    6   22     -3.19      0.00
    4    6   19     -2.89      0.00
    4    6   16      1.30      0.00
    4    6   13     -0.94      0.00
    4    6   10     -1.34      0.00
    4    6    7    -11.21      0.00
    4    6    4     -0.92      0.00
    4    6    1     -3.17      0.00
   -6   10    2      2.64      0.00
   -6   10    5    -10.38      0.00
   -6   10    8     -3.41      0.00
   -6   10   11     -7.12      0.00
   -6   10   14     -2.46      0.00
   -6   10   17     -5.89      0.00
   -6   10   20     -8.61      0.00
   -6   10   23     -1.65      0.00
   -6   10   26      2.27      0.00
   -6   10   29      5.09      0.00
   -6   10   32      0.23      0.00
   -6   10   35      4.46      0.00
   -6   10   38     -1.18      0.00
   -6   10   41     -0.16      0.00
   -6   10   44      1.67      0.00
   -6   10   47     -1.07      0.00
   -6   10   50      2.02      0.00
   -6   10   53      2.07      0.00
   -6   10   56     -0.48      0.00
   -6   10   59     -1.76      0.00
   -6   10   62      5.34      0.00
   -6   10   65      0.01      0.00
   -6   10   68     -9.57      0.00
   -6   10   71      0.84      0.00
   -6   10   74      1.43      0.00
   -6   10   77     -0.97      0.00
   -6   10   80     -7.88      0.00
   -6   10   83      4.44      0.00
    3    7   83      0.44      0.00
    3    7   80     -0.58      0.00
    3    7   77     -2.13      0.00
    3    7   74     -7.42      0.00
    3    7   71     -1.14      0.00
    3    7   68      0.19      0.00
    3    7   65      1.17      0.00
    3    7   62      0.70      0.00
    3    7   59      7.54      0.00
    3    7   56      6.91      0.00
    3    7   53      4.31      0.00
    3    7   50      2.12      0.00
    3    7   47      0.38      0.00
    3    7   44     -2.65      0.00
    3    7   41      4.06      0.00
    3    7   38      2.30      0.00
    3    7   35     -3.53      0.00
    3    7   32     -5.40      0.00
    3    7   29      2.86      0.00
    3    7   26      1.70      0.00
    3    7   23      0.72      0.00
    3    7   20      2.95      0.00
    3    7   17      0.59      0.00
    3    7   14     -2.17      0.00
    3    7   11    -13.44      0.00
    3    7    8      0.99      0.00
    3    7    5      5.46      0.00
    3    7    2      5.33      0.00
   -7   10    1    -23.12      0.00
   -7   10    4    -10.41      0.00
   -7   10    7     -4.02      0.00
   -7   10   10      3.01      0.00
   -7   10   13    -12.40      0.00
   -7   10   16     -8.56      0.00
   -7   10   19      0.57      0.00
   -7   10   22      7.62      0.00
   -7   10   25      0.93      0.00
   -7   10   28     -6.11      0.00
   -7   10   31      1.96      0.00
   -7   10   34      1.24      0.00
   -7   10   37      1.84      0.00
   -7   10   40     -0.46      0.00
   -7   10   43     -1.92      0.00
   -7   10   46     -5.84      0.00
   -7   10   49     -1.05      0.00
   -7   10   52      5.05      0.00
   -7   10   55      6.44      0.00
   -7   10   58      3.62      0.00
   -7   10   61     -2.96      0.00
   -7   10   64     -5.01      0.00
   -7   10   67      5.88      0.00
   -7   10   70      7.34      0.00
   -7   10   73      3.54      0.00
   -7   10   76     -6.81      0.00
   -7   10   79     -1.64      0.00
   -7   10   82     -5.04      0.00
    2    8   81     -6.71      0.00
    2    8   78     -8.79      0.00
    2    8   75     -1.24      0.00
    2    8   72      2.39      0.00
    2    8   69     -1.57      0.00
    2    8   66     -2.78      0.00
    2    8   63      3.58      0.00
    2    8   60      7.00      0.00
    2    8   57      5.25      0.00
    2    8   54      3.39      0.00
    2    8   51     -1.24      0.00
    2    8   48     -1.40      0.00
    2    8   45      5.38      0.00
    2    8   42      8.17      0.00
    2    8   39     -1.60      0.00
    2    8   36     -4.84      0.00
    2    8   33     -0.76      0.00
    2    8   30      1.50      0.00
    2    8   27     -0.34      0.00
    2    8   24      1.12      0.00
    2    8   21     -0.16      0.00
    2    8   18      1.92      0.00
    2    8   15     -2.88      0.00
    2    8   12      7.72      0.00
    2    8    9      9.40      0.00
    2    8    6      2.41      0.00
    2    8    3    -28.64      0.00
   -8   10    0    -14.20      0.00
   -8   10    3      0.11      0.00
   -8   10    6     10.23      0.00
   -8   10    9    -11.76      0.00
   -8   10   12     -8.74      0.00
   -8   10   15     -6.95      0.00
   -8   10   18      5.59      0.00
   -8   10   21     -0.86      0.00
   -8   10   24     -2.99      0.00
   -8   10   27      2.87      0.00
   -8   10   30      4.03      0.00
   -8   10   33     -1.86      0.00
   -8   10   36     -5.67      0.00
   -8   10   39     -0.52      0.00
   -8   10   42     -8.38      0.00
   -8   10   45     -6.72      0.00
   -8   10   48      2.53      0.00
   -8   10   51     12.29      0.00
   -8   10   54      3.59      0.00
   -8   10   57     -4.51      0.00
   -8   10   60     -1.57      0.00
   -8   10   63      8.44      0.00
   -8   10   66      6.64      0.00
   -8   10   69      2.80      0.00
   -8   10   72     -1.34      0.00
   -8   10   75     -2.45      0.00
   -8   10   78     -7.14      0.00
   -8   10   81     -1.42      0.00
    1    9   79      4.59      0.00
    1    9   76     10.27      0.00
    1    9   73     -1.32      0.00
    1    9   70    -11.62      0.00
    1    9   67    -12.08      0.00
    1    9   64      1.44      0.00
    1    9   61      9.67      0.00
    1    9   58      8.36      0.00
    1    9   55     -4.55      0.00
    1    9   52     -3.20      0.00
    1    9   49      4.60      0.00
    1    9   46     12.87      0.00
    1    9   43      1.52      0.00
    1    9   40     -0.89      0.00
    1    9   37     -3.59      0.00
    1    9   34     -0.10      0.00
    1    9   31     -3.05      0.00
    1    9   28      2.24      0.00
    1    9   25      2.39      0.00
    1    9   22      5.75      0.00
    1    9   19      1.42      0.00
    1    9   16      2.49      0.00
    1    9   13      3.75      0.00
    1    9   10      3.50      0.00
    1    9    7    -11.82      0.00
    1    9    4     -1.46      0.00
    1    9    1      5.29      0.00
   -9   10    2      7.95      0.00
   -9   10    5    -13.00      0.00
   -9   10    8     -9.21      0.00
   -9   10   11    -13.72      0.00
   -9   10   14      3.26      0.00
   -9   10   17      2.44      0.00
   -9   10   20      4.84      0.00
   -9   10   23      1.35      0.00
   -9   10   26      5.15      0.00
   -9   10   29     -8.98      0.00
   -9   10   32    -14.03      0.00
   -9   10   35      0.71      0.00
   -9   10   38      2.01      0.00
   -9   10   41     -4.26      0.00
   -9   10   44     -5.19      0.00
   -9   10   47      5.97      0.00
   -9   10   50      0.12      0.00
   -9   10   53     -1.76      0.00
   -9   10   56      3.35      0.00
   -9   10   59      9.59      0.00
   -9   10   62      2.68      0.00
   -9   10   65     -3.37      0.00
   -9   10   68     -1.69      0.00
   -9   10   71     -1.92      0.00
   -9   10   74     -4.00      0.00
   -9   10   77     -1.03      0.00
    0   10   74     -9.56      0.00
    0   10   71    -11.03      0.00
    0   10   68      2.77      0.00
    0   10   65      8.70      0.00
    0   10   62      3.58      0.00
    0   10   59    -11.65      0.00
    0   10   56     -6.24      0.00
    0   10   53      1.96      0.00
    0   10   50     12.55      0.00
    0   10   47      3.75      0.00
    0   10   44      5.79      0.00
    0   10   41     -1.23      0.00
    0   10   38      1.17      0.00
    0   10   35     -8.10      0.00
    0   10   32      0.61      0.00
    0   10   29      6.12      0.00
    0   10   26     12.88      0.00
    0   10   23      3.61      0.00
    0   10   20     -4.79      0.00
    0   10   17     -4.98      0.00
    0   10   14      1.53      0.00
    0   10   11      3.75      0.00
    0   10    8      9.41      0.00
    0   10    5      9.25      0.00
    0   10    2      1.66      0.00
  -10   10    1    -12.07      0.00
  -10   10    4     -3.25      0.00
  -10   10    7     -7.54      0.00
  -10   10   10      1.20      0.00
  -10   10   13     -2.00      0.00
  -10   10   16      3.72      0.00
  -10   10   19     -2.54      0.00
  -10   10   22     10.67      0.00
  -10   10   25     -3.92      0.00
  -10   10   28    -14.20      0.00
  -10   10   31     -4.39      0.00
  -10   10   34      7.45      0.00
  -10   10   37     -0.70      0.00
  -10   10   40     -6.62      0.00
  -10   10   43      2.30      0.00
  -10   10   46     -0.88      0.00
  -10   10   49     -0.76      0.00
  -10   10   52      2.15      0.00
  -10   10   55      5.29      0.00
  -10   10   58      1.61      0.00
  -10   10   61     -2.21      0.00
  -10   10   64     -3.09      0.00
  -10   10   67     -6.09      0.00
  -10   10   70     -4.01      0.00
  -10   10   73     -2.26      0.00
  -10   10   76      1.57      0.00
  -11   10   69     -3.56      0.00
  -11   10   66     -7.48      0.00
  -11   10   63    -12.41      0.00
  -11   10   60     -2.41      0.00
  -11   10   57      5.36      0.00
  -11   10   54      5.61      0.00
  -11   10   51      1.89      0.00
  -11   10   48     -2.04      0.00
  -11   10   45     -3.91      0.00
  -11   10   42     -1.96      0.00
  -11   10   39     -1.05      0.00
  -11   10   36     -7.18      0.00
  -11   10   33      0.02      0.00
  -11   10   30     11.87      0.00
  -11   10   27      2.60      0.00
  -11   10   24      1.52      0.00
  -11   10   21      1.61      0.00
  -11   10   18      2.44      0.00
  -11   10   15    -11.79      0.00
  -11   10   12     -0.63      0.00
  -11   10    9     -3.93      0.00
  -11   10    6      2.84      0.00
  -11   10    3      2.22      0.00
   -1   11    0      1.94      0.00
   -1   11    3     -7.36      0.00
   -1   11    6     -3.89      0.00
   -1   11    9      1.88      0.00
   -1   11   12      1.31      0.00
   -1   11   15      3.29      0.00
   -1   11   18      5.49      0.00
   -1   11   21      4.46      0.00
   -1   11   24     -0.08      0.00
   -1   11   27     -0.34      0.00
   -1   11   30      9.24      0.00
   -1   11   33      2.77      0.00
   -1   11   36      1.39      0.00
   -1   11   39     -3.64      0.00
   -1   11   42      6.83      0.00
   -1   11   45      0.61      0.00
   -1   11   48      7.42      0.00
   -1   11   51      1.84      0.00
   -1   11   54      5.07      0.00
   -1   11   57     -3.02      0.00
   -1   11   60     -6.12      0.00
   -1   11   63    -10.36      0.00
   -1   11   66      0.65      0.00
   -1   11   69      6.13      0.00
  -11    9   73     -3.08      0.00
  -11    9   70     -0.48      0.00
  -11    9   67     -3.38      0.00
  -11    9   64     -0.53      0.00
  -11    9   61     -1.77      0.00
  -11    9   58     -2.61      0.00
  -11    9   55     -3.23      0.00
  -11    9   52      3.58      0.00
  -11    9   49      1.69      0.00
  -11    9   46      0.08      0.00
  -11    9   43     -0.84      0.00
  -11    9   40     -5.45      0.00
  -11    9   37     -1.57      0.00
  -11    9   34      6.41      0.00
  -11    9   31      3.54      0.00
  -11    9   28      1.01      0.00
  -11    9   25      8.46      0.00
  -11    9   22     11.08      0.00
  -11    9   19     -2.21      0.00
  -11    9   16     -4.00      0.00
  -11    9   13     -5.61      0.00
  -11    9   10      5.73      0.00
  -11    9    7      5.74      0.00
  -11    9    4      1.59      0.00
  -11    9    1     -9.61      0.00
   -2   11    2     -3.06      0.00
   -2   11    5     -0.85      0.00
   -2   11    8      0.11      0.00
   -2   11   11      3.09      0.00
   -2   11   14      1.70      0.00
   -2   11   17     -1.59      0.00
   -2   11   20     -6.88      0.00
   -2   11   23     -1.07      0.00
   -2   11   26      7.62      0.00
   -2   11   29      8.73      0.00
   -2   11   32     -1.34      0.00
   -2   11   35     -5.53      0.00
   -2   11   38      4.12      0.00
   -2   11   41      4.88      0.00
   -2   11   44      9.18      0.00
   -2   11   47      6.65      0.00
   -2   11   50      7.52      0.00
   -2   11   53     -5.15      0.00
   -2   11   56     -5.82      0.00
   -2   11   59     -4.78      0.00
   -2   11   62      7.23      0.00
   -2   11   65      2.68      0.00
   -2   11   68     -1.07      0.00
   -2   11   71     -4.83      0.00
   -2   11   74      4.04      0.00
  -11    8   77     -2.96      0.00
  -11    8   74      0.11      0.00
  -11    8   71      0.46      0.00
  -11    8   68     -1.87      0.00
  -11    8   65     -0.86      0.00
  -11    8   62      1.16      0.00
  -11    8   59     -1.59      0.00
  -11    8   56      2.56      0.00
  -11    8   53     -0.55      0.00
  -11    8   50      0.73      0.00
  -11    8   47      0.11      0.00
  -11    8   44     -2.77      0.00
  -11    8   41     -3.85      0.00
  -11    8   38      2.77      0.00
  -11    8   35      3.26      0.00
  -11    8   32     -0.89      0.00
  -11    8   29      9.65      0.00
  -11    8   26     12.35      0.00
  -11    8   23      4.08      0.00
  -11    8   20     -4.44      0.00
  -11    8   17     -3.41      0.00
  -11    8   14      4.27      0.00
  -11    8   11      7.35      0.00
  -11    8    8      3.95      0.00
  -11    8    5     -3.70      0.00
  -11    8    2      1.57      0.00
   -3   11    1     -5.41      0.00
   -3   11    4    -11.85      0.00
   -3   11    7     -9.32      0.00
   -3   11   10      0.65      0.00
   -3   11   13      4.67      0.00
   -3   11   16     -0.05      0.00
   -3   11   19     -2.88      0.00
   -3   11   22     -7.27      0.00
   -3   11   25     -0.88      0.00
   -3   11   28     -2.34      0.00
   -3   11   31      4.62      0.00
   -3   11   34      6.44      0.00
   -3   11   37      4.79      0.00
   -3   11   40      1.88      0.00
   -3   11   43      3.88      0.00
   -3   11   46      6.79      0.00
   -3   11   49      0.83      0.00
   -3   11   52      3.57      0.00
   -3   11   55      2.89      0.00
   -3   11   58      8.30      0.00
   -3   11   61     -5.65      0.00
   -3   11   64    -12.72      0.00
   -3   11   67    -10.36      0.00
   -3   11   70      8.95      0.00
   -3   11   73     12.58      0.00
   -3   11   76      9.97      0.00
  -11    7   78     -4.76      0.00
  -11    7   75     -3.38      0.00
  -11    7   72     -8.63      0.00
  -11    7   69      2.09      0.00
  -11    7   66      8.31      0.00
  -11    7   63      3.71      0.00
  -11    7   60     -0.78      0.00
  -11    7   57     -3.13      0.00
  -11    7   54      0.11      0.00
  -11    7   51      2.00      0.00
  -11    7   48      2.66      0.00
  -11    7   45     -2.17      0.00
  -11    7   42      0.75      0.00
  -11    7   39      0.11      0.00
  -11    7   36     -5.42      0.00
  -11    7   33      4.49      0.00
  -11    7   30      9.04      0.00
  -11    7   27      8.39      0.00
  -11    7   24     -1.36      0.00
  -11    7   21     -0.21      0.00
  -11    7   18     -1.91      0.00
  -11    7   15      3.44      0.00
  -11    7   12      1.55      0.00
  -11    7    9     -0.66      0.00
  -11    7    6      8.03      0.00
  -11    7    3      4.12      0.00
   -4   11    0     -8.50      0.00
   -4   11    3    -18.78      0.00
   -4   11    6     -7.86      0.00
   -4   11    9     -0.65      0.00
   -4   11   12      0.14      0.00
   -4   11   15     -2.80      0.00
   -4   11   18     -6.65      0.00
   -4   11   21     -1.93      0.00
   -4   11   24     -6.81      0.00
   -4   11   27      1.40      0.00
   -4   11   30      1.32      0.00
   -4   11   33      5.26      0.00
   -4   11   36      1.85      0.00
   -4   11   39      5.62      0.00
   -4   11   42      2.67      0.00
   -4   11   45      0.96      0.00
   -4   11   48      7.90      0.00
   -4   11   51      5.74      0.00
   -4   11   54      6.91      0.00
   -4   11   57     -5.53      0.00
   -4   11   60     -9.32      0.00
   -4   11   63     -8.25      0.00
   -4   11   66      6.79      0.00
   -4   11   69      2.88      0.00
   -4   11   72     -3.37      0.00
   -4   11   75     -5.76      0.00
   -4   11   78     -4.66      0.00
  -11    6   79     -5.45      0.00
  -11    6   76    -11.47      0.00
  -11    6   73      3.17      0.00
  -11    6   70      7.06      0.00
  -11    6   67      3.33      0.00
  -11    6   64     -4.68      0.00
  -11    6   61     -2.16      0.00
  -11    6   58     -1.40      0.00
  -11    6   55      2.70      0.00
  -11    6   52      7.41      0.00
  -11    6   49      2.81      0.00
  -11    6   46     -0.94      0.00
  -11    6   43     -3.08      0.00
  -11    6   40     -4.96      0.00
  -11    6   37      4.28      0.00
  -11    6   34      6.55      0.00
  -11    6   31      5.97      0.00
  -11    6   28     -3.03      0.00
  -11    6   25      0.38      0.00
  -11    6   22     -5.81      0.00
  -11    6   19      1.20      0.00
  -11    6   16     -0.92      0.00
  -11    6   13     -3.50      0.00
  -11    6   10      3.47      0.00
  -11    6    7      9.80      0.00
  -11    6    4      3.91      0.00
  -11    6    1    -11.79      0.00
   -5   11    2     -5.92      0.00
   -5   11    5     -4.86      0.00
   -5   11    8     -4.39      0.00
   -5   11   11     -8.28      0.00
   -5   11   14     -2.27      0.00
   -5   11   17      2.89      0.00
   -5   11   20     -7.39      0.00
   -5   11   23     -6.30      0.00
   -5   11   26     -5.71      0.00
   -5   11   29      2.81      0.00
   -5   11   32     -0.31      0.00
   -5   11   35      6.72      0.00
   -5   11   38      2.28      0.00
   -5   11   41      2.62      0.00
   -5   11   44      7.43      0.00
   -5   11   47      1.43      0.00
   -5   11   50      0.24      0.00
   -5   11   53     -3.21      0.00
   -5   11   56      1.90      0.00
   -5   11   59     -0.62      0.00
   -5   11   62      6.74      0.00
   -5   11   65     -4.74      0.00
   -5   11   68    -13.61      0.00
   -5   11   71     -8.32      0.00
   -5   11   74     -3.95      0.00
   -5   11   77     -3.28      0.00
    5    6   77      1.37      0.00
    5    6   74     -1.14      0.00
    5    6   71     -1.17      0.00
    5    6   68     -6.14      0.00
    5    6   65      1.63      0.00
    5    6   62     -0.19      0.00
    5    6   59      3.57      0.00
    5    6   56      5.78      0.00
    5    6   53      2.83      0.00
    5    6   50     -3.03      0.00
    5    6   47     -2.41      0.00
    5    6   44      1.12      0.00
    5    6   41      9.96      0.00
    5    6   38      6.77      0.00
    5    6   35     -0.79      0.00
    5    6   32     -8.18      0.00
    5    6   29      1.02      0.00
    5    6   26     -3.27      0.00
    5    6   23      2.77      0.00
    5    6   20      1.51      0.00
    5    6   17     -2.80      0.00
    5    6   14     -5.91      0.00
    5    6   11      0.17      0.00
    5    6    8      3.94      0.00
    5    6    5     -4.62      0.00
    5    6    2      1.36      0.00
   -6   11    1     -1.38      0.00
   -6   11    4      1.44      0.00
   -6   11    7     -7.83      0.00
   -6   11   10     -4.06      0.00
   -6   11   13     -3.65      0.00
   -6   11   16     -6.00      0.00
   -6   11   19     -3.66      0.00
   -6   11   22     -1.43      0.00
   -6   11   25      1.26      0.00
   -6   11   28     -7.27      0.00
   -6   11   31     -0.35      0.00
   -6   11   34     -0.52      0.00
   -6   11   37      5.05      0.00
   -6   11   40      7.15      0.00
   -6   11   43     -0.73      0.00
   -6   11   46     -4.43      0.00
   -6   11   49     -2.38      0.00
   -6   11   52      5.27      0.00
   -6   11   55     -0.88      0.00
   -6   11   58      5.19      0.00
   -6   11   61     -2.64      0.00
   -6   11   64     -8.21      0.00
   -6   11   67     -2.16      0.00
   -6   11   70      1.41      0.00
   -6   11   73     -5.11      0.00
   -6   11   76     -9.44      0.00
   -6   11   79      7.49      0.00
    4    7   78     -6.79      0.00
    4    7   75     -3.86      0.00
    4    7   72     -6.32      0.00
    4    7   69      0.74      0.00
    4    7   66      0.86      0.00
    4    7   63      7.41      0.00
    4    7   60      5.13      0.00
    4    7   57      0.92      0.00
    4    7   54     -4.10      0.00
    4    7   51     -2.14      0.00
    4    7   48      2.36      0.00
    4    7   45     12.31      0.00
    4    7   42     11.83      0.00
    4    7   39     -1.55      0.00
    4    7   36     -9.95      0.00
    4    7   33      0.12      0.00
    4    7   30      0.07      0.00
    4    7   27      1.57      0.00
    4    7   24      2.71      0.00
    4    7   21      1.92      0.00
    4    7   18     -4.22      0.00
    4    7   15     -2.57      0.00
    4    7   12      3.55      0.00
    4    7    9     -1.68      0.00
    4    7    6     -2.22      0.00
    4    7    3    -10.27      0.00
   -7   11    0      1.56      0.00
   -7   11    3     -0.90      0.00
   -7   11    6     -0.82      0.00
   -7   11    9    -11.69      0.00
   -7   11   12     -4.88      0.00
   -7   11   15      0.89      0.00
   -7   11   18      4.89      0.00
   -7   11   21     -0.98      0.00
   -7   11   24     -9.23      0.00
   -7   11   27     -3.48      0.00
   -7   11   30     -1.47      0.00
   -7   11   33      4.55      0.00
   -7   11   36      4.99      0.00
   -7   11   39     -1.85      0.00
   -7   11   42     -8.88      0.00
   -7   11   45     -3.68      0.00
   -7   11   48      3.85      0.00
   -7   11   51     -2.95      0.00
   -7   11   54      1.02      0.00
   -7   11   57     -0.53      0.00
   -7   11   60     -0.59      0.00
   -7   11   63      4.33      0.00
   -7   11   66      7.75      0.00
   -7   11   69     -1.14      0.00
   -7   11   72     -9.60      0.00
   -7   11   75      4.09      0.00
   -7   11   78      4.87      0.00
    3    8   76     -4.51      0.00
    3    8   73     -3.41      0.00
    3    8   70     -2.41      0.00
    3    8   67      5.53      0.00
    3    8   64      3.97      0.00
    3    8   61      1.09      0.00
    3    8   58     -1.28      0.00
    3    8   55     -0.73      0.00
    3    8   52      0.95      0.00
    3    8   49      8.64      0.00
    3    8   46     15.06      0.00
    3    8   43      2.88      0.00
    3    8   40     -5.69      0.00
    3    8   37     -3.16      0.00
    3    8   34     -0.77      0.00
    3    8   31     -4.32      0.00
    3    8   28      0.32      0.00
    3    8   25      4.66      0.00
    3    8   22      5.31      0.00
    3    8   19      3.81      0.00
    3    8   16      5.52      0.00
    3    8   13      0.85      0.00
    3    8   10     -2.98      0.00
    3    8    7    -16.08      0.00
    3    8    4     -5.14      0.00
    3    8    1      0.85      0.00
   -8   11    2      4.86      0.00
   -8   11    5    -12.85      0.00
   -8   11    8     -6.67      0.00
   -8   11   11     -5.06      0.00
   -8   11   14      2.76      0.00
   -8   11   17     -4.84      0.00
   -8   11   20     -4.73      0.00
   -8   11   23      0.98      0.00
   -8   11   26      5.27      0.00
   -8   11   29      1.78      0.00
   -8   11   32     -0.77      0.00
   -8   11   35     -2.14      0.00
   -8   11   38     -9.25      0.00
   -8   11   41     -6.50      0.00
   -8   11   44     -1.91      0.00
   -8   11   47     -5.87      0.00
   -8   11   50     -5.17      0.00
   -8   11   53      1.17      0.00
   -8   11   56      7.80      0.00
   -8   11   59      9.98      0.00
   -8   11   62      6.01      0.00
   -8   11   65     -3.95      0.00
   -8   11   68     -6.74      0.00
   -8   11   71      5.12      0.00
   -8   11   74      6.39      0.00
   -8   11   77      5.66      0.00
    2    9   74     -6.87      0.00
    2    9   71     -3.32      0.00
    2    9   68     -0.23      0.00
    2    9   65      1.91      0.00
    2    9   62      1.31      0.00
    2    9   59      0.36      0.00
    2    9   56      3.29      0.00
    2    9   53      5.56      0.00
    2    9   50     10.34      0.00
    2    9   47      0.67      0.00
    2    9   44     -1.00      0.00
    2    9   41     -3.59      0.00
    2    9   38      2.94      0.00
    2    9   35     -4.75      0.00
    2    9   32     -1.07      0.00
    2    9   29     -0.40      0.00
    2    9   26      8.27      0.00
    2    9   23      6.16      0.00
    2    9   20      3.29      0.00
    2    9   17     -0.53      0.00
    2    9   14      2.43      0.00
    2    9   11     -4.75      0.00
    2    9    8     -0.75      0.00
    2    9    5      3.96      0.00
    2    9    2      6.15      0.00
   -9   11    1    -12.82      0.00
   -9   11    4    -12.30      0.00
   -9   11    7    -13.86      0.00
   -9   11   10      2.04      0.00
   -9   11   13     -1.64      0.00
   -9   11   16     -0.29      0.00
   -9   11   19     -2.70      0.00
   -9   11   22      9.08      0.00
   -9   11   25     -2.60      0.00
   -9   11   28     -9.22      0.00
   -9   11   31     -3.42      0.00
   -9   11   34      0.05      0.00
   -9   11   37     -4.16      0.00
   -9   11   40     -5.79      0.00
   -9   11   43     -5.86      0.00
   -9   11   46    -10.27      0.00
   -9   11   49     -3.41      0.00
   -9   11   52      6.78      0.00
   -9   11   55     11.83      0.00
   -9   11   58      4.17      0.00
   -9   11   61     -5.31      0.00
   -9   11   64     -4.43      0.00
   -9   11   67      4.50      0.00
   -9   11   70      5.08      0.00
   -9   11   73      3.40      0.00
    1   10   69      0.68      0.00
    1   10   66     -5.04      0.00
    1   10   63     -6.46      0.00
    1   10   60      5.41      0.00
    1   10   57      9.09      0.00
    1   10   54      6.16      0.00
    1   10   51     -6.31      0.00
    1   10   48     -1.87      0.00
    1   10   45     -4.02      0.00
    1   10   42     10.01      0.00
    1   10   39      2.28      0.00
    1   10   36      1.67      0.00
    1   10   33     -9.37      0.00
    1   10   30      3.28      0.00
    1   10   27      3.59      0.00
    1   10   24      4.87      0.00
    1   10   21      1.40      0.00
    1   10   18      6.20      0.00
    1   10   15      3.64      0.00
    1   10   12      3.73      0.00
    1   10    9      6.40      0.00
    1   10    6      2.93      0.00
    1   10    3    -10.26      0.00
  -10   11    0     -8.31      0.00
  -10   11    3     -8.38      0.00
  -10   11    6      4.80      0.00
  -10   11    9      1.60      0.00
  -10   11   12     -0.86      0.00
  -10   11   15    -14.52      0.00
  -10   11   18      5.96      0.00
  -10   11   21     -2.24      0.00
  -10   11   24    -11.04      0.00
  -10   11   27     -7.87      0.00
  -10   11   30      8.77      0.00
  -10   11   33     -1.06      0.00
  -10   11   36     -6.61      0.00
  -10   11   39     -0.55      0.00
  -10   11   42     -5.49      0.00
  -10   11   45     -9.05      0.00
  -10   11   48     -5.05      0.00
  -10   11   51      5.04      0.00
  -10   11   54      5.42      0.00
  -10   11   57      2.98      0.00
  -10   11   60     -0.49      0.00
  -10   11   63     -1.71      0.00
  -10   11   66     -2.45      0.00
  -10   11   69     -2.42      0.00
    0   11   67     -8.72      0.00
    0   11   64      3.73      0.00
    0   11   61      8.32      0.00
    0   11   58      2.23      0.00
    0   11   55     -8.95      0.00
    0   11   52     -3.22      0.00
    0   11   49     -6.01      0.00
    0   11   46     11.00      0.00
    0   11   43      9.01      0.00
    0   11   40      8.53      0.00
    0   11   37    -12.51      0.00
    0   11   34     -4.14      0.00
    0   11   31     -5.01      0.00
    0   11   28      9.63      0.00
    0   11   25     14.34      0.00
    0   11   22     15.89      0.00
    0   11   19      3.15      0.00
    0   11   16     -3.12      0.00
    0   11   13     -1.57      0.00
    0   11   10     -5.04      0.00
    0   11    7     -4.09      0.00
    0   11    4      4.98      0.00
    0   11    1      4.27      0.00
  -11   11    2      2.50      0.00
  -11   11    5     -0.92      0.00
  -11   11    8     -0.24      0.00
  -11   11   11    -20.93      0.00
  -11   11   14     -6.62      0.00
  -11   11   17     -3.65      0.00
  -11   11   20     -0.60      0.00
  -11   11   23     -3.01      0.00
  -11   11   26     16.90      0.00
  -11   11   29      2.59      0.00
  -11   11   32     -9.29      0.00
  -11   11   35     -5.49      0.00
  -11   11   38     -2.64      0.00
  -11   11   41     -7.55      0.00
  -11   11   44     -5.88      0.00
  -11   11   47      3.56      0.00
  -11   11   50      6.16      0.00
  -11   11   53      6.00      0.00
  -11   11   56     -2.55      0.00
  -11   11   59     -9.71      0.00
  -11   11   62     -5.96      0.00
  -11   11   65     -1.82      0.00
  -12   11   61      3.64      0.00
  -12   11   58      0.88      0.00
  -12   11   55     -8.16      0.00
  -12   11   52     -5.41      0.00
  -12   11   49      0.88      0.00
  -12   11   46      2.49      0.00
  -12   11   43      1.50      0.00
  -12   11   40     -5.66      0.00
  -12   11   37     -8.15      0.00
  -12   11   34     -2.06      0.00
  -12   11   31     -1.04      0.00
  -12   11   28      5.36      0.00
  -12   11   25      8.26      0.00
  -12   11   22      8.84      0.00
  -12   11   19     -4.72      0.00
  -12   11   16      6.91      0.00
  -12   11   13     -4.94      0.00
  -12   11   10    -12.45      0.00
  -12   11    7    -11.79      0.00
  -12   11    4      5.63      0.00
  -12   11    1     -4.99      0.00
   -1   12    2     -8.96      0.00
   -1   12    5      1.05      0.00
   -1   12    8      5.67      0.00
   -1   12   11      0.33      0.00
   -1   12   14     -1.22      0.00
   -1   12   17      2.41      0.00
   -1   12   20     -3.08      0.00
   -1   12   23     -3.49      0.00
   -1   12   26     14.56      0.00
   -1   12   29     16.22      0.00
   -1   12   32     11.39      0.00
   -1   12   35     -4.66      0.00
   -1   12   38     -0.02      0.00
   -1   12   41     -6.92      0.00
   -1   12   44     10.00      0.00
   -1   12   47      5.32      0.00
   -1   12   50      2.67      0.00
   -1   12   53     -6.21      0.00
   -1   12   56      0.43      0.00
   -1   12   59     -4.18      0.00
  -12   10   65     -1.89      0.00
  -12   10   62     -5.10      0.00
  -12   10   59    -11.71      0.00
  -12   10   56     -1.16      0.00
  -12   10   53      8.87      0.00
  -12   10   50      7.44      0.00
  -12   10   47     -2.64      0.00
  -12   10   44     -9.97      0.00
  -12   10   41    -10.40      0.00
  -12   10   38     -4.11      0.00
  -12   10   35     -0.28      0.00
  -12   10   32      1.25      0.00
  -12   10   29      7.64      0.00
  -12   10   26     13.35      0.00
  -12   10   23      6.97      0.00
  -12   10   20      8.10      0.00
  -12   10   17     -2.22      0.00
  -12   10   14     -7.51      0.00
  -12   10   11     -8.44      0.00
  -12   10    8      5.56      0.00
  -12   10    5      0.35      0.00
  -12   10    2     -2.23      0.00
   -2   12    1     -5.18      0.00
   -2   12    4     -3.27      0.00
   -2   12    7     -2.41      0.00
   -2   12   10     -1.30      0.00
   -2   12   13     -0.69      0.00
   -2   12   16     -6.75      0.00
   -2   12   19     -6.45      0.00
   -2   12   22      7.21      0.00
   -2   12   25     16.71      0.00
   -2   12   28      9.13      0.00
   -2   12   31     -3.83      0.00
   -2   12   34      1.17      0.00
   -2   12   37     -2.75      0.00
   -2   12   40      4.78      0.00
   -2   12   43      5.15      0.00
   -2   12   46      8.39      0.00
   -2   12   49     -1.31      0.00
   -2   12   52      4.47      0.00
   -2   12   55      0.05      0.00
   -2   12   58     -0.76      0.00
   -2   12   61     -4.85      0.00
   -2   12   64     -2.31      0.00
  -12    9   66      2.78      0.00
  -12    9   63     -3.10      0.00
  -12    9   60     -1.66      0.00
  -12    9   57      1.63      0.00
  -12    9   54      1.34      0.00
  -12    9   51     -5.61      0.00
  -12    9   48     -4.35      0.00
  -12    9   45     -3.63      0.00
  -12    9   42     -2.65      0.00
  -12    9   39     -4.68      0.00
  -12    9   36     -5.33      0.00
  -12    9   33      5.05      0.00
  -12    9   30     10.83      0.00
  -12    9   27      7.36      0.00
  -12    9   24      4.71      0.00
  -12    9   21      6.74      0.00
  -12    9   18      4.00      0.00
  -12    9   15     -1.29      0.00
  -12    9   12     -0.17      0.00
  -12    9    9      1.14      0.00
  -12    9    6      8.99      0.00
  -12    9    3      2.85      0.00
   -3   12    0     -8.46      0.00
   -3   12    3    -15.32      0.00
   -3   12    6     -9.13      0.00
   -3   12    9     -2.43      0.00
   -3   12   12      0.53      0.00
   -3   12   15     -1.12      0.00
   -3   12   18     -3.60      0.00
   -3   12   21      0.37      0.00
   -3   12   24     -3.06      0.00
   -3   12   27     -1.21      0.00
   -3   12   30      7.60      0.00
   -3   12   33      7.63      0.00
   -3   12   36      0.63      0.00
   -3   12   39      0.20      0.00
   -3   12   42      5.98      0.00
   -3   12   45      2.01      0.00
   -3   12   48      6.75      0.00
   -3   12   51      4.90      0.00
   -3   12   54      3.64      0.00
   -3   12   57     -5.22      0.00
   -3   12   60     -3.94      0.00
   -3   12   63     -1.16      0.00
   -3   12   66      9.23      0.00
  -12    8   70      6.07      0.00
  -12    8   67      3.41      0.00
  -12    8   64     -2.74      0.00
  -12    8   61     -0.80      0.00
  -12    8   58      1.01      0.00
  -12    8   55     -2.82      0.00
  -12    8   52     -0.38      0.00
  -12    8   49     -2.60      0.00
  -12    8   46     -4.35      0.00
  -12    8   43     -7.58      0.00
  -12    8   40     -7.23      0.00
  -12    8   37      2.69      0.00
  -12    8   34      7.17      0.00
  -12    8   31      4.93      0.00
  -12    8   28     -0.11      0.00
  -12    8   25      9.54      0.00
  -12    8   22      7.13      0.00
  -12    8   19      3.97      0.00
  -12    8   16     -2.95      0.00
  -12    8   13      0.61      0.00
  -12    8   10     12.17      0.00
  -12    8    7     13.63      0.00
  -12    8    4     -1.51      0.00
  -12    8    1    -15.98      0.00
   -4   12    2    -11.56      0.00
   -4   12    5     -7.80      0.00
   -4   12    8     -4.09      0.00
   -4   12   11     -3.54      0.00
   -4   12   14     -4.40      0.00
   -4   12   17     -3.64      0.00
   -4   12   20     -9.75      0.00
   -4   12   23     -5.89      0.00
   -4   12   26      1.44      0.00
   -4   12   29      8.54      0.00
   -4   12   32      0.49      0.00
   -4   12   35      4.08      0.00
   -4   12   38      6.07      0.00
   -4   12   41      2.58      0.00
   -4   12   44      2.47      0.00
   -4   12   47      3.02      0.00
   -4   12   50      5.71      0.00
   -4   12   53      1.55      0.00
   -4   12   56      3.03      0.00
   -4   12   59     -0.16      0.00
   -4   12   62      6.27      0.00
   -4   12   65     -2.15      0.00
   -4   12   68     -8.41      0.00
   -4   12   71     -7.72      0.00
  -12    7   71      0.74      0.00
  -12    7   68     -6.19      0.00
  -12    7   65      1.41      0.00
  -12    7   62      4.31      0.00
  -12    7   59      2.69      0.00
  -12    7   56      0.86      0.00
  -12    7   53     -5.61      0.00
  -12    7   50     -8.88      0.00
  -12    7   47     -5.94      0.00
  -12    7   44     -0.95      0.00
  -12    7   41      4.80      0.00
  -12    7   38      5.17      0.00
  -12    7   35      1.04      0.00
  -12    7   32     -7.59      0.00
  -12    7   29      3.18      0.00
  -12    7   26      3.90      0.00
  -12    7   23     10.29      0.00
  -12    7   20      2.59      0.00
  -12    7   17      0.32      0.00
  -12    7   14      0.74      0.00
  -12    7   11     10.06      0.00
  -12    7    8      4.27      0.00
  -12    7    5     -3.96      0.00
  -12    7    2      1.86      0.00
   -5   12    1     -1.18      0.00
   -5   12    4     -9.56      0.00
   -5   12    7    -14.52      0.00
   -5   12   10     -5.36      0.00
   -5   12   13      0.53      0.00
   -5   12   16     -5.67      0.00
   -5   12   19     -6.39      0.00
   -5   12   22     -5.68      0.00
   -5   12   25     -1.35      0.00
   -5   12   28     -9.18      0.00
   -5   12   31      3.29      0.00
   -5   12   34      8.65      0.00
   -5   12   37      8.45      0.00
   -5   12   40      2.70      0.00
   -5   12   43     -0.67      0.00
   -5   12   46     -0.08      0.00
   -5   12   49      2.74      0.00
   -5   12   52      9.71      0.00
   -5   12   55      1.80      0.00
   -5   12   58      4.57      0.00
   -5   12   61     -3.30      0.00
   -5   12   64     -8.63      0.00
   -5   12   67     -9.78      0.00
   -5   12   70     -1.54      0.00
    6    6   72     -8.67      0.00
    6    6   69      1.39      0.00
    6    6   66      3.22      0.00
    6    6   63      4.96      0.00
    6    6   60      0.59      0.00
    6    6   57     -6.38      0.00
    6    6   54    -11.23      0.00
    6    6   51     -2.51      0.00
    6    6   48      5.65      0.00
    6    6   45      7.67      0.00
    6    6   42      3.92      0.00
    6    6   39     -1.26      0.00
    6    6   36     -8.32      0.00
    6    6   33      2.61      0.00
    6    6   30      2.19      0.00
    6    6   27      8.58      0.00
    6    6   24      3.73      0.00
    6    6   21      2.52      0.00
    6    6   18     -5.72      0.00
    6    6   15      4.23      0.00
    6    6   12      1.94      0.00
    6    6    9     -4.06      0.00
    6    6    6      3.20      0.00
    6    6    3      7.83      0.00
   -6   12    0      1.62      0.00
   -6   12    3     -9.84      0.00
   -6   12    6     -3.83      0.00
   -6   12    9     -0.73      0.00
   -6   12   12     -3.45      0.00
   -6   12   15     -3.85      0.00
   -6   12   18     -2.85      0.00
   -6   12   21     -2.88      0.00
   -6   12   24    -14.17      0.00
   -6   12   27     -4.04      0.00
   -6   12   30      0.76      0.00
   -6   12   33      5.70      0.00
   -6   12   36      2.87      0.00
   -6   12   39      1.16      0.00
   -6   12   42     -1.59      0.00
   -6   12   45      1.88      0.00
   -6   12   48      8.09      0.00
   -6   12   51     -4.15      0.00
   -6   12   54      0.06      0.00
   -6   12   57      1.04      0.00
   -6   12   60      2.23      0.00
   -6   12   63     -3.23      0.00
   -6   12   66     -1.23      0.00
   -6   12   69     -7.43      0.00
   -6   12   72     -7.79      0.00
    5    7   70      0.30      0.00
    5    7   67      4.36      0.00
    5    7   64     -0.25      0.00
    5    7   61     -4.31      0.00
    5    7   58     -8.43      0.00
    5    7   55     -0.69      0.00
    5    7   52      3.37      0.00
    5    7   49      5.31      0.00
    5    7   46      6.48      0.00
    5    7   43      3.44      0.00
    5    7   40     -1.54      0.00
    5    7   37      5.59      0.00
    5    7   34      1.14      0.00
    5    7   31     -1.46      0.00
    5    7   28     -0.40      0.00
    5    7   25      8.33      0.00
    5    7   22      2.08      0.00
    5    7   19      6.76      0.00
    5    7   16      1.34      0.00
    5    7   13     -9.26      0.00
    5    7   10     -8.25      0.00
    5    7    7      2.71      0.00
    5    7    4      7.16      0.00
    5    7    1     -2.09      0.00
   -7   12    2     -1.32      0.00
   -7   12    5     -1.36      0.00
   -7   12    8      1.95      0.00
   -7   12   11     -0.86      0.00
   -7   12   14     -1.56      0.00
   -7   12   17     -2.72      0.00
   -7   12   20     -7.91      0.00
   -7   12   23     -2.48      0.00
   -7   12   26     -3.46      0.00
   -7   12   29     -0.48      0.00
   -7   12   32     -0.97      0.00
   -7   12   35     -1.06      0.00
   -7   12   38     -5.66      0.00
   -7   12   41      0.00      0.00
   -7   12   44      5.45      0.00
   -7   12   47     -8.92      0.00
   -7   12   50     -5.29      0.00
   -7   12   53      1.80      0.00
   -7   12   56      6.75      0.00
   -7   12   59      0.41      0.00
   -7   12   62      4.33      0.00
   -7   12   65     -2.12      0.00
   -7   12   68     -5.24      0.00
   -7   12   71      4.73      0.00
    4    8   71      0.87      0.00
    4    8   68     -3.73      0.00
    4    8   65     -4.39      0.00
    4    8   62     -3.32      0.00
    4    8   59      4.31      0.00
    4    8   56      3.07      0.00
    4    8   53      1.78      0.00
    4    8   50      6.16      0.00
    4    8   47      4.65      0.00
    4    8   44      2.16      0.00
    4    8   41      6.08      0.00
    4    8   38      4.18      0.00
    4    8   35     -6.48      0.00
    4    8   32     -3.68      0.00
    4    8   29      8.00      0.00
    4    8   26      8.34      0.00
    4    8   23      8.06      0.00
    4    8   20      3.89      0.00
    4    8   17     -4.62      0.00
    4    8   14     -6.24      0.00
    4    8   11     -0.41      0.00
    4    8    8      2.29      0.00
    4    8    5     -4.64      0.00
    4    8    2     -3.00      0.00
   -8   12    1     -2.49      0.00
   -8   12    4      4.29      0.00
   -8   12    7     -2.85      0.00
   -8   12   10     -5.78      0.00
   -8   12   13     -7.30      0.00
   -8   12   16     -1.57      0.00
   -8   12   19      4.06      0.00
   -8   12   22      4.83      0.00
   -8   12   25      1.10      0.00
   -8   12   28     -3.39      0.00
   -8   12   31     -7.02      0.00
   -8   12   34    -12.15      0.00
   -8   12   37     -3.76      0.00
   -8   12   40      3.82      0.00
   -8   12   43     -9.94      0.00
   -8   12   46    -11.54      0.00
   -8   12   49     -0.26      0.00
   -8   12   52      7.50      0.00
   -8   12   55      0.88      0.00
   -8   12   58      4.25      0.00
   -8   12   61     -0.41      0.00
   -8   12   64     -2.33      0.00
   -8   12   67      7.61      0.00
   -8   12   70      9.50      0.00
    3    9   66     -1.33      0.00
    3    9   63      8.94      0.00
    3    9   60      9.34      0.00
    3    9   57      1.96      0.00
    3    9   54     -0.95      0.00
    3    9   51     -3.44      0.00
    3    9   48      0.75      0.00
    3    9   45      4.87      0.00
    3    9   42     12.69      0.00
    3    9   39      0.79      0.00
    3    9   36     -2.59      0.00
    3    9   33     -4.71      0.00
    3    9   30      1.91      0.00
    3    9   27      2.84      0.00
    3    9   24      5.48      0.00
    3    9   21      2.32      0.00
    3    9   18      5.16      0.00
    3    9   15      4.46      0.00
    3    9   12      0.83      0.00
    3    9    9     -1.94      0.00
    3    9    6      1.13      0.00
    3    9    3     -4.86      0.00
   -9   12    0     -5.89      0.00
   -9   12    3    -10.35      0.00
   -9   12    6     -2.83      0.00
   -9   12    9     -1.95      0.00
   -9   12   12      0.81      0.00
   -9   12   15     -3.63      0.00
   -9   12   18      5.01      0.00
   -9   12   21     -0.10      0.00
   -9   12   24     -5.38      0.00
   -9   12   27     -7.73      0.00
   -9   12   30     -5.34      0.00
   -9   12   33     -3.55      0.00
   -9   12   36      0.91      0.00
   -9   12   39     -7.79      0.00
   -9   12   42    -14.47      0.00
   -9   12   45     -6.09      0.00
   -9   12   48      1.76      0.00
   -9   12   51     -2.58      0.00
   -9   12   54     -0.46      0.00
   -9   12   57      1.22      0.00
   -9   12   60      2.35      0.00
   -9   12   63      8.71      0.00
   -9   12   66      9.15      0.00
    2   10   64      9.42      0.00
    2   10   61      6.42      0.00
    2   10   58     -1.81      0.00
    2   10   55     -6.59      0.00
    2   10   52     -0.08      0.00
    2   10   49     -1.72      0.00
    2   10   46     10.85      0.00
    2   10   43      7.37      0.00
    2   10   40      4.63      0.00
    2   10   37    -13.93      0.00
    2   10   34     -4.78      0.00
    2   10   31     -2.39      0.00
    2   10   28      6.06      0.00
    2   10   25      3.65      0.00
    2   10   22     11.35      0.00
    2   10   19      6.80      0.00
    2   10   16      0.90      0.00
    2   10   13      1.89      0.00
    2   10   10      4.39      0.00
    2   10    7     -4.17      0.00
    2   10    4     -8.23      0.00
    2   10    1     -6.66      0.00
  -10   12    2      6.51      0.00
  -10   12    5      5.48      0.00
  -10   12    8     -1.30      0.00
  -10   12   11    -18.48      0.00
  -10   12   14     -2.40      0.00
  -10   12   17     -2.62      0.00
  -10   12   20     -6.93      0.00
  -10   12   23     -9.24      0.00
  -10   12   26      7.04      0.00
  -10   12   29     -2.61      0.00
  -10   12   32     -6.93      0.00
  -10   12   35     -5.12      0.00
  -10   12   38     -5.14      0.00
  -10   12   41     -6.97      0.00
  -10   12   44     -6.17      0.00
  -10   12   47     -7.57      0.00
  -10   12   50     -5.74      0.00
  -10   12   53      2.91      0.00
  -10   12   56      5.64      0.00
  -10   12   59      5.61      0.00
  -10   12   62      2.58      0.00
  -10   12   65     -2.45      0.00
    1   11   59     -3.11      0.00
    1   11   56      3.65      0.00
    1   11   53     -4.76      0.00
    1   11   50      0.53      0.00
    1   11   47      2.74      0.00
    1   11   44      8.43      0.00
    1   11   41    -12.71      0.00
    1   11   38     -2.08      0.00
    1   11   35     -2.51      0.00
    1   11   32      7.00      0.00
    1   11   29      2.47      0.00
    1   11   26     13.55      0.00
    1   11   23      6.50      0.00
    1   11   20      2.00      0.00
    1   11   17      0.04      0.00
    1   11   14     -2.76      0.00
    1   11   11     -3.86      0.00
    1   11    8      4.58      0.00
    1   11    5      9.95      0.00
    1   11    2      4.63      0.00
  -11   12    1     -1.30      0.00
  -11   12    4     -2.17      0.00
  -11   12    7    -17.95      0.00
  -11   12   10     -5.43      0.00
  -11   12   13     -1.96      0.00
  -11   12   16     -3.16      0.00
  -11   12   19    -12.31      0.00
  -11   12   22     12.29      0.00
  -11   12   25     -0.89      0.00
  -11   12   28    -14.91      0.00
  -11   12   31    -12.58      0.00
  -11   12   34      2.82      0.00
  -11   12   37      1.10      0.00
  -11   12   40      0.38      0.00
  -11   12   43     -0.53      0.00
  -11   12   46     -6.88      0.00
  -11   12   49     -5.68      0.00
  -11   12   52     -4.90      0.00
  -11   12   55     -2.48      0.00
  -11   12   58      1.82      0.00
  -11   12   61      3.42      0.00
    0   12   54     -4.49      0.00
    0   12   51     -5.77      0.00
    0   12   48      3.05      0.00
    0   12   45     -8.97      0.00
    0   12   42      5.83      0.00
    0   12   39      4.95      0.00
    0   12   36     10.78      0.00
    0   12   33     -1.30      0.00
    0   12   30      6.19      0.00
    0   12   27     -0.68      0.00
    0   12   24      8.24      0.00
    0   12   21     10.67      0.00
    0   12   18      2.20      0.00
    0   12   15     -3.41      0.00
    0   12   12      6.67      0.00
    0   12    9      8.14      0.00
    0   12    6    -10.96      0.00
    0   12    3    -11.51      0.00
    0   12    0      5.18      0.00
  -12   12    3     -1.68      0.00
  -12   12    6     -4.69      0.00
  -12   12    9     -2.13      0.00
  -12   12   12      1.72      0.00
  -12   12   15    -19.45      0.00
  -12   12   18     -1.72      0.00
  -12   12   21      1.56      0.00
  -12   12   24     -0.10      0.00
  -12   12   27     -6.78      0.00
  -12   12   30      7.29      0.00
  -12   12   33      4.59      0.00
  -12   12   36      3.16      0.00
  -12   12   39      0.70      0.00
  -12   12   42     -7.59      0.00
  -12   12   45    -11.35      0.00
  -12   12   48     -9.55      0.00
  -12   12   51     -2.62      0.00
  -12   12   54      6.22      0.00
  -13   12   47      0.12      0.00
  -13   12   44     -8.91      0.00
  -13   12   41    -12.80      0.00
  -13   12   38     -9.10      0.00
  -13   12   35     -1.35      0.00
  -13   12   32      5.65      0.00
  -13   12   29      5.52      0.00
  -13   12   26      6.99      0.00
  -13   12   23      6.08      0.00
  -13   12   20     18.98      0.00
  -13   12   17      0.06      0.00
  -13   12   14    -17.67      0.00
  -13   12   11    -17.69      0.00
  -13   12    8      7.54      0.00
  -13   12    5     -3.96      0.00
  -13   12    2     -9.47      0.00
   -1   13    1      2.40      0.00
   -1   13    4      8.05      0.00
   -1   13    7     -9.51      0.00
   -1   13   10    -13.18      0.00
   -1   13   13      1.01      0.00
   -1   13   16      0.89      0.00
   -1   13   19     -3.91      0.00
   -1   13   22     10.75      0.00
   -1   13   25     19.06      0.00
   -1   13   28     12.43      0.00
   -1   13   31     -4.93      0.00
   -1   13   34      1.06      0.00
   -1   13   37     -2.45      0.00
   -1   13   40     11.94      0.00
   -1   13   43      8.27      0.00
   -1   13   46      7.01      0.00
  -13   11   54      9.95      0.00
  -13   11   51     -3.10      0.00
  -13   11   48    -10.03      0.00
  -13   11   45     -8.38      0.00
  -13   11   42     -4.60      0.00
  -13   11   39     -3.43      0.00
  -13   11   36     -5.66      0.00
  -13   11   33     -4.56      0.00
  -13   11   30      3.38      0.00
  -13   11   27     12.35      0.00
  -13   11   24     20.46      0.00
  -13   11   21      4.64      0.00
  -13   11   18    -11.32      0.00
  -13   11   15     -8.88      0.00
  -13   11   12     14.21      0.00
  -13   11    9      4.99      0.00
  -13   11    6     -6.83      0.00
  -13   11    3     -7.00      0.00
   -2   13    0     -0.09      0.00
   -2   13    3     -9.30      0.00
   -2   13    6    -11.83      0.00
   -2   13    9     -2.09      0.00
   -2   13   12      1.88      0.00
   -2   13   15     -2.59      0.00
   -2   13   18      3.62      0.00
   -2   13   21     12.52      0.00
   -2   13   24      7.56      0.00
   -2   13   27     -5.80      0.00
   -2   13   30      2.53      0.00
   -2   13   33      2.78      0.00
   -2   13   36      8.27      0.00
   -2   13   39      5.23      0.00
   -2   13   42      9.88      0.00
   -2   13   45     -0.21      0.00
   -2   13   48      4.45      0.00
   -2   13   51     -2.65      0.00
   -2   13   54     -5.04      0.00
  -13   10   58      1.24      0.00
  -13   10   55     -7.49      0.00
  -13   10   52     -3.85      0.00
  -13   10   49      3.36      0.00
  -13   10   46      1.15      0.00
  -13   10   43     -9.27      0.00
  -13   10   40    -13.20      0.00
  -13   10   37     -6.06      0.00
  -13   10   34      0.25      0.00
  -13   10   31      3.65      0.00
  -13   10   28      7.09      0.00
  -13   10   25      9.73      0.00
  -13   10   22      4.58      0.00
  -13   10   19      3.59      0.00
  -13   10   16      8.89      0.00
  -13   10   13      3.97      0.00
  -13   10   10      0.74      0.00
  -13   10    7      2.67      0.00
  -13   10    4      3.53      0.00
  -13   10    1     -8.45      0.00
   -3   13    2    -14.44      0.00
   -3   13    5    -10.54      0.00
   -3   13    8     -0.34      0.00
   -3   13   11      1.36      0.00
   -3   13   14      1.24      0.00
   -3   13   17      2.36      0.00
   -3   13   20     -3.25      0.00
   -3   13   23    -10.55      0.00
   -3   13   26      1.93      0.00
   -3   13   29     11.70      0.00
   -3   13   32      9.05      0.00
   -3   13   35      1.39      0.00
   -3   13   38      3.83      0.00
   -3   13   41     -1.75      0.00
   -3   13   44      2.76      0.00
   -3   13   47      3.01      0.00
   -3   13   50      2.34      0.00
   -3   13   53      0.24      0.00
   -3   13   56      6.24      0.00
  -13    9   59     -4.52      0.00
  -13    9   56     -3.31      0.00
  -13    9   53      0.80      0.00
  -13    9   50     -2.98      0.00
  -13    9   47    -11.49      0.00
  -13    9   44     -8.75      0.00
  -13    9   41      0.55      0.00
  -13    9   38      0.49      0.00
  -13    9   35     -5.04      0.00
  -13    9   32     -5.53      0.00
  -13    9   29      9.27      0.00
  -13    9   26      9.24      0.00
  -13    9   23      6.80      0.00
  -13    9   20      2.93      0.00
  -13    9   17      6.90      0.00
  -13    9   14      8.09      0.00
  -13    9   11     11.65      0.00
  -13    9    8      5.42      0.00
  -13    9    5     -4.24      0.00
  -13    9    2     -6.21      0.00
   -4   13    1     -7.76      0.00
   -4   13    4     -6.82      0.00
   -4   13    7     -8.77      0.00
   -4   13   10     -6.33      0.00
   -4   13   13     -2.07      0.00
   -4   13   16     -2.03      0.00
   -4   13   19     -7.66      0.00
   -4   13   22     -3.60      0.00
   -4   13   25      4.89      0.00
   -4   13   28      1.33      0.00
   -4   13   31      1.48      0.00
   -4   13   34      6.20      0.00
   -4   13   37      3.00      0.00
   -4   13   40     -1.26      0.00
   -4   13   43      1.96      0.00
   -4   13   46      5.59      0.00
   -4   13   49      5.34      0.00
   -4   13   52      7.51      0.00
   -4   13   55      2.81      0.00
   -4   13   58      1.22      0.00
   -4   13   61     -2.04      0.00
  -13    8   63      1.99      0.00
  -13    8   60     -2.54      0.00
  -13    8   57     -4.08      0.00
  -13    8   54     -7.85      0.00
  -13    8   51     -8.64      0.00
  -13    8   48     -2.83      0.00
  -13    8   45      1.82      0.00
  -13    8   42     -0.22      0.00
  -13    8   39     -5.47      0.00
  -13    8   36     -9.68      0.00
  -13    8   33      3.74      0.00
  -13    8   30      5.41      0.00
  -13    8   27      8.18      0.00
  -13    8   24      4.06      0.00
  -13    8   21     10.81      0.00
  -13    8   18      4.75      0.00
  -13    8   15      8.09      0.00
  -13    8   12      2.59      0.00
  -13    8    9      3.31      0.00
  -13    8    6      7.69      0.00
  -13    8    3      5.28      0.00
   -5   13    0     -7.90      0.00
   -5   13    3    -18.27      0.00
   -5   13    6    -13.09      0.00
   -5   13    9     -4.47      0.00
   -5   13   12      1.74      0.00
   -5   13   15      0.23      0.00
   -5   13   18     -4.04      0.00
   -5   13   21     -7.40      0.00
   -5   13   24    -14.89      0.00
   -5   13   27     -4.03      0.00
   -5   13   30      8.19      0.00
   -5   13   33     10.99      0.00
   -5   13   36      1.34      0.00
   -5   13   39      2.65      0.00
   -5   13   42      3.66      0.00
   -5   13   45      4.58      0.00
   -5   13   48      4.91      0.00
   -5   13   51     -0.42      0.00
   -5   13   54      2.25      0.00
   -5   13   57      4.35      0.00
   -5   13   60      3.31      0.00
   -5   13   63     -3.24      0.00
  -13    7   64     -1.11      0.00
  -13    7   61     -3.63      0.00
  -13    7   58     -7.05      0.00
  -13    7   55     -2.60      0.00
  -13    7   52     -0.85      0.00
  -13    7   49     -4.82      0.00
  -13    7   46     -5.03      0.00
  -13    7   43     -0.59      0.00
  -13    7   40     -2.94      0.00
  -13    7   37      4.49      0.00
  -13    7   34      3.76      0.00
  -13    7   31      5.57      0.00
  -13    7   28      0.34      0.00
  -13    7   25      9.03      0.00
  -13    7   22      2.21      0.00
  -13    7   19      9.44      0.00
  -13    7   16      4.23      0.00
  -13    7   13      2.51      0.00
  -13    7   10      1.11      0.00
  -13    7    7      5.57      0.00
  -13    7    4     -1.18      0.00
  -13    7    1     -6.15      0.00
   -6   13    2     -1.94      0.00
   -6   13    5     -1.73      0.00
   -6   13    8     -3.33      0.00
   -6   13   11     -2.73      0.00
   -6   13   14     -2.08      0.00
   -6   13   17     -5.24      0.00
   -6   13   20    -14.26      0.00
   -6   13   23     -6.08      0.00
   -6   13   26     -1.17      0.00
   -6   13   29      1.65      0.00
   -6   13   32     -2.59      0.00
   -6   13   35      5.46      0.00
   -6   13   38      5.14      0.00
   -6   13   41      5.29      0.00
   -6   13   44      3.33      0.00
   -6   13   47     -5.95      0.00
   -6   13   50     -2.20      0.00
   -6   13   53      7.43      0.00
   -6   13   56     10.52      0.00
   -6   13   59     -2.01      0.00
   -6   13   62     -1.54      0.00
    6    7   62     -4.33      0.00
    6    7   59      1.89      0.00
    6    7   56     -1.75      0.00
    6    7   53    -10.10      0.00
    6    7   50     -6.30      0.00
    6    7   47      6.29      0.00
    6    7   44      5.64      0.00
    6    7   41      6.04      0.00
    6    7   38      1.82      0.00
    6    7   35     -0.16      0.00
    6    7   32     -2.08      0.00
    6    7   29     11.56      0.00
    6    7   26      6.80      0.00
    6    7   23     11.75      0.00
    6    7   20      5.77      0.00
    6    7   17     -0.52      0.00
    6    7   14     -9.79      0.00
    6    7   11     -0.65      0.00
    6    7    8      0.36      0.00
    6    7    5     -0.33      0.00
    6    7    2      3.47      0.00
   -7   13    1      4.39      0.00
   -7   13    4     -0.18      0.00
   -7   13    7     -4.19      0.00
   -7   13   10     -3.25      0.00
   -7   13   13     -0.52      0.00
   -7   13   16     -2.76      0.00
   -7   13   19      0.67      0.00
   -7   13   22     -4.95      0.00
   -7   13   25     -6.44      0.00
   -7   13   28     -7.86      0.00
   -7   13   31     -0.02      0.00
   -7   13   34     -3.90      0.00
   -7   13   37      0.60      0.00
   -7   13   40      6.20      0.00
   -7   13   43     -3.28      0.00
   -7   13   46     -5.12      0.00
   -7   13   49      3.25      0.00
   -7   13   52      7.52      0.00
   -7   13   55     -5.77      0.00
   -7   13   58      0.30      0.00
   -7   13   61      3.98      0.00
   -7   13   64      3.47      0.00
    5    8   63      4.95      0.00
    5    8   60      0.49      0.00
    5    8   57     -7.61      0.00
    5    8   54     -3.90      0.00
    5    8   51      5.45      0.00
    5    8   48      3.09      0.00
    5    8   45      2.40      0.00
    5    8   42      5.21      0.00
    5    8   39      3.58      0.00
    5    8   36      2.53      0.00
    5    8   33     10.23      0.00
    5    8   30      4.66      0.00
    5    8   27      5.13      0.00
    5    8   24      6.14      0.00
    5    8   21      4.74      0.00
    5    8   18     -3.35      0.00
    5    8   15      3.17      0.00
    5    8   12      0.59      0.00
    5    8    9     -6.11      0.00
    5    8    6     -4.89      0.00
    5    8    3      2.60      0.00
   -8   13    0      3.18      0.00
   -8   13    3     -4.55      0.00
   -8   13    6     -6.81      0.00
   -8   13    9     -0.44      0.00
   -8   13   12      4.90      0.00
   -8   13   15      5.62      0.00
   -8   13   18     -0.34      0.00
   -8   13   21     -1.38      0.00
   -8   13   24     -3.80      0.00
   -8   13   27     -6.14      0.00
   -8   13   30    -16.01      0.00
   -8   13   33     -7.61      0.00
   -8   13   36      7.12      0.00
   -8   13   39     -0.69      0.00
   -8   13   42     -9.11      0.00
   -8   13   45     -1.89      0.00
   -8   13   48      3.94      0.00
   -8   13   51     -9.53      0.00
   -8   13   54     -1.48      0.00
   -8   13   57      6.10      0.00
   -8   13   60      6.63      0.00
   -8   13   63      4.73      0.00
    4    9   61     -3.70      0.00
    4    9   58     -3.79      0.00
    4    9   55      0.80      0.00
    4    9   52     -0.26      0.00
    4    9   49     -0.86      0.00
    4    9   46      9.81      0.00
    4    9   43     10.78      0.00
    4    9   40      7.02      0.00
    4    9   37      0.36      0.00
    4    9   34     -3.34      0.00
    4    9   31     -3.39      0.00
    4    9   28      5.29      0.00
    4    9   25      7.86      0.00
    4    9   22      7.06      0.00
    4    9   19      9.26      0.00
    4    9   16      3.64      0.00
    4    9   13     -4.06      0.00
    4    9   10     -3.26      0.00
    4    9    7      0.07      0.00
    4    9    4     -3.57      0.00
    4    9    1     -9.39      0.00
   -9   13    2     -6.42      0.00
   -9   13    5      1.72      0.00
   -9   13    8      5.80      0.00
   -9   13   11     -1.26      0.00
   -9   13   14     -3.20      0.00
   -9   13   17     -0.84      0.00
   -9   13   20     -0.05      0.00
   -9   13   23     -4.07      0.00
   -9   13   26     -9.26      0.00
   -9   13   29     -7.06      0.00
   -9   13   32      2.36      0.00
   -9   13   35     -4.98      0.00
   -9   13   38    -13.76      0.00
   -9   13   41     -5.66      0.00
   -9   13   44      1.87      0.00
   -9   13   47    -12.46      0.00
   -9   13   50     -7.96      0.00
   -9   13   53      5.17      0.00
   -9   13   56      8.92      0.00
   -9   13   59      6.20      0.00
    3   10   56      5.35      0.00
    3   10   53     -4.26      0.00
    3   10   50      0.74      0.00
    3   10   47      6.52      0.00
    3   10   44      9.68      0.00
    3   10   41     -4.25      0.00
    3   10   38     -2.45      0.00
    3   10   35     -3.95      0.00
    3   10   32      1.93      0.00
    3   10   29     -0.86      0.00
    3   10   26      8.44      0.00
    3   10   23      9.78      0.00
    3   10   20      4.28      0.00
    3   10   17     -1.00      0.00
    3   10   14      2.83      0.00
    3   10   11      2.03      0.00
    3   10    8     -2.42      0.00
    3   10    5     -1.83      0.00
    3   10    2      1.38      0.00
  -10   13    1      1.09      0.00
  -10   13    4     -1.66      0.00
  -10   13    7    -10.66      0.00
  -10   13   10     -4.50      0.00
  -10   13   13     -1.00      0.00
  -10   13   16     -1.88      0.00
  -10   13   19     -7.50      0.00
  -10   13   22      0.36      0.00
  -10   13   25     -5.94      0.00
  -10   13   28     -6.40      0.00
  -10   13   31     -6.93      0.00
  -10   13   34     -5.73      0.00
  -10   13   37     -4.97      0.00
  -10   13   40     -2.26      0.00
  -10   13   43    -13.65      0.00
  -10   13   46    -13.24      0.00
  -10   13   49      2.51      0.00
  -10   13   52      8.75      0.00
  -10   13   55      3.23      0.00
  -10   13   58      1.35      0.00
    2   11   54     -6.75      0.00
    2   11   51     -2.03      0.00
    2   11   48      6.71      0.00
    2   11   45     -7.73      0.00
    2   11   42      1.00      0.00
    2   11   39      2.41      0.00
    2   11   36      4.47      0.00
    2   11   33     -9.12      0.00
    2   11   30      4.37      0.00
    2   11   27      6.10      0.00
    2   11   24      5.04      0.00
    2   11   21     -0.31      0.00
    2   11   18      1.59      0.00
    2   11   15     -0.20      0.00
    2   11   12      4.44      0.00
    2   11    9     12.02      0.00
    2   11    6      4.20      0.00
    2   11    3     -7.06      0.00
  -11   13    0     -5.45      0.00
  -11   13    3     -5.03      0.00
  -11   13    6      3.50      0.00
  -11   13    9      3.86      0.00
  -11   13   12     -1.85      0.00
  -11   13   15    -16.59      0.00
  -11   13   18     -1.11      0.00
  -11   13   21     -8.35      0.00
  -11   13   24    -13.56      0.00
  -11   13   27     -9.88      0.00
  -11   13   30      5.87      0.00
  -11   13   33     -0.83      0.00
  -11   13   36     -2.15      0.00
  -11   13   39     -4.53      0.00
  -11   13   42     -7.72      0.00
  -11   13   45     -4.61      0.00
  -11   13   48     -3.39      0.00
  -11   13   51     -5.86      0.00
  -11   13   54     -2.33      0.00
    1   12   46     -1.82      0.00
    1   12   43      5.64      0.00
    1   12   40     11.62      0.00
    1   12   37     -7.71      0.00
    1   12   34      0.05      0.00
    1   12   31     -1.46      0.00
    1   12   28      7.77      0.00
    1   12   25      8.29      0.00
    1   12   22      7.54      0.00
    1   12   19     -1.52      0.00
    1   12   16      3.57      0.00
    1   12   13      7.81      0.00
    1   12   10     -8.72      0.00
    1   12    7    -13.61      0.00
    1   12    4      5.45      0.00
    1   12    1     12.28      0.00
  -12   13    2      5.18      0.00
  -12   13    5     -0.93      0.00
  -12   13    8     -1.02      0.00
  -12   13   11    -20.12      0.00
  -12   13   14     -8.19      0.00
  -12   13   17     -6.52      0.00
  -12   13   20     -4.61      0.00
  -12   13   23     -7.05      0.00
  -12   13   26     11.70      0.00
  -12   13   29      0.97      0.00
  -12   13   32     -5.66      0.00
  -12   13   35     -4.36      0.00
  -12   13   38     -1.16      0.00
  -12   13   41     -2.47      0.00
  -12   13   44     -3.30      0.00
  -12   13   47     -4.56      0.00
    0   13   38      3.55      0.00
    0   13   35     -2.30      0.00
    0   13   32      8.91      0.00
    0   13   29     11.97      0.00
    0   13   26     12.54      0.00
    0   13   23     -0.82      0.00
    0   13   20      1.81      0.00
    0   13   17      2.03      0.00
    0   13   14    -12.07      0.00
    0   13   11     -9.48      0.00
    0   13    8     14.21      0.00
    0   13    5     15.61      0.00
    0   13    2     -8.09      0.00
  -13   13    1    -14.42      0.00
  -13   13    4      0.83      0.00
  -13   13    7    -10.38      0.00
  -13   13   10     -9.38      0.00
  -13   13   13     -3.00      0.00
  -13   13   16      7.61      0.00
  -13   13   19     -5.22      0.00
  -13   13   22      6.11      0.00
  -13   13   25      4.30      0.00
  -13   13   28      0.89      0.00
  -13   13   31     -5.60      0.00
  -13   13   34     -1.08      0.00
  -13   13   37      0.95      0.00
  -14   13   24     15.82      0.00
  -14   13   21      4.85      0.00
  -14   13   18     -7.95      0.00
  -14   13   15     -9.61      0.00
  -14   13   12      9.43      0.00
  -14   13    9      0.57      0.00
  -14   13    6     -2.06      0.00
  -14   13    3      1.12      0.00
   -1   14    0     -0.16      0.00
   -1   14    3    -20.32      0.00
   -1   14    6    -15.48      0.00
   -1   14    9      5.68      0.00
   -1   14   12      9.82      0.00
   -1   14   15     -1.41      0.00
   -1   14   18     -0.39      0.00
   -1   14   21      5.26      0.00
   -1   14   24      3.94      0.00
  -14   12   37    -10.23      0.00
  -14   12   34     -2.85      0.00
  -14   12   31      7.57      0.00
  -14   12   28     13.81      0.00
  -14   12   25      3.32      0.00
  -14   12   22     -6.30      0.00
  -14   12   19      2.03      0.00
  -14   12   16     21.10      0.00
  -14   12   13      6.98      0.00
  -14   12   10     -6.92      0.00
  -14   12    7     -3.64      0.00
  -14   12    4      3.51      0.00
  -14   12    1    -12.92      0.00
   -2   14    2    -15.31      0.00
   -2   14    5     -1.34      0.00
   -2   14    8      6.36      0.00
   -2   14   11     -2.07      0.00
   -2   14   14     -2.49      0.00
   -2   14   17      2.95      0.00
   -2   14   20      3.11      0.00
   -2   14   23     -2.97      0.00
   -2   14   26      5.91      0.00
   -2   14   29      6.98      0.00
   -2   14   32      7.47      0.00
   -2   14   35      1.71      0.00
  -14   11   44    -14.06      0.00
  -14   11   41     -9.67      0.00
  -14   11   38     -3.60      0.00
  -14   11   35     -1.34      0.00
  -14   11   32     -1.63      0.00
  -14   11   29      0.34      0.00
  -14   11   26      1.44      0.00
  -14   11   23     10.63      0.00
  -14   11   20     17.10      0.00
  -14   11   17      4.74      0.00
  -14   11   14     -6.81      0.00
  -14   11   11      4.38      0.00
  -14   11    8     16.66      0.00
  -14   11    5      3.47      0.00
  -14   11    2    -10.09      0.00
   -3   14    1    -11.06      0.00
   -3   14    4     -5.84      0.00
   -3   14    7     -7.30      0.00
   -3   14   10     -1.44      0.00
   -3   14   13      5.94      0.00
   -3   14   16      5.67      0.00
   -3   14   19     -6.69      0.00
   -3   14   22     -2.04      0.00
   -3   14   25      5.70      0.00
   -3   14   28      8.21      0.00
   -3   14   31      0.15      0.00
   -3   14   34      2.90      0.00
   -3   14   37     -1.68      0.00
   -3   14   40      2.29      0.00
   -3   14   43      4.60      0.00
  -14   10   48     -6.36      0.00
  -14   10   45      0.28      0.00
  -14   10   42     -1.67      0.00
  -14   10   39     -8.96      0.00
  -14   10   36    -10.44      0.00
  -14   10   33      1.22      0.00
  -14   10   30      3.25      0.00
  -14   10   27      4.22      0.00
  -14   10   24      3.25      0.00
  -14   10   21      6.89      0.00
  -14   10   18      3.59      0.00
  -14   10   15     12.77      0.00
  -14   10   12     15.12      0.00
  -14   10    9      8.04      0.00
  -14   10    6     -0.24      0.00
  -14   10    3     -1.14      0.00
   -4   14    0     -5.87      0.00
   -4   14    3    -15.68      0.00
   -4   14    6    -12.33      0.00
   -4   14    9      0.12      0.00
   -4   14   12      9.43      0.00
   -4   14   15     -0.58      0.00
   -4   14   18     -3.31      0.00
   -4   14   21     -0.69      0.00
   -4   14   24      0.02      0.00
   -4   14   27     -3.92      0.00
   -4   14   30      2.58      0.00
   -4   14   33      2.65      0.00
   -4   14   36      0.04      0.00
   -4   14   39      2.43      0.00
   -4   14   42      5.42      0.00
   -4   14   45      3.82      0.00
   -4   14   48      3.40      0.00
  -14    9   49      0.31      0.00
  -14    9   46     -4.02      0.00
  -14    9   43     -8.40      0.00
  -14    9   40     -7.94      0.00
  -14    9   37      3.59      0.00
  -14    9   34      3.51      0.00
  -14    9   31      0.65      0.00
  -14    9   28     -3.96      0.00
  -14    9   25      8.05      0.00
  -14    9   22      6.00      0.00
  -14    9   19     11.65      0.00
  -14    9   16      8.10      0.00
  -14    9   13     10.00      0.00
  -14    9   10      7.43      0.00
  -14    9    7     10.57      0.00
  -14    9    4     -0.43      0.00
  -14    9    1    -15.12      0.00
   -5   14    2    -18.16      0.00
   -5   14    5     -7.59      0.00
   -5   14    8      5.51      0.00
   -5   14   11      2.95      0.00
   -5   14   14     -1.25      0.00
   -5   14   17     -5.36      0.00
   -5   14   20     -8.37      0.00
   -5   14   23     -8.10      0.00
   -5   14   26      1.35      0.00
   -5   14   29      5.94      0.00
   -5   14   32      1.11      0.00
   -5   14   35      3.84      0.00
   -5   14   38      4.07      0.00
   -5   14   41      1.85      0.00
   -5   14   44     -1.12      0.00
   -5   14   47      1.10      0.00
   -5   14   50      2.93      0.00
  -14    8   53     -7.02      0.00
  -14    8   50     -9.84      0.00
  -14    8   47     -4.18      0.00
  -14    8   44     -2.22      0.00
  -14    8   41      3.90      0.00
  -14    8   38      4.87      0.00
  -14    8   35      3.64      0.00
  -14    8   32     -5.85      0.00
  -14    8   29      4.22      0.00
  -14    8   26      3.61      0.00
  -14    8   23     12.87      0.00
  -14    8   20      9.81      0.00
  -14    8   17     11.43      0.00
  -14    8   14     -0.02      0.00
  -14    8   11      3.43      0.00
  -14    8    8      0.37      0.00
  -14    8    5     -0.20      0.00
  -14    8    2     -3.22      0.00
   -6   14    1     -4.00      0.00
   -6   14    4     -3.84      0.00
   -6   14    7     -5.02      0.00
   -6   14   10     -5.34      0.00
   -6   14   13     -5.13      0.00
   -6   14   16     -3.72      0.00
   -6   14   19     -0.82      0.00
   -6   14   22     -0.99      0.00
   -6   14   25     -3.65      0.00
   -6   14   28     -7.65      0.00
   -6   14   31      2.22      0.00
   -6   14   34      4.17      0.00
   -6   14   37      3.76      0.00
   -6   14   40      0.82      0.00
   -6   14   43      2.12      0.00
   -6   14   46      2.54      0.00
   -6   14   49      8.86      0.00
   -6   14   52      7.24      0.00
    7    7   54     -9.45      0.00
    7    7   51      1.25      0.00
    7    7   48     -0.12      0.00
    7    7   45     -2.63      0.00
    7    7   42      0.74      0.00
    7    7   39      6.45      0.00
    7    7   36     -0.36      0.00
    7    7   33      7.67      0.00
    7    7   30      5.70      0.00
    7    7   27     11.54      0.00
    7    7   24      8.10      0.00
    7    7   21      9.98      0.00
    7    7   18     -5.35      0.00
    7    7   15     -1.58      0.00
    7    7   12     -0.58      0.00
    7    7    9      4.75      0.00
    7    7    6      1.30      0.00
    7    7    3     -0.32      0.00
   -7   14    0     -4.56      0.00
   -7   14    3     -4.39      0.00
   -7   14    6     -5.26      0.00
   -7   14    9     -2.84      0.00
   -7   14   12      1.54      0.00
   -7   14   15      6.77      0.00
   -7   14   18     -0.01      0.00
   -7   14   21     -7.07      0.00
   -7   14   24    -11.71      0.00
   -7   14   27     -3.79      0.00
   -7   14   30     -6.49      0.00
   -7   14   33     -1.95      0.00
   -7   14   36      6.06      0.00
   -7   14   39      8.49      0.00
   -7   14   42      1.32      0.00
   -7   14   45      3.40      0.00
   -7   14   48      2.66      0.00
   -7   14   51     -8.56      0.00
   -7   14   54     -3.73      0.00
    6    8   52     -4.52      0.00
    6    8   49    -10.01      0.00
    6    8   46      0.03      0.00
    6    8   43     13.04      0.00
    6    8   40      8.95      0.00
    6    8   37      8.41      0.00
    6    8   34      1.29      0.00
    6    8   31      3.19      0.00
    6    8   28      5.68      0.00
    6    8   25     12.51      0.00
    6    8   22      1.80      0.00
    6    8   19      5.25      0.00
    6    8   16      2.78      0.00
    6    8   13     -0.03      0.00
    6    8   10     -7.77      0.00
    6    8    7     -4.45      0.00
    6    8    4     -4.47      0.00
    6    8    1     -1.83      0.00
   -8   14    2     -2.95      0.00
   -8   14    5      1.32      0.00
   -8   14    8      3.88      0.00
   -8   14   11      5.43      0.00
   -8   14   14     -1.55      0.00
   -8   14   17     -1.31      0.00
   -8   14   20     -2.55      0.00
   -8   14   23     -2.60      0.00
   -8   14   26    -14.40      0.00
   -8   14   29     -9.69      0.00
   -8   14   32      4.89      0.00
   -8   14   35      6.38      0.00
   -8   14   38     -6.19      0.00
   -8   14   41     -2.69      0.00
   -8   14   44      4.21      0.00
   -8   14   47     -7.91      0.00
   -8   14   50     -5.54      0.00
   -8   14   53      6.38      0.00
    5    9   47     15.62      0.00
    5    9   44     10.44      0.00
    5    9   41      0.99      0.00
    5    9   38     -4.34      0.00
    5    9   35     -0.63      0.00
    5    9   32      6.36      0.00
    5    9   29     10.57      0.00
    5    9   26      5.73      0.00
    5    9   23     10.45      0.00
    5    9   20      8.11      0.00
    5    9   17     -0.60      0.00
    5    9   14     -7.84      0.00
    5    9   11     -2.55      0.00
    5    9    8     -2.63      0.00
    5    9    5     -2.42      0.00
    5    9    2     -4.22      0.00
   -9   14    1     -0.45      0.00
   -9   14    4      0.37      0.00
   -9   14    7     -1.92      0.00
   -9   14   10     -6.67      0.00
   -9   14   13      0.63      0.00
   -9   14   16      4.48      0.00
   -9   14   19      2.55      0.00
   -9   14   22     -7.39      0.00
   -9   14   25     -6.27      0.00
   -9   14   28      0.92      0.00
   -9   14   31     -3.90      0.00
   -9   14   34    -16.13      0.00
   -9   14   37     -7.97      0.00
   -9   14   40      6.61      0.00
   -9   14   43     -5.53      0.00
   -9   14   46     -8.33      0.00
   -9   14   49      4.59      0.00
    4   10   45     -2.98      0.00
    4   10   42     -0.85      0.00
    4   10   39      3.70      0.00
    4   10   36      5.37      0.00
    4   10   33     -1.37      0.00
    4   10   30      1.51      0.00
    4   10   27      9.10      0.00
    4   10   24      7.88      0.00
    4   10   21     -2.32      0.00
    4   10   18     -2.13      0.00
    4   10   15      5.04      0.00
    4   10   12      5.51      0.00
    4   10    9      4.51      0.00
    4   10    6     -1.25      0.00
    4   10    3     -6.29      0.00
  -10   14    0     -7.44      0.00
  -10   14    3     -5.80      0.00
  -10   14    6     -5.53      0.00
  -10   14    9     -0.11      0.00
  -10   14   12      1.96      0.00
  -10   14   15     -2.02      0.00
  -10   14   18     -3.14      0.00
  -10   14   21     -3.70      0.00
  -10   14   24     -1.79      0.00
  -10   14   27     -5.14      0.00
  -10   14   30    -11.01      0.00
  -10   14   33    -10.60      0.00
  -10   14   36     -0.30      0.00
  -10   14   39     -7.42      0.00
  -10   14   42     -9.42      0.00
  -10   14   45      3.86      0.00
  -10   14   48      9.53      0.00
    3   11   43      7.30      0.00
    3   11   40      8.24      0.00
    3   11   37     -7.82      0.00
    3   11   34     -2.66      0.00
    3   11   31      2.88      0.00
    3   11   28      3.44      0.00
    3   11   25     -3.53      0.00
    3   11   22      3.11      0.00
    3   11   19      5.82      0.00
    3   11   16      4.95      0.00
    3   11   13      6.89      0.00
    3   11   10      2.39      0.00
    3   11    7     -6.19      0.00
    3   11    4     -3.98      0.00
    3   11    1      2.83      0.00
  -11   14    2      1.50      0.00
  -11   14    5     -2.16      0.00
  -11   14    8     -2.18      0.00
  -11   14   11     -8.20      0.00
  -11   14   14     -4.19      0.00
  -11   14   17     -6.83      0.00
  -11   14   20     -5.60      0.00
  -11   14   23     -4.15      0.00
  -11   14   26     -0.08      0.00
  -11   14   29    -11.75      0.00
  -11   14   32     -8.41      0.00
  -11   14   35     -3.06      0.00
  -11   14   38     -0.55      0.00
  -11   14   41      0.64      0.00
  -11   14   44     -0.67      0.00
    2   12   35     -1.55      0.00
    2   12   32      2.78      0.00
    2   12   29      0.26      0.00
    2   12   26      8.13      0.00
    2   12   23      3.54      0.00
    2   12   20      0.25      0.00
    2   12   17      0.36      0.00
    2   12   14     -5.10      0.00
    2   12   11     -7.62      0.00
    2   12    8      7.28      0.00
    2   12    5     17.99      0.00
    2   12    2      4.63      0.00
  -12   14    1     -9.00      0.00
  -12   14    4     -4.61      0.00
  -12   14    7     -6.94      0.00
  -12   14   10     -1.57      0.00
  -12   14   13     -4.20      0.00
  -12   14   16     -2.41      0.00
  -12   14   19     -5.51      0.00
  -12   14   22      3.33      0.00
  -12   14   25    -12.47      0.00
  -12   14   28    -13.92      0.00
  -12   14   31     -2.23      0.00
  -12   14   34      8.08      0.00
  -12   14   37      1.75      0.00
    1   13   24      3.68      0.00
    1   13   21      3.08      0.00
    1   13   18     -6.90      0.00
    1   13   15     -9.62      0.00
    1   13   12      8.56      0.00
    1   13    9     17.41      0.00
    1   13    6     -2.71      0.00
    1   13    3    -15.42      0.00
  -13   14    0     -1.77      0.00
  -13   14    3      1.05      0.00
  -13   14    6      1.64      0.00
  -13   14    9     -1.33      0.00
  -13   14   12      2.35      0.00
  -13   14   15     -8.91      0.00
  -13   14   18     -0.38      0.00
  -13   14   21     -6.40      0.00
  -13   14   24     -5.87      0.00
  -15   12   18     -7.79      0.00
  -15   12   15      4.29      0.00
  -15   12   12     18.52      0.00
  -15   12    9     12.84      0.00
  -15   12    6      3.56      0.00
  -15   12    3     -0.04      0.00
   -3   15    0     -8.18      0.00
   -3   15    3    -17.52      0.00
   -3   15    6     -6.81      0.00
   -3   15    9      6.92      0.00
   -3   15   12     10.03      0.00
  -15   11   25     -0.52      0.00
  -15   11   22     -1.02      0.00
  -15   11   19     10.47      0.00
  -15   11   16     15.08      0.00
  -15   11   13     11.53      0.00
  -15   11   10      4.37      0.00
  -15   11    7     10.23      0.00
  -15   11    4      4.44      0.00
  -15   11    1    -10.32      0.00
   -4   15    2    -12.54      0.00
   -4   15    5     -2.03      0.00
   -4   15    8      4.67      0.00
   -4   15   11     -2.09      0.00
   -4   15   14      0.70      0.00
   -4   15   17      2.78      0.00
   -4   15   20      4.29      0.00
   -4   15   23     -3.33      0.00
  -15   10   26      2.00      0.00
  -15   10   23      9.30      0.00
  -15   10   20      6.33      0.00
  -15   10   17      8.50      0.00
  -15   10   14      4.87      0.00
  -15   10   11     16.16      0.00
  -15   10    8     11.26      0.00
  -15   10    5     -2.23      0.00
  -15   10    2    -12.03      0.00
   -5   15    1     -5.57      0.00
   -5   15    4     -1.05      0.00
   -5   15    7     -6.81      0.00
   -5   15   10     -2.52      0.00
   -5   15   13      3.80      0.00
   -5   15   16      6.01      0.00
   -5   15   19     -4.06      0.00
   -5   15   22     -1.71      0.00
   -5   15   25     -0.68      0.00
   -5   15   28     -0.76      0.00
   -5   15   31      0.09      0.00
   -5   15   34      1.87      0.00
  -15    9   30      3.08      0.00
  -15    9   27     10.37      0.00
  -15    9   24      4.84      0.00
  -15    9   21      7.91      0.00
  -15    9   18      0.11      0.00
  -15    9   15      9.14      0.00
  -15    9   12      7.71      0.00
  -15    9    9      5.64      0.00
  -15    9    6     -3.63      0.00
  -15    9    3      0.35      0.00
   -6   15    0     -1.86      0.00
   -6   15    3    -10.97      0.00
   -6   15    6    -13.94      0.00
   -6   15    9     -4.55      0.00
   -6   15   12      6.98      0.00
   -6   15   15      5.00      0.00
   -6   15   18      2.21      0.00
   -6   15   21     -3.32      0.00
   -6   15   24     -6.44      0.00
   -6   15   27     -3.26      0.00
   -6   15   30      0.09      0.00
   -6   15   33     -0.25      0.00
   -6   15   36     -1.52      0.00
  -15    8   31     10.74      0.00
  -15    8   28      3.08      0.00
  -15    8   25      6.88      0.00
  -15    8   22     -1.00      0.00
  -15    8   19      6.20      0.00
  -15    8   16      5.34      0.00
  -15    8   13      6.53      0.00
  -15    8   10     -5.21      0.00
  -15    8    7     -1.24      0.00
  -15    8    4      0.38      0.00
  -15    8    1     -2.11      0.00
   -7   15    2    -12.10      0.00
   -7   15    5     -8.54      0.00
   -7   15    8      2.87      0.00
   -7   15   11      7.55      0.00
   -7   15   14      1.51      0.00
   -7   15   17     -4.56      0.00
   -7   15   20     -6.54      0.00
   -7   15   23     -2.83      0.00
   -7   15   26     -4.10      0.00
   -7   15   29     -3.25      0.00
   -7   15   32      1.05      0.00
   -7   15   35      8.81      0.00
   -7   15   38      3.27      0.00
    7    8   32      3.02      0.00
    7    8   29     11.59      0.00
    7    8   26      6.11      0.00
    7    8   23      9.16      0.00
    7    8   20      4.47      0.00
    7    8   17      1.89      0.00
    7    8   14    -11.08      0.00
    7    8   11     -6.09      0.00
    7    8    8     -0.92      0.00
    7    8    5      4.13      0.00
    7    8    2     -3.96      0.00
   -8   15    1     -3.17      0.00
   -8   15    4      0.88      0.00
   -8   15    7      2.49      0.00
   -8   15   10     -6.87      0.00
   -8   15   13     -4.68      0.00
   -8   15   16      1.65      0.00
   -8   15   19      6.69      0.00
   -8   15   22     -2.91      0.00
   -8   15   25     -6.79      0.00
   -8   15   28     -3.61      0.00
   -8   15   31      1.45      0.00
   -8   15   34     -5.23      0.00
   -8   15   37     -1.38      0.00
    6    9   33     10.19      0.00
    6    9   27      9.83      0.00
    6    9   24      6.96      0.00
    6    9   21      0.86      0.00
    6    9   18     -9.33      0.00
    6    9   15     -2.66      0.00
    6    9   12      1.31      0.00
    6    9    9      4.49      0.00
    6    9    6     -2.33      0.00
    6    9    3     -3.09      0.00
   -9   15    0     -4.42      0.00
   -9   15    3     -4.10      0.00
   -9   15    6    -11.44      0.00
   -9   15    9     -2.26      0.00
   -9   15   12      7.20      0.00
   -9   15   15     10.54      0.00
   -9   15   18     -0.85      0.00
   -9   15   21     -3.93      0.00
   -9   15   24     -4.32      0.00
   -9   15   27     -5.26      0.00
   -9   15   30    -12.82      0.00
   -9   15   33     -5.43      0.00
   -9   15   36      8.36      0.00
    5   10   31      7.47      0.00
    5   10   28      8.12      0.00
    5   10   25     -0.85      0.00
    5   10   22     -4.41      0.00
    5   10   19      5.30      0.00
    5   10   16      7.47      0.00
    5   10   13      5.25      0.00
    5   10   10     -1.00      0.00
    5   10    7     -4.66      0.00
    5   10    4     -6.78      0.00
    5   10    1     -4.27      0.00
  -10   15    2     -9.80      0.00
  -10   15    5     -4.24      0.00
  -10   15    8      2.17      0.00
  -10   15   11      3.47      0.00
  -10   15   14     -3.53      0.00
  -10   15   17     -1.23      0.00
  -10   15   20     -0.11      0.00
  -10   15   23     -2.26      0.00
  -10   15   26     -9.04      0.00
  -10   15   29     -8.15      0.00
  -10   15   32      1.22      0.00
    4   11   29     -3.19      0.00
    4   11   26      1.68      0.00
    4   11   23      8.45      0.00
    4   11   20      3.57      0.00
    4   11   17     -1.74      0.00
    4   11   14      0.00      0.00
    4   11   11      1.54      0.00
    4   11    8      3.37      0.00
    4   11    5      5.34      0.00
    4   11    2     -6.03      0.00
  -11   15    1    -12.11      0.00
  -11   15    4     -5.60      0.00
  -11   15    7      0.02      0.00
  -11   15   10     -3.01      0.00
  -11   15   13     -3.05      0.00
  -11   15   16     -1.21      0.00
  -11   15   19     -1.57      0.00
  -11   15   22     -3.15      0.00
  -11   15   25     -8.85      0.00
  -11   15   28     -4.34      0.00
    3   12   18     -2.81      0.00
    3   12   15     -0.38      0.00
    3   12   12      6.65      0.00
    3   12    9     12.76      0.00
    3   12    6      0.61      0.00
    3   12    3    -12.40      0.00
  -12   15    0     -5.65      0.00
  -12   15    3      1.96      0.00
  -12   15    6     -0.07      0.00
  -12   15    9     -4.11      0.00
  -12   15   12     -1.17      0.00
  -12   15   15     -2.75      0.00
  -12   15   18     -1.49      0.00
  -16    9    8      4.63      0.00
  -16    9    5      1.17      0.00
  -16    9    2    -11.16      0.00
   -7   16    1     -5.19      0.00
   -7   16    4      1.82      0.00
   -7   16    7     -1.89      0.00
   -7   16   10     -6.58      0.00
    8    8   12      1.92      0.00
    8    8    9      3.16      0.00
    8    8    6     -6.58      0.00
    8    8    3     -1.04      0.00
   -8   16    0      4.17      0.00
   -8   16    3     -1.07      0.00
   -8   16    6    -15.16      0.00
   -8   16    9     -8.55      0.00
   -8   16   12      5.75      0.00
    7    9   10     -5.52      0.00
    7    9    7     -0.36      0.00
    7    9    4      2.47      0.00
    7    9    1     -0.06      0.00
   -9   16    2    -12.66      0.00
   -9   16    5     -5.20      0.00
   -9   16    8      6.83      0.00
   -1    1    1     84.34      0.00
    0    1    2    -29.07      0.00
    0    0    3    147.73      0.00
   -1    1    4    244.10      0.00
    0    1    5     -1.07      0.00
    0    0    6    -60.06      0.00
   -1    1    7     73.50      0.00
    0    1    8    115.01      0.00
    0    0    9    -84.33      0.00
   -1    1   10    -27.60      0.00
    0    0   12     22.51      0.00
  -15   10   29     -0.17      0.00
    6    9   30      5.59      0.00
  -15    9   33      0.17      0.00
  -15    8   34      5.90      0.00
    7    8   35      5.11      0.00
    0    1  107      0.51      0.00
    0    0    0      0.00      0.00
# SQUEEZE RESULTS
# Note: Data are Listed for all Voids in the P1 Unit Cell
# i.e. Centre of Gravity, Solvent Accessible Volume,
# Recovered number of Electrons in the Void and
# Details about the Squeezed Material
loop_
  _platon_squeeze_void_nr
  _platon_squeeze_void_average_x
  _platon_squeeze_void_average_y
  _platon_squeeze_void_average_z
  _platon_squeeze_void_volume
  _platon_squeeze_void_count_electrons
  _platon_squeeze_void_content
   1  0.000  0.000  0.000       194        50 ' '
   2  0.000  1.000  0.262       155        37 ' '
   3  0.000  0.000  0.500        38         7 ' '
   4  0.000  0.000  0.738       155        37 ' '
   5  0.333  0.667  0.929       154        36 ' '
   6  0.333  0.667  0.404       156        37 ' '
   7  0.333  0.667  0.667       191        49 ' '
   8  0.333  0.667  0.167        37         8 ' '
   9  0.667  0.333  0.596       156        37 ' '
  10  0.667  0.333  0.071       154        36 ' '
  11  0.667  0.333  0.333       191        49 ' '
  12  0.666  0.333  0.833        37         8 ' '
_platon_squeeze_details
(replace by semicolon in column 1 when used as .sqf)
TITL WC2 in R-3
CELL   12.0896   12.0896   81.7550     90.00     90.00    120.00
SPGR R-3
# Solvent Accessible Volume =    1624.8
# Electrons Found in S.A.V. =     386.6
# Note: Atoms in Void as Cxxx and Qxxx all others
Q101 0.816 0.359 0.985 !       3.65 eA-3
Q102 0.111 0.141 0.121 !       3.27 eA-3
Q103 0.129 0.109 0.398 !       3.06 eA-3
Q104 0.410 0.706 0.527 !       2.95 eA-3
C105 0.626 0.278 0.324 !       2.77 eA-3
Q106 0.050 0.970 0.617 !       2.74 eA-3
C107 0.718 0.340 0.325 !       2.71 eA-3
Q108 0.376 0.749 0.516 !       2.70 eA-3
C109 0.661 0.325 0.574 !       2.65 eA-3
Q110 0.418 0.706 0.817 !       2.49 eA-3
Q111 0.309 0.614 0.559 !       2.46 eA-3
C112 0.669 0.328 0.419 !       2.45 eA-3
Q113 0.361 0.638 0.269 !       2.38 eA-3
Q114 0.934 0.927 0.628 !       2.37 eA-3
C115 0.671 0.331 0.606 !       2.33 eA-3
Q116 0.675 0.269 0.702 !       2.32 eA-3
Q117 0.922 0.921 0.375 !       2.27 eA-3
Q118 0.202 0.012 0.586 !       2.23 eA-3
Q119 0.189 0.673 0.297 !       2.16 eA-3
Q120 0.640 0.264 0.434 !       2.15 eA-3
Q121 0.625 0.358 0.434 !       2.14 eA-3
Q122 0.985 0.850 0.630 !       2.13 eA-3
C123 1.000 0.998 0.230 !       2.12 eA-3
Q124 0.641 0.279 0.395 !       2.11 eA-3
C125 0.296 0.625 0.617 !       2.11 eA-3
Q126 0.050 0.082 0.633 !       2.11 eA-3
Q127 0.859 0.813 0.348 !       2.09 eA-3
C128 0.300 0.717 0.397 !       2.08 eA-3
Q129 0.969 0.923 0.895 !       2.07 eA-3
Q130 0.638 0.452 0.446 !       2.05 eA-3
Q131 0.077 0.042 0.633 !       2.00 eA-3
Q132 0.547 0.725 0.789 !       2.00 eA-3
C133 0.971 0.936 0.719 !       1.97 eA-3
Q134 0.033 0.173 0.156 !       1.97 eA-3
Q135 0.784 0.347 0.922 !       1.95 eA-3
Q136 0.628 0.382 0.698 !       1.94 eA-3
Q137 0.402 0.758 0.522 !       1.93 eA-3
Q138 0.387 0.578 0.547 !       1.92 eA-3
C139 1.001 0.998 0.001 !       1.92 eA-3
Q140 0.936 0.467 0.727 !       1.90 eA-3
C141 0.033 0.981 0.293 !       1.87 eA-3
Q142 0.534 0.095 0.199 !       1.86 eA-3
Q143 0.734 0.845 0.946 !       1.85 eA-3
Q144 0.155 0.892 0.945 !       1.84 eA-3
Q145 0.906 1.002 0.543 !       1.84 eA-3
C146 0.296 0.704 0.414 !       1.83 eA-3
Q147 0.173 0.621 0.809 !       1.83 eA-3
Q148 0.078 0.547 0.001 !       1.79 eA-3
Q149 0.347 0.749 0.796 !       1.78 eA-3
Q150 0.902 0.873 0.661 !       1.78 eA-3
Q151 0.925 0.075 0.616 !       1.77 eA-3
Q152 0.768 0.876 0.444 !       1.73 eA-3
Q153 0.391 0.621 0.539 !       1.73 eA-3
Q154 0.873 0.827 0.132 !       1.72 eA-3
Q155 0.111 0.643 0.793 !       1.71 eA-3
Q156 0.687 0.998 0.844 !       1.71 eA-3
Q157 0.878 1.001 0.323 !       1.70 eA-3
Q158 0.628 0.171 0.430 !       1.69 eA-3
Q159 0.233 0.124 0.556 !       1.69 eA-3
C160 0.252 0.644 0.423 !       1.68 eA-3
Q161 0.090 0.531 0.231 !       1.68 eA-3
Q162 0.763 0.268 0.981 !       1.68 eA-3
Q163 0.294 0.560 0.262 !       1.68 eA-3
Q164 0.032 0.965 0.664 !       1.67 eA-3
Q165 0.185 0.889 0.341 !       1.67 eA-3
Q166 0.548 0.364 0.487 !       1.67 eA-3
Q167 0.419 0.651 0.212 !       1.66 eA-3
Q168 0.455 0.858 0.766 !       1.66 eA-3
Q169 0.378 0.760 0.538 !       1.66 eA-3
Q170 0.526 0.078 0.212 !       1.64 eA-3
Q171 0.951 0.987 0.328 !       1.63 eA-3
Q172 0.999 1.003 0.516 !       1.63 eA-3
Q173 0.279 0.641 0.997 !       1.62 eA-3
Q174 0.580 0.218 0.723 !       1.62 eA-3
Q175 0.171 0.484 0.085 !       1.62 eA-3
Q176 0.581 0.516 0.477 !       1.61 eA-3
Q177 0.125 0.021 0.641 !       1.61 eA-3
Q178 0.814 0.339 0.649 !       1.61 eA-3
Q179 0.983 0.697 0.399 !       1.60 eA-3
Q180 0.860 0.047 0.171 !       1.60 eA-3
Q181 0.971 0.488 0.488 !       1.60 eA-3
Q182 0.566 0.233 0.789 !       1.60 eA-3
Q183 0.592 0.639 0.051 !       1.59 eA-3
Q184 0.862 0.489 0.503 !       1.59 eA-3
Q185 0.420 0.442 0.973 !       1.59 eA-3
C186 0.379 0.574 0.644 !       1.59 eA-3
Q187 0.982 0.116 0.640 !       1.58 eA-3
Q188 0.671 0.066 0.594 !       1.58 eA-3
Q189 0.376 0.216 0.164 !       1.57 eA-3
Q190 0.376 0.188 0.774 !       1.57 eA-3
Q191 0.891 0.969 0.915 !       1.57 eA-3
Q192 0.548 0.324 0.883 !       1.57 eA-3
C193 0.517 0.313 0.081 !       1.56 eA-3
Q194 0.110 0.515 0.304 !       1.56 eA-3
Q195 0.829 0.298 0.722 !       1.55 eA-3
Q196 0.562 0.990 0.972 !       1.55 eA-3
Q197 0.811 0.966 0.582 !       1.55 eA-3
Q198 0.956 0.160 0.672 !       1.55 eA-3
Q199 0.449 0.718 0.150 !       1.55 eA-3
(replace by semicolon in column 1 when used as .sqf)
;
_shelx_fab_checksum              77966
loop_
_space_group_symop_operation_xyz
'x, y, z'
'-y, x-y, z'
'-x+y, -x, z'
'x+2/3, y+1/3, z+1/3'
'-y+2/3, x-y+1/3, z+1/3'
'-x+y+2/3, -x+1/3, z+1/3'
'x+1/3, y+2/3, z+2/3'
'-y+1/3, x-y+2/3, z+2/3'
'-x+y+1/3, -x+2/3, z+2/3'
'-x, -y, -z'
'y, -x+y, -z'
'x-y, x, -z'
'-x+2/3, -y+1/3, -z+1/3'
'y+2/3, -x+y+1/3, -z+1/3'
'x-y+2/3, x+1/3, -z+1/3'
'-x+1/3, -y+2/3, -z+2/3'
'y+1/3, -x+y+2/3, -z+2/3'
'x-y+1/3, x+2/3, -z+2/3'
loop_
_atom_site_label
_atom_site_type_symbol
_atom_site_fract_x
_atom_site_fract_y
_atom_site_fract_z
_atom_site_U_iso_or_equiv
_atom_site_adp_type
_atom_site_occupancy
_atom_site_site_symmetry_order
_atom_site_calc_flag
_atom_site_refinement_flags_posn
_atom_site_refinement_flags_adp
_atom_site_refinement_flags_occupancy
W1 W 0.0000 1.0000 0.14517(2) 0.0407(4) Uani 1 3 d S T P
W2 W 0.3333 0.6667 0.04072(2) 0.0380(4) Uani 1 3 d S T P
Cu1 Cu 0.1174(3) 0.9661(2) 0.12032(3) 0.0471(7) Uani 1 1 d . . .
Cu2 Cu 0.3062(3) 0.7875(2) 0.06605(3) 0.0495(7) Uani 1 1 d . . .
S1 S -0.0427(5) 0.8095(5) 0.13338(6) 0.0462(12) Uani 1 1 d . . .
S2 S 0.4876(5) 0.8544(5) 0.05224(5) 0.0437(12) Uani 1 1 d . . .
N1 N 0.0335(15) 1.1332(17) 0.18014(17) 0.047(4) Uani 1 1 d . . .
N2 N 0.0352(14) 1.1569(16) 0.16336(17) 0.039(4) Uani 1 1 d . . .
N3 N 0.2094(19) 0.9502(17) 0.10216(18) 0.052(4) Uani 1 1 d . . .
N4 N 0.3325(16) 1.0359(16) 0.1001(2) 0.049(4) Uani 1 1 d . . .
N5 N 0.3748(18) 0.998(2) 0.0880(2) 0.064(5) Uani 1 1 d . . .
N6 N 0.2791(17) 0.8893(17) 0.08205(19) 0.051(4) Uani 1 1 d . . .
N7 N 0.4823(16) 0.6887(16) 0.02244(17) 0.045(4) Uani 1 1 d . . .
N8 N 0.4567(18) 0.6792(17) 0.00554(17) 0.050(4) Uani 1 1 d . . .
N9 N 0.3333 0.6667 0.0888(4) 0.084(7) Uani 1 3 d S T P
N10 N 0.3333 0.6667 0.1031(4) 0.084(7) Uani 1 3 d S T P
N11 N 0.3333 0.6667 0.1215(4) 0.084(7) Uani 1 3 d S T P
C1 C 0.075(3) 1.248(3) 0.2064(2) 0.075(8) Uani 1 1 d . . .
H1A H 0.0859 1.3295 0.2100 0.112 Uiso 1 1 calc R U .
H1B H 0.1494 1.2423 0.2095 0.112 Uiso 1 1 calc R U .
H1C H -0.0005 1.1793 0.2116 0.112 Uiso 1 1 calc R U .
C2 C 0.060(2) 1.237(2) 0.1884(2) 0.050(5) Uani 1 1 d . . .
C3 C 0.078(2) 1.328(2) 0.1772(2) 0.061(6) Uani 1 1 d . . .
H3 H 0.0985 1.4119 0.1795 0.073 Uiso 1 1 calc R U .
C4 C 0.063(2) 1.275(2) 0.1618(2) 0.049(5) Uani 1 1 d . . .
C5 C 0.069(2) 1.342(2) 0.1463(3) 0.060(6) Uani 1 1 d . . .
H5A H 0.1364 1.3454 0.1395 0.090 Uiso 1 1 calc R U .
H5B H 0.0873 1.4279 0.1487 0.090 Uiso 1 1 calc R U .
H5C H -0.0119 1.2958 0.1407 0.090 Uiso 1 1 calc R U .
C6 C 0.1741(18) 0.8543(19) 0.0910(2) 0.042(5) Uani 1 1 d . . .
C7 C 0.046(2) 0.747(2) 0.0880(2) 0.074(8) Uani 1 1 d . . .
H7A H -0.0008 0.7221 0.0983 0.089 Uiso 1 1 calc R U .
H7B H 0.0539 0.6745 0.0841 0.089 Uiso 1 1 calc R U .
C8 C -0.030(3) 0.774(3) 0.0757(3) 0.092(10) Uani 1 1 d . . .
H8A H 0.0279 0.8376 0.0679 0.138 Uiso 1 1 calc R U .
H8B H -0.0788 0.8061 0.0813 0.138 Uiso 1 1 calc R U .
H8C H -0.0872 0.6961 0.0699 0.138 Uiso 1 1 calc R U .
C9 C 0.669(2) 0.717(3) 0.0393(3) 0.076(8) Uani 1 1 d . . .
H9A H 0.6905 0.7990 0.0441 0.114 Uiso 1 1 calc R U .
H9B H 0.7471 0.7146 0.0373 0.114 Uiso 1 1 calc R U .
H9C H 0.6145 0.6491 0.0467 0.114 Uiso 1 1 calc R U .
C10 C 0.602(2) 0.701(2) 0.0235(2) 0.052(5) Uani 1 1 d . . .
C11 C 0.645(2) 0.698(2) 0.0078(3) 0.060(6) Uani 1 1 d . . .
H11 H 0.7247 0.7079 0.0052 0.072 Uiso 1 1 calc R U .
C12 C 0.554(2) 0.680(2) -0.0030(3) 0.061(6) Uani 1 1 d . . .
C13 C 0.551(3) 0.664(2) -0.0210(2) 0.079(8) Uani 1 1 d . . .
H13A H 0.4926 0.5754 -0.0238 0.119 Uiso 1 1 calc R U .
H13B H 0.6363 0.6877 -0.0249 0.119 Uiso 1 1 calc R U .
H13C H 0.5234 0.7180 -0.0261 0.119 Uiso 1 1 calc R U .
B1 B 0.0000 1.0000 0.1877(4) 0.056(12) Uani 1 3 d DS T P
H1B1 H 0.0000 1.0000 0.2018(5) 0.083 Uiso 1 3 d DS U P
B2 B 0.3333 0.6667 -0.0008(4) 0.050(4) Uani 1 3 d DS T P
H1B2 H 0.3333 0.6667 -0.0148(5) 0.075 Uiso 1 3 d DS U P
loop_
_atom_site_aniso_label
_atom_site_aniso_U_11
_atom_site_aniso_U_22
_atom_site_aniso_U_33
_atom_site_aniso_U_23
_atom_site_aniso_U_13
_atom_site_aniso_U_12
W1 0.0475(6) 0.0475(6) 0.0270(7) 0.000 0.000 0.0238(3)
W2 0.0446(6) 0.0446(6) 0.0247(6) 0.000 0.000 0.0223(3)
Cu1 0.0566(16) 0.0554(16) 0.0341(12) -0.0046(11) 0.0015(11) 0.0316(14)
Cu2 0.0540(16) 0.0508(16) 0.0414(13) -0.0072(11) 0.0047(11) 0.0246(13)
S1 0.056(3) 0.043(3) 0.036(2) 0.002(2) -0.004(2) 0.022(3)
S2 0.041(3) 0.049(3) 0.034(2) 0.000(2) 0.003(2) 0.017(2)
N1 0.041(10) 0.058(11) 0.030(8) 0.005(7) -0.005(7) 0.017(9)
N2 0.030(8) 0.050(10) 0.038(8) -0.019(7) 0.000(6) 0.022(8)
N3 0.076(14) 0.051(11) 0.032(8) -0.004(8) 0.008(8) 0.035(11)
N4 0.045(11) 0.038(10) 0.057(10) -0.013(8) 0.006(8) 0.014(9)
N5 0.050(12) 0.090(15) 0.048(10) -0.015(10) 0.001(9) 0.033(12)
N6 0.047(11) 0.052(11) 0.046(9) -0.007(8) 0.007(8) 0.019(9)
N7 0.058(11) 0.061(11) 0.036(8) 0.014(7) 0.021(7) 0.046(10)
N8 0.071(12) 0.065(11) 0.030(7) 0.003(7) 0.019(8) 0.046(10)
N9 0.104(11) 0.104(11) 0.045(10) 0.000 0.000 0.052(5)
N10 0.104(11) 0.104(11) 0.045(10) 0.000 0.000 0.052(5)
N11 0.104(11) 0.104(11) 0.045(10) 0.000 0.000 0.052(5)
C1 0.10(2) 0.081(19) 0.042(12) -0.013(12) -0.008(12) 0.044(17)
C2 0.055(14) 0.061(14) 0.042(11) -0.002(10) 0.005(10) 0.035(12)
C3 0.087(18) 0.059(15) 0.048(12) -0.023(11) -0.002(11) 0.046(14)
C4 0.050(13) 0.042(12) 0.046(11) -0.020(9) -0.014(9) 0.017(10)
C5 0.078(17) 0.050(14) 0.067(14) 0.011(11) 0.013(12) 0.044(13)
C6 0.036(11) 0.049(13) 0.033(9) 0.003(8) 0.005(8) 0.016(10)
C7 0.082(18) 0.060(15) 0.032(11) -0.004(10) 0.028(11) 0.000(13)
C8 0.056(17) 0.13(3) 0.065(16) -0.010(16) 0.000(13) 0.023(17)
C9 0.040(14) 0.12(2) 0.078(16) -0.014(16) -0.002(12) 0.050(15)
C10 0.071(15) 0.056(14) 0.040(11) 0.009(9) 0.004(10) 0.040(12)
C11 0.047(14) 0.075(16) 0.063(14) -0.003(12) 0.021(11) 0.034(13)
C12 0.076(17) 0.053(14) 0.043(12) 0.001(10) -0.002(12) 0.024(13)
C13 0.12(2) 0.076(18) 0.037(11) 0.003(11) 0.039(13) 0.040(17)
B1 0.072(19) 0.072(19) 0.023(18) 0.000 0.000 0.036(10)
B2 0.071(12) 0.065(11) 0.030(7) 0.003(7) 0.019(8) 0.046(10)
loop_
_atom_type_symbol
_atom_type_description
_atom_type_scat_dispersion_real
_atom_type_scat_dispersion_imag
_atom_type_scat_source
C C 0.0033 0.0016 'International Tables Vol C Tables 4.2.6.8 and 6.1.1.4'
H H 0.0000 0.0000 'International Tables Vol C Tables 4.2.6.8 and 6.1.1.4'
B B 0.0013 0.0007 'International Tables Vol C Tables 4.2.6.8 and 6.1.1.4'
N N 0.0061 0.0033 'International Tables Vol C Tables 4.2.6.8 and 6.1.1.4'
S S 0.1246 0.1234 'International Tables Vol C Tables 4.2.6.8 and 6.1.1.4'
Cu Cu 0.3201 1.2651 'International Tables Vol C Tables 4.2.6.8 and 6.1.1.4'
W W -0.8490 6.8722 'International Tables Vol C Tables 4.2.6.8 and 6.1.1.4'
loop_
_geom_angle_atom_site_label_1
_geom_angle_atom_site_label_2
_geom_angle_atom_site_label_3
_geom_angle
_geom_angle_site_symmetry_1
_geom_angle_site_symmetry_3
N2 W1 N2 82.0(6) 3_465 2_675
N2 W1 N2 82.0(6) 3_465 .
N2 W1 N2 82.0(6) 2_675 .
N2 W1 S1 85.9(4) 3_465 .
N2 W1 S1 85.9(4) 2_675 .
N2 W1 S1 163.9(4) . .
N2 W1 S1 163.9(4) 3_465 3_465
N2 W1 S1 86.0(4) 2_675 3_465
N2 W1 S1 85.9(4) . 3_465
S1 W1 S1 103.75(14) . 3_465
N2 W1 S1 85.9(4) 3_465 2_675
N2 W1 S1 163.9(4) 2_675 2_675
N2 W1 S1 86.0(4) . 2_675
S1 W1 S1 103.75(14) . 2_675
S1 W1 S1 103.75(14) 3_465 2_675
N2 W1 Cu1 138.2(4) 3_465 3_465
N2 W1 Cu1 91.5(4) 2_675 3_465
N2 W1 Cu1 138.2(4) . 3_465
S1 W1 Cu1 52.32(14) . 3_465
S1 W1 Cu1 52.32(14) 3_465 3_465
S1 W1 Cu1 104.57(13) 2_675 3_465
N2 W1 Cu1 138.2(4) 3_465 2_675
N2 W1 Cu1 138.2(4) 2_675 2_675
N2 W1 Cu1 91.5(4) . 2_675
S1 W1 Cu1 104.58(13) . 2_675
S1 W1 Cu1 52.31(14) 3_465 2_675
S1 W1 Cu1 52.32(14) 2_675 2_675
Cu1 W1 Cu1 66.52(9) 3_465 2_675
N2 W1 Cu1 91.5(4) 3_465 .
N2 W1 Cu1 138.2(4) 2_675 .
N2 W1 Cu1 138.2(4) . .
S1 W1 Cu1 52.33(14) . .
S1 W1 Cu1 104.57(13) 3_465 .
S1 W1 Cu1 52.31(14) 2_675 .
Cu1 W1 Cu1 66.52(9) 3_465 .
Cu1 W1 Cu1 66.52(9) 2_675 .
N7 W2 N7 80.7(6) 3_565 2_665
N7 W2 N7 80.7(6) 3_565 .
N7 W2 N7 80.7(6) 2_665 .
N7 W2 S2 162.5(4) 3_565 .
N7 W2 S2 85.0(4) 2_665 .
N7 W2 S2 87.1(5) . .
N7 W2 S2 85.0(4) 3_565 2_665
N7 W2 S2 87.1(5) 2_665 2_665
N7 W2 S2 162.5(4) . 2_665
S2 W2 S2 104.36(13) . 2_665
N7 W2 S2 87.1(5) 3_565 3_565
N7 W2 S2 162.6(4) 2_665 3_565
N7 W2 S2 85.0(4) . 3_565
S2 W2 S2 104.36(13) . 3_565
S2 W2 S2 104.36(13) 2_665 3_565
N7 W2 Cu2 137.5(4) 3_565 .
N7 W2 Cu2 93.1(4) 2_665 .
N7 W2 Cu2 140.0(5) . .
S2 W2 Cu2 52.98(13) . .
S2 W2 Cu2 52.60(14) 2_665 .
S2 W2 Cu2 104.34(13) 3_565 .
N7 W2 Cu2 93.1(4) 3_565 2_665
N7 W2 Cu2 140.0(5) 2_665 2_665
N7 W2 Cu2 137.5(4) . 2_665
S2 W2 Cu2 104.34(13) . 2_665
S2 W2 Cu2 52.98(13) 2_665 2_665
S2 W2 Cu2 52.60(14) 3_565 2_665
Cu2 W2 Cu2 65.30(10) . 2_665
N7 W2 Cu2 140.0(5) 3_565 3_565
N7 W2 Cu2 137.5(4) 2_665 3_565
N7 W2 Cu2 93.1(4) . 3_565
S2 W2 Cu2 52.60(14) . 3_565
S2 W2 Cu2 104.34(13) 2_665 3_565
S2 W2 Cu2 52.98(13) 3_565 3_565
Cu2 W2 Cu2 65.30(10) . 3_565
Cu2 W2 Cu2 65.30(10) 2_665 3_565
N3 Cu1 S1 120.9(6) . 2_675
N3 Cu1 S1 126.5(6) . .
S1 Cu1 S1 111.6(3) 2_675 .
N3 Cu1 W1 177.1(6) . .
S1 Cu1 W1 56.30(14) 2_675 .
S1 Cu1 W1 56.30(15) . .
N3 Cu1 Cu1 121.5(5) . 2_675
S1 Cu1 Cu1 48.95(17) 2_675 2_675
S1 Cu1 Cu1 99.80(17) . 2_675
W1 Cu1 Cu1 56.74(5) . 2_675
N3 Cu1 Cu1 125.0(6) . 3_465
S1 Cu1 Cu1 99.80(16) 2_675 3_465
S1 Cu1 Cu1 48.95(17) . 3_465
W1 Cu1 Cu1 56.74(5) . 3_465
Cu1 Cu1 Cu1 60.000(1) 2_675 3_465
N6 Cu2 S2 121.7(6) . 2_665
N6 Cu2 S2 124.1(5) . .
S2 Cu2 S2 109.7(3) 2_665 .
N6 Cu2 W2 171.1(5) . .
S2 Cu2 W2 55.57(14) 2_665 .
S2 Cu2 W2 55.44(14) . .
N6 Cu2 Cu2 128.9(5) . 2_665
S2 Cu2 Cu2 50.20(16) 2_665 2_665
S2 Cu2 Cu2 99.86(16) . 2_665
W2 Cu2 Cu2 57.35(5) . 2_665
N6 Cu2 Cu2 130.3(5) . 3_565
S2 Cu2 Cu2 100.22(15) 2_665 3_565
S2 Cu2 Cu2 49.75(17) . 3_565
W2 Cu2 Cu2 57.35(5) . 3_565
Cu2 Cu2 Cu2 60.0 2_665 3_565
Cu1 S1 Cu1 82.1(2) 3_465 .
Cu1 S1 W1 71.38(17) 3_465 .
Cu1 S1 W1 71.38(17) . .
Cu2 S2 Cu2 80.1(2) 3_565 .
Cu2 S2 W2 71.84(17) 3_565 .
Cu2 S2 W2 71.58(16) . .
C2 N1 N2 109.6(16) . .
C2 N1 B1 126.1(18) . .
N2 N1 B1 124.3(18) . .
C4 N2 N1 106.7(15) . .
C4 N2 W1 133.8(13) . .
N1 N2 W1 119.5(12) . .
N4 N3 C6 109.3(15) . .
N4 N3 Cu1 119.8(12) . .
C6 N3 Cu1 130.5(15) . .
N5 N4 N3 107.7(16) . .
N4 N5 N6 108.9(17) . .
N5 N6 C6 109.3(16) . .
N5 N6 Cu2 122.2(13) . .
C6 N6 Cu2 127.3(15) . .
C10 N7 N8 104.2(14) . .
C10 N7 W2 134.8(12) . .
N8 N7 W2 120.8(12) . .
C12 N8 N7 110.2(17) . .
C12 N8 B2 129.2(19) . .
N7 N8 B2 120.5(18) . .
N9 N10 N11 180.0 . .
C2 C1 H1A 109.5 . .
C2 C1 H1B 109.5 . .
H1A C1 H1B 109.5 . .
C2 C1 H1C 109.5 . .
H1A C1 H1C 109.5 . .
H1B C1 H1C 109.5 . .
N1 C2 C3 106.6(17) . .
N1 C2 C1 124(2) . .
C3 C2 C1 130(2) . .
C2 C3 C4 108(2) . .
C2 C3 H3 125.9 . .
C4 C3 H3 125.9 . .
N2 C4 C3 108.8(19) . .
N2 C4 C5 126.5(17) . .
C3 C4 C5 125(2) . .
C4 C5 H5A 109.5 . .
C4 C5 H5B 109.5 . .
H5A C5 H5B 109.5 . .
C4 C5 H5C 109.5 . .
H5A C5 H5C 109.5 . .
H5B C5 H5C 109.5 . .
N6 C6 N3 104.7(17) . .
N6 C6 C7 127.0(18) . .
N3 C6 C7 127.8(18) . .
C6 C7 C8 114(2) . .
C6 C7 H7A 108.7 . .
C8 C7 H7A 108.7 . .
C6 C7 H7B 108.7 . .
C8 C7 H7B 108.7 . .
H7A C7 H7B 107.6 . .
C7 C8 H8A 109.5 . .
C7 C8 H8B 109.5 . .
H8A C8 H8B 109.5 . .
C7 C8 H8C 109.5 . .
H8A C8 H8C 109.5 . .
H8B C8 H8C 109.5 . .
C10 C9 H9A 109.5 . .
C10 C9 H9B 109.5 . .
H9A C9 H9B 109.5 . .
C10 C9 H9C 109.5 . .
H9A C9 H9C 109.5 . .
H9B C9 H9C 109.5 . .
N7 C10 C11 108.8(18) . .
N7 C10 C9 123.0(18) . .
C11 C10 C9 128(2) . .
C12 C11 C10 109(2) . .
C12 C11 H11 125.3 . .
C10 C11 H11 125.3 . .
C11 C12 N8 107.3(18) . .
C11 C12 C13 130(2) . .
N8 C12 C13 123(2) . .
C12 C13 H13A 109.5 . .
C12 C13 H13B 109.5 . .
H13A C13 H13B 109.5 . .
C12 C13 H13C 109.5 . .
H13A C13 H13C 109.5 . .
H13B C13 H13C 109.5 . .
N1 B1 N1 105.7(15) . 2_675
N1 B1 N1 105.7(15) . 3_465
N1 B1 N1 105.7(15) 2_675 3_465
N1 B1 H1B1 113.1(13) . .
N1 B1 H1B1 113.1(13) 2_675 .
N1 B1 H1B1 113.1(13) 3_465 .
N8 B2 N8 109.0(14) 2_665 .
N8 B2 N8 109.0(14) 2_665 3_565
N8 B2 N8 109.0(14) . 3_565
N8 B2 H1B2 109.9(14) 2_665 .
N8 B2 H1B2 109.9(14) . .
N8 B2 H1B2 109.9(14) 3_565 .
loop_
_geom_bond_atom_site_label_1
_geom_bond_atom_site_label_2
_geom_bond_distance
_geom_bond_site_symmetry_2
W1 N2 2.277(14) 3_465
W1 N2 2.277(14) 2_675
W1 N2 2.277(14) .
W1 S1 2.305(5) .
W1 S1 2.305(5) 3_465
W1 S1 2.305(5) 2_675
W1 Cu1 2.625(2) 3_465
W1 Cu1 2.625(2) 2_675
W1 Cu1 2.625(2) .
W2 N7 2.251(14) 3_565
W2 N7 2.251(14) 2_665
W2 N7 2.251(14) .
W2 S2 2.298(5) .
W2 S2 2.298(5) 2_665
W2 S2 2.298(5) 3_565
W2 Cu2 2.648(2) .
W2 Cu2 2.648(2) 2_665
W2 Cu2 2.648(2) 3_565
Cu1 N3 1.921(16) .
Cu1 S1 2.192(6) 2_675
Cu1 S1 2.193(6) .
Cu1 Cu1 2.879(4) 2_675
Cu1 Cu1 2.879(4) 3_465
Cu2 N6 1.933(16) .
Cu2 S2 2.214(6) 2_665
Cu2 S2 2.228(5) .
Cu2 Cu2 2.857(5) 2_665
Cu2 Cu2 2.857(5) 3_565
S1 Cu1 2.192(6) 3_465
S2 Cu2 2.214(6) 3_565
N1 C2 1.32(3) .
N1 N2 1.40(2) .
N1 B1 1.58(2) .
N2 C4 1.30(3) .
N3 N4 1.33(2) .
N3 C6 1.36(2) .
N4 N5 1.30(2) .
N5 N6 1.33(2) .
N6 C6 1.34(2) .
N7 C10 1.38(3) .
N7 N8 1.41(2) .
N8 C12 1.37(3) .
N8 B2 1.51(2) .
N9 N10 1.17(4) .
N10 N11 1.50(4) .
C1 C2 1.48(3) .
C1 H1A 0.9700 .
C1 H1B 0.9700 .
C1 H1C 0.9700 .
C2 C3 1.36(3) .
C3 C4 1.38(3) .
C3 H3 0.9400 .
C4 C5 1.48(3) .
C5 H5A 0.9700 .
C5 H5B 0.9700 .
C5 H5C 0.9700 .
C6 C7 1.46(3) .
C7 C8 1.51(4) .
C7 H7A 0.9800 .
C7 H7B 0.9800 .
C8 H8A 0.9700 .
C8 H8B 0.9700 .
C8 H8C 0.9700 .
C9 C10 1.48(3) .
C9 H9A 0.9700 .
C9 H9B 0.9700 .
C9 H9C 0.9700 .
C10 C11 1.39(3) .
C11 C12 1.33(3) .
C11 H11 0.9400 .
C12 C13 1.49(3) .
C13 H13A 0.9700 .
C13 H13B 0.9700 .
C13 H13C 0.9700 .
B1 N1 1.58(2) 2_675
B1 N1 1.58(2) 3_465
B1 H1B1 1.15(2) .
B2 N8 1.51(2) 2_665
B2 N8 1.51(2) 3_565
B2 H1B2 1.15(2) .
loop_
_publcif_info_datablock.id
_publcif_info_datablock.publ_exptl
_publcif_info_datablock.publ_geom
_publcif_info_datablock.structure
{b62a27c4-6f08-4882-9889-cba5fd7938e5} y y y
