#------------------------------------------------------------------------------
#$Date: 2017-03-04 15:16:02 +0200 (Sat, 04 Mar 2017) $
#$Revision: 193438 $
#$URL: file:///home/coder/svn-repositories/cod/cif/4/34/50/4345015.cif $
#------------------------------------------------------------------------------
#
# This file is available in the Crystallography Open Database (COD),
# http://www.crystallography.net/
#
# All data on this site have been placed in the public domain by the
# contributors.
#
data_4345015
loop_
_publ_author_name
'Sapianik, Aleksandr A.'
'Zorina-Tikhonova, Ekaterina N'
'Kiskin, Mikhail A.'
'Samsonenko, Denis G.'
'Kovalenko, Konstantin A.'
'Sidorov, Alexey A.'
'Eremenko, Igor L.'
'Dybtsev, Danil N.'
'Blake, Alexander J.'
'Argent, Stephen P.'
'Schr\"oder, Martin'
'Fedin, Vladimir P.'
_publ_section_title
;
 Rational Synthesis and Investigation of Porous Metal-Organic Framework
 Materials from a Preorganized Heterometallic Carboxylate Building Block.
;
_journal_issue                   3
_journal_name_full               'Inorganic chemistry'
_journal_page_first              1599
_journal_page_last               1608
_journal_paper_doi               10.1021/acs.inorgchem.6b02713
_journal_volume                  56
_journal_year                    2017
_chemical_formula_sum            'C39 H39 Li2 N7 O16 Zn2'
_chemical_formula_weight         1006.39
_space_group_crystal_system      monoclinic
_space_group_IT_number           15
_space_group_name_Hall           '-C 2yc'
_space_group_name_H-M_alt        'C 1 2/c 1'
_symmetry_space_group_name_Hall  '-C 2yc'
_symmetry_space_group_name_H-M   'C 1 2/c 1'
_atom_sites_solution_hydrogens   geom
_atom_sites_solution_primary     direct
_atom_sites_solution_secondary   difmap
_audit_creation_method           SHELXL-2014/7
_cell_angle_alpha                90
_cell_angle_beta                 112.447(4)
_cell_angle_gamma                90
_cell_formula_units_Z            4
_cell_length_a                   17.0298(5)
_cell_length_b                   18.8904(5)
_cell_length_c                   16.7611(5)
_cell_measurement_reflns_used    6632
_cell_measurement_temperature    130(2)
_cell_measurement_theta_max      28.46
_cell_measurement_theta_min      3.79
_cell_volume                     4983.5(3)
_computing_cell_refinement       'CrysAlisPro 1.171.38.41 (Rigaku OD, 2015)'
_computing_data_collection       'CrysAlisPro 1.171.38.41 (Rigaku OD, 2015)'
_computing_data_reduction        'CrysAlisPro 1.171.38.41 (Rigaku OD, 2015)'
_computing_molecular_graphics    'ShelXle (H\"ubschle, 2011)'
_computing_publication_material  'CIFTAB-2014 (Sheldrick, 2015)'
_computing_structure_refinement  'SHELXL-2014 (Sheldrick, 2015)'
_computing_structure_solution    'SHELXT-2014 (Sheldrick, 2015)'
_diffrn_ambient_temperature      130(2)
_diffrn_detector                 'CCD plate'
_diffrn_detector_area_resol_mean 10.6168
_diffrn_detector_type            AtlasS2
_diffrn_measured_fraction_theta_full 0.997
_diffrn_measured_fraction_theta_max 0.858
_diffrn_measurement_device       'four-circle diffractometer'
_diffrn_measurement_device_type  'New Xcalibur, AtlasS2'
_diffrn_measurement_method       '\w scans'
_diffrn_radiation_monochromator  graphite
_diffrn_radiation_probe          x-ray
_diffrn_radiation_source         'fine-focus sealed tube'
_diffrn_radiation_type           MoK\a
_diffrn_radiation_wavelength     0.71073
_diffrn_reflns_av_R_equivalents  0.0253
_diffrn_reflns_av_unetI/netI     0.0320
_diffrn_reflns_Laue_measured_fraction_full 0.997
_diffrn_reflns_Laue_measured_fraction_max 0.858
_diffrn_reflns_limit_h_max       21
_diffrn_reflns_limit_h_min       -21
_diffrn_reflns_limit_k_max       18
_diffrn_reflns_limit_k_min       -24
_diffrn_reflns_limit_l_max       16
_diffrn_reflns_limit_l_min       -22
_diffrn_reflns_number            13068
_diffrn_reflns_point_group_measured_fraction_full 0.997
_diffrn_reflns_point_group_measured_fraction_max 0.858
_diffrn_reflns_theta_full        25.500
_diffrn_reflns_theta_max         28.715
_diffrn_reflns_theta_min         3.370
_diffrn_source                   'sealed X-ray tube'
_exptl_absorpt_coefficient_mu    1.032
_exptl_absorpt_correction_T_max  1.00000
_exptl_absorpt_correction_T_min  0.74099
_exptl_absorpt_correction_type   multi-scan
_exptl_absorpt_process_details
;
CrysAlisPro 1.171.38.41 (Rigaku Oxford Diffraction, 2015)
Empirical absorption correction using spherical harmonics,
implemented in SCALE3 ABSPACK scaling algorithm.
;
_exptl_crystal_colour            colorless
_exptl_crystal_density_diffrn    1.341
_exptl_crystal_description       block
_exptl_crystal_F_000             2064
_exptl_crystal_size_max          0.28
_exptl_crystal_size_mid          0.16
_exptl_crystal_size_min          0.15
_refine_diff_density_max         0.668
_refine_diff_density_min         -0.641
_refine_diff_density_rms         0.082
_refine_ls_extinction_method     none
_refine_ls_goodness_of_fit_ref   1.029
_refine_ls_hydrogen_treatment    constr
_refine_ls_matrix_type           full
_refine_ls_number_parameters     336
_refine_ls_number_reflns         5529
_refine_ls_number_restraints     36
_refine_ls_restrained_S_all      1.032
_refine_ls_R_factor_all          0.0532
_refine_ls_R_factor_gt           0.0452
_refine_ls_shift/su_max          0.001
_refine_ls_shift/su_mean         0.000
_refine_ls_structure_factor_coef Fsqd
_refine_ls_weighting_details
'w=1/[\s^2^(Fo^2^)+(0.0695P)^2^+9.5525P] where P=(Fo^2^+2Fc^2^)/3'
_refine_ls_weighting_scheme      calc
_refine_ls_wR_factor_gt          0.1226
_refine_ls_wR_factor_ref         0.1287
_reflns_Friedel_coverage         0.000
_reflns_number_gt                4753
_reflns_number_total             5529
_reflns_threshold_expression     >2\s(I)
_cod_data_source_file            ic6b02713_si_002.cif
_cod_data_source_block           5
_cod_depositor_comments
'Adding full bibliography for 4345011--4345015.cif.'
_cod_database_code               4345015
_shelx_shelxl_version_number     2014/7
_shelx_space_group_comment
;
The symmetry employed for this shelxl refinement is uniquely defined
by the following loop, which should always be used as a source of
symmetry information in preference to the above space-group names.
They are only intended as comments.
;
_shelx_estimated_absorpt_t_min   0.761
_shelx_estimated_absorpt_t_max   0.861
_shelx_res_file
;
 
    dsmsalnh2_sq.res created by SHELXL-2014/7
 
 
TITL dsmsalnh2 in C2/c; 130K; Xcalibur
CELL  0.71073  17.0298  18.8904  16.7611   90.000  112.447   90.000
ZERR    4.000   0.0005   0.0005   0.0005    0.000    0.004    0.000
LATT  7
SYMM -X, Y, 1/2-Z
SFAC C   H   LI N  O  ZN
UNIT 156 156 8  28 64 8
 
LIST 4 ! automatically inserted. Change 6 to 4 for CHECKCIF!!
TEMP -143
 
L.S. 6 0   28
BOND $H
FMAP 2
PLAN 5
 
SIMU 0.01 0.02 O1G > C3G
ISOR 0.01 0.01 O1W O2W
 
EQIV $1 1/2+x, 1/2-y, 1/2+z
FREE O1W H12B_$1
 
ABIN
ACTA 51
 
SIZE 0.28 0.16 0.15
 
OMIT -4   0   4
OMIT -4   0   2
 
WGHT    0.069500    9.552500
FVAR       1.15535
ZN1   6    0.248282    0.371678    0.419393    11.00000    0.02056    0.01847 =
         0.02057   -0.00006   -0.00122    0.00075
LI1   3    0.082119    0.383262    0.246988    11.00000    0.02278    0.02395 =
         0.03169   -0.00188    0.00007    0.00106
N1    4    0.341653    0.364924    0.539786    11.00000    0.02302    0.02387 =
         0.02376   -0.00123   -0.00247    0.00069
C1    1    0.387429    0.306516    0.571974    11.00000    0.02968    0.02086 =
         0.02298   -0.00048   -0.00010    0.00192
AFIX  43
H1    2    0.376642    0.265422    0.536726    11.00000   -1.20000
AFIX   0
C2    1    0.449373    0.303420    0.653822    11.00000    0.02832    0.02227 =
         0.02557    0.00370    0.00066    0.00428
AFIX  43
H2    2    0.480181    0.260863    0.674435    11.00000   -1.20000
AFIX   0
C3    1    0.466403    0.363236    0.706048    11.00000    0.02197    0.02590 =
         0.02589   -0.00056   -0.00217   -0.00083
C4    1    0.418587    0.423546    0.672774    11.00000    0.04019    0.02564 =
         0.03626   -0.00870   -0.01308    0.00466
AFIX  43
H4    2    0.428027    0.465367    0.706640    11.00000   -1.20000
AFIX   0
C5    1    0.357330    0.422392    0.590301    11.00000    0.03858    0.02461 =
         0.03727   -0.00475   -0.01352    0.00891
AFIX  43
H5    2    0.324927    0.464004    0.568397    11.00000   -1.20000
AFIX   0
O11   5    0.257171    0.282795    0.369138    11.00000    0.03411    0.02667 =
         0.02810   -0.00789    0.00515    0.00426
O12   5    0.143480    0.299639    0.247821    11.00000    0.03018    0.02459 =
         0.03400   -0.00150    0.00677    0.00720
O13   5    0.344270   -0.038598    0.226161    11.00000    0.04069    0.02606 =
         0.04309   -0.00456    0.00546    0.01138
O14   5    0.218462   -0.039494    0.117491    11.00000    0.03753    0.02860 =
         0.05164   -0.01544    0.00482    0.00517
C11   1    0.205408    0.263626    0.294225    11.00000    0.02824    0.02156 =
         0.02947   -0.00076    0.00903    0.00013
C12   1    0.222925    0.193147    0.264068    11.00000    0.02647    0.02484 =
         0.02800   -0.00418    0.00513    0.00385
C13   1    0.175418    0.169972    0.181000    11.00000    0.03354    0.03021 =
         0.03775   -0.00725   -0.00380    0.00913
C14   1    0.190153    0.102967    0.153774    11.00000    0.04558    0.03264 =
         0.03592   -0.01038   -0.00442    0.00939
C15   1    0.254062    0.059895    0.210110    11.00000    0.03512    0.02558 =
         0.03304   -0.00406    0.00706    0.00515
C16   1    0.300690    0.084197    0.293015    11.00000    0.04155    0.03040 =
         0.02963   -0.00044    0.00029    0.01292
AFIX  43
H16   2    0.343990    0.055063    0.331745    11.00000   -1.20000
AFIX   0
C17   1    0.285445    0.149413    0.320047    11.00000    0.03968    0.03321 =
         0.02671   -0.00452   -0.00001    0.00970
AFIX  43
H17   2    0.317713    0.164773    0.377227    11.00000   -1.20000
AFIX   0
C18   1    0.274655   -0.010607    0.183939    11.00000    0.03715    0.02314 =
         0.03609   -0.00309    0.00923    0.00246
N11   4    0.123904    0.212283    0.114367    10.50000    0.06600    0.05340 =
         0.05533   -0.01413   -0.00504    0.02065
AFIX  93
H11A  2    0.119393    0.257782    0.123058    10.50000   -1.20000
H11B  2    0.095594    0.193743    0.063220    10.50000   -1.20000
AFIX   0
N12   4    0.131917    0.082339    0.072949    10.50000    0.08115    0.04840 =
         0.04663   -0.02950   -0.03505    0.03812
AFIX  93
H12A  2    0.133766    0.039194    0.053943    10.50000   -1.20000
H12B  2    0.093319    0.112466    0.040951    10.50000   -1.20000
AFIX   0
O21   5    0.154919    0.394474    0.453990    11.00000    0.02362    0.04748 =
         0.02130   -0.00450   -0.00116    0.01122
O22   5    0.032911    0.382264    0.340541    11.00000    0.02381    0.02774 =
         0.01971   -0.00424    0.00202    0.00077
C21   1    0.076646    0.406773    0.413753    11.00000    0.02360    0.02654 =
         0.02006    0.00073    0.00267    0.00296
C22   1    0.036455    0.454059    0.458679    11.00000    0.02336    0.03133 =
         0.01803   -0.00172    0.00079    0.00361
C23   1   -0.047465    0.444003    0.450425    11.00000    0.02628    0.03426 =
         0.02635   -0.00803    0.00436   -0.00225
C24   1   -0.083950    0.489505    0.491231    11.00000    0.02355    0.04174 =
         0.02980   -0.00878    0.00397   -0.00104
N21   4   -0.098545    0.392221    0.405637    10.25000    0.04734    0.05425 =
         0.04627   -0.01647    0.02298    0.00757
AFIX  93
H21A  2   -0.150741    0.389187    0.403889    10.25000   -1.20000
H21B  2   -0.080055    0.361085    0.377829    10.25000   -1.20000
AFIX   0
N22   4   -0.162316    0.468098    0.488528    10.25000    0.02763    0.03952 =
         0.06087   -0.03392    0.02325   -0.00504
AFIX  93
H22A  2   -0.184926    0.428399    0.462326    10.25000   -1.20000
H22B  2   -0.189730    0.494133    0.513005    10.25000   -1.20000
AFIX   0
PART 1
O1G   5    0.510934    0.304118    0.464422    10.50000    0.06292    0.12970 =
         0.08308    0.00175    0.02276   -0.01584
C1G   1    0.457237    0.304189    0.391247    10.50000    0.03664    0.08130 =
         0.07401   -0.01459    0.02706   -0.01424
AFIX  43
H1G   2    0.432678    0.260332    0.366308    10.50000   -1.20000
AFIX   0
N1G   4    0.431990    0.361574    0.345697    10.50000    0.03346    0.07324 =
         0.07589    0.00739    0.02785   -0.01136
C2G   1    0.464361    0.429943    0.378791    10.50000    0.03511    0.11677 =
         0.15779    0.00322    0.02456   -0.02014
AFIX  37
H2G1  2    0.422015    0.466132    0.349180    10.50000   -1.50000
H2G2  2    0.516652    0.439013    0.369028    10.50000   -1.50000
H2G3  2    0.476595    0.431525    0.440838    10.50000   -1.50000
AFIX   0
C3G   1    0.374582    0.361016    0.259435    10.50000    0.05766    0.15180 =
         0.07135    0.01995    0.03862    0.00114
AFIX  37
H3G1  2    0.324940    0.389960    0.253643    10.50000   -1.50000
H3G2  2    0.356433    0.312288    0.241808    10.50000   -1.50000
H3G3  2    0.402260    0.380410    0.222578    10.50000   -1.50000
AFIX   0
PART 2
O1W   5    0.506370    0.405446    0.487336    10.12500    0.05636    0.06626 =
         0.09367    0.00330    0.02749   -0.00854
O2W   5    0.308093    0.402465    0.148278    10.12500    0.09079    0.09098 =
         0.10996   -0.01565    0.05250    0.00320
PART 0
HKLF 4
 
REM  dsmsalnh2 in C2/c; 130K; Xcalibur
REM R1 =  0.0452 for    4753 Fo > 4sig(Fo)  and  0.0532 for all    5529 data
REM    336 parameters refined using     36 restraints
 
END
 
WGHT      0.0695      9.5527
 
REM Highest difference peak  0.668,  deepest hole -0.641,  1-sigma level  0.082
Q1    1   0.2570  0.4009  0.0810  11.00000  0.05    0.67
Q2    1   0.2031  0.3827  0.4441  11.00000  0.05    0.64
Q3    1   0.2493 -0.0663  0.0817  11.00000  0.05    0.58
Q4    1   0.4872  0.2606  0.4416  11.00000  0.05    0.55
Q5    1   0.4479  0.4722  0.3837  11.00000  0.05    0.49
;
_shelx_res_checksum              24186
_shelx_hkl_file
;
   0   0   3 23.0332 21.7550   1
   0   0   3 62.6943 25.3630   2
   0   0  -3 86.2332 30.9332   2
   0   0   4 1651.85 81.5144   1
   0   0  -4 1697.10 84.7827   2
   0   0  -5 56.3203 52.4177   2
   0   0   5-13.8864 29.3167   1
   0   0  -6 61106.6 581.279   2
   0   0   6 58268.1 549.159   1
   0   0  -7 39.0941 33.6399   2
   0   0   7 19.0459 29.8662   1
   0   0   8 32452.8 479.778   1
   0   0  -8 31879.0 487.751   2
   0   0   9 56.3103 35.0981   1
   0   0  -9-19.3509 36.4290   2
   0   0 -10 739.470 89.5998   2
   0   0  10 680.444 88.2606   1
   0   0 -11-66.5843 55.7773   2
   0   0  11-53.9076 43.0618   1
   0   0  12 16140.9 435.410   1
   0   0 -12 16275.5 436.369   2
   0   0 -13-22.2948 47.3238   2
   0   0 -14 2565.46 193.052   2
   0   0 -15 107.560 71.5278   2
   0   0 -16 852.427 125.470   2
   0   0 -17 60.5581 68.8751   2
   0   0 -18 4013.29 279.084   2
   0   0 -19-72.8545 69.5876   2
   0   2   2 10606.5 157.008   2
   0  -2  -2 10644.3 156.010   2
   0  -2  -3 182678. 748.089   1
   0   2   3 184006. 764.420   2
   0  -2  -3 183582. 759.781   2
   0   2  -3 183190. 626.365   2
   0   2   4 1533.14 83.5456   2
   0   2   4 1478.69 81.6484   1
   0  -2  -4 1356.72 80.4175   1
   0   2  -4 1475.60 70.4740   2
   0  -2  -4 1561.98 89.2620   2
   0   2   5 58509.6 539.575   2
   0  -2  -5 56490.4 523.142   1
   0   2   5 59296.3 539.417   1
   0   2  -5 57937.0 480.248   2
   0  -2  -5 58487.5 539.644   2
   0   2   6 1050.19 80.3078   1
   0   2  -6 891.508 74.9876   2
   0  -2  -6 934.751 82.8411   2
   0  -2  -6 985.056 80.1311   1
   0   2  -7 31176.7 432.117   2
   0  -2   7 28719.2 401.328   1
   0  -2  -7 30753.2 457.169   2
   0   2   7 30751.7 463.170   1
   0  -2   8 4284.79 170.416   1
   0   2   8 4402.72 190.860   1
   0   2  -8 4342.38 177.890   2
   0  -2  -8 4169.47 185.557   2
   0   2  -9 1139.51 99.3235   2
   0  -2  -9 1222.75 108.525   2
   0   2   9 1246.62 109.442   1
   0  -2   9 1208.70 99.6203   1
   0   2 -10 2818.96 160.634   2
   0  -2  10 2763.35 156.417   1
   0  -2 -10 2697.82 166.911   2
   0   2  10 2828.91 169.716   1
   0  -2  11 18344.2 425.743   1
   0   2  11 18428.0 449.776   1
   0   2 -11 17916.0 428.372   2
   0  -2 -11 17731.2 442.310   2
   0  -2 -12 338.298 75.6037   2
   0  -2  12 322.702 68.8754   1
   0   2 -12 385.739 77.6322   2
   0  -2 -13 1662.17 153.668   2
   0   2 -13 1468.08 140.728   2
   0  -2  13 1583.20 145.422   1
   0  -2 -14 104.250 58.1869   2
   0   2 -14 8.22829 47.0632   2
   0   2 -15 4797.68 267.050   2
   0  -2 -15 4737.38 277.560   2
   0   2 -16 334.914 85.4771   2
   0  -2 -16 393.210 96.0854   2
   0  -2 -17 2319.04 211.995   2
   0   2 -17 1963.24 185.677   2
   0   2 -18 719.345 120.927   2
   0  -2 -18 565.593 117.638   2
   0   2 -19 675.670 126.430   2
   0  -2 -19 693.706 138.257   2
   0   4   0 191357. 482.717   2
   0  -4   0 192956. 634.524   1
   0  -4   0 190152. 479.354   2
   0   4   1 5045.48 118.514   1
   0   4   1 3996.29 96.6642   2
   0  -4  -1 4679.55 115.089   1
   0  -4  -1 3899.97 94.0658   2
   0  -4  -2 6274.90 136.761   2
   0  -4  -2 6167.08 142.232   1
   0   4   2 5924.19 139.700   1
   0   4   2 6363.23 141.150   2
   0   4   3 19050.3 266.583   2
   0   4   3 19732.7 282.982   1
   0  -4  -3 20051.0 282.485   1
   0  -4  -3 18679.5 268.604   2
   0  -4  -4 25474.6 346.221   1
   0   4   4 25640.9 349.202   2
   0   4   4 25375.7 349.520   1
   0   4  -4 24517.3 250.490   2
   0  -4  -4 25872.9 348.575   2
   0   4  -5 1496.04 74.4700   2
   0   4   5 1621.88 99.6022   1
   0  -4  -5 1529.80 99.2698   2
   0  -4  -5 1630.13 99.1606   1
   0   4   5 1682.17 101.863   2
   0  -4  -6 36639.1 482.074   1
   0   4   6 37894.2 498.743   1
   0   4   6 38210.6 500.279   2
   0   4  -6 36465.5 398.302   2
   0  -4  -6 37644.6 492.834   2
   0   4  -7 4375.27 155.506   2
   0  -4  -7 4252.19 177.558   1
   0  -4  -7 4391.83 185.821   2
   0   4   7 4541.74 188.284   1
   0   4  -8 58837.3 612.372   2
   0  -4  -8 58107.3 694.128   2
   0  -4  -8 55781.1 671.325   1
   0  -4   9 799.127 80.6806   1
   0   4   9 663.607 86.1179   1
   0   4  -9 735.601 77.8561   2
   0  -4  -9 773.198 94.0105   2
   0   4  10 739.063 95.0977   1
   0  -4 -10 747.688 97.7429   2
   0   4 -10 763.103 84.5615   2
   0  -4  10 652.678 81.3565   1
   0   4  11 27.9413 38.8502   1
   0  -4 -11 88.7662 57.4536   2
   0  -4  11 65.0808 41.5343   1
   0   4 -11 102.219 48.4479   2
   0  -4 -12 25889.8 575.876   2
   0   4 -12 25588.0 521.068   2
   0  -4  12 25528.3 509.179   1
   0   4 -13 19.4612 43.8731   2
   0  -4  13 15.3702 42.4896   1
   0  -4 -13 45.9468 49.5895   2
   0   4 -14 2744.51 192.110   2
   0  -4 -14 2561.89 200.867   2
   0   4 -15 1197.43 137.493   2
   0  -4 -15 1202.87 145.379   2
   0   4 -16 3335.61 224.743   2
   0  -4 -16 3522.33 250.167   2
   0   4 -17 671.500 110.767   2
   0  -4 -17 658.858 130.006   2
   0   4 -18 4204.71 280.436   2
   0  -4 -18 5365.73 333.475   2
   0   4 -19 159.823 80.8545   2
   0   4 -20 462.829 110.999   2
   0   6   0 8588.64 128.170   2
   0  -6   0 8084.22 120.703   2
   0  -6   0 10282.8 184.271   1
   0   6   1 3567.12 100.481   2
   0  -6   1 3043.08 58.2069   2
   0   6  -1 2841.53 58.7424   2
   0  -6  -1 3594.80 117.918   1
   0  -6  -1 3500.46 95.8501   2
   0  -6  -2 665.224 63.9924   1
   0  -6  -2 525.745 50.2813   2
   0   6   2 525.286 48.5448   2
   0   6   2 636.258 57.6071   1
   0   6   3 52854.2 515.156   1
   0  -6  -3 53730.9 484.488   2
   0  -6  -3 54271.2 515.825   1
   0   6   3 55255.2 490.046   2
   0  -6  -4 5608.94 176.411   2
   0   6  -4 5435.11 105.263   2
   0   6   4 5711.26 182.260   1
   0   6   4 6122.19 183.249   2
   0  -6  -4 5560.70 181.765   1
   0   6  -5 3103.97 98.9269   2
   0   6   5 3561.29 152.201   2
   0  -6  -5 3223.46 142.948   2
   0   6   5 3329.59 145.833   1
   0  -6  -5 3011.26 142.827   1
   0  -6  -6 1489.81 106.570   2
   0   6  -6 1450.36 78.7290   2
   0  -6  -6 1634.10 112.912   1
   0   6   6 1555.86 112.427   2
   0   6   6 1615.00 114.940   1
   0   6   7 3979.73 184.309   1
   0  -6  -7 3749.48 173.935   2
   0   6  -7 3639.79 133.858   2
   0   6   7 3958.39 184.348   2
   0  -6  -7 3835.25 174.141   1
   0  -6  -8 943.690 96.4959   2
   0  -6  -8 992.670 98.8931   1
   0   6  -8 856.238 76.5848   2
   0   6   8 1132.08 105.939   1
   0  -6  -9 46954.6 679.628   1
   0   6   9 48714.4 713.225   1
   0   6  -9 46539.9 560.647   2
   0  -6  -9 46708.5 678.392   2
   0   6 -10 83.0681 41.7838   2
   0  -6  10-4.00979 28.5032   1
   0   6  10 24.0205 42.1119   1
   0  -6 -10-12.3950 47.9291   2
   0   6 -11 33252.3 545.240   2
   0  -6  11 31519.5 519.191   1
   0  -6 -11 32553.7 628.876   2
   0  -6  12 1920.90 139.801   1
   0  -6 -12 2008.71 168.557   2
   0   6 -12 1907.03 141.868   2
   0  -6  13 3737.51 200.857   1
   0  -6 -13 4076.23 246.170   2
   0   6 -13 3858.42 207.019   2
   0  -6 -14 310.420 86.1999   2
   0   6 -14 279.713 70.4281   2
   0  -6  14 328.509 70.1327   1
   0  -6 -15 17375.3 546.085   2
   0   6 -15 16047.7 458.358   2
   0   6 -16 1010.33 132.754   2
   0  -6 -16 1182.98 155.567   2
   0  -6 -17 2069.55 208.026   2
   0   6 -17 1582.79 162.273   2
   0   6 -18 46.3007 60.6685   2
   0  -6 -18-44.7631 85.5218   2
   0   6 -19-84.2201 68.6024   2
   0   6 -20 254.745 94.0388   2
   0  -8   0 8097.52 138.083   2
   0   8   0 8659.26 146.881   2
   0  -8   0 9230.58 199.850   1
   0   8   1 423.138 41.0218   2
   0  -8   1 388.733 27.1029   2
   0   8  -1 377.055 27.4899   2
   0  -8  -1 284.417 43.5689   1
   0  -8  -1 409.404 39.4641   2
   0   8   2 24835.9 323.999   2
   0  -8  -2 24517.6 365.887   1
   0  -8  -2 23821.0 311.731   2
   0   8   3 815.629 73.1897   1
   0  -8  -3 1033.36 74.7538   2
   0  -8  -3 1004.88 81.0815   1
   0   8   3 1089.91 76.3228   2
   0   8   4 5418.82 183.350   2
   0  -8  -4 5208.27 178.518   2
   0  -8  -4 5041.22 187.263   1
   0   8  -4 4455.40 83.1782   2
   0   8   4 4930.99 184.100   1
   0  -8  -5 40.6754 28.8408   2
   0  -8  -5 49.1689 40.5104   1
   0   8   5 49.5463 35.3695   2
   0   8  -5 20.0468 15.5061   2
   0   8  -5 38.8620 14.4789   2
   0   8   5 44.3804 31.0315   1
   0  -8  -6 2158.88 135.280   1
   0  -8  -6 1994.98 128.968   2
   0   8   6 2108.15 137.252   1
   0   8  -6 1979.77 80.2059   2
   0   8   6 2192.02 136.344   2
   0   8  -6 1999.54 83.2981   2
   0   8   7 1299.70 110.432   2
   0   8  -7 1132.69 72.2367   2
   0   8   7 1157.37 105.685   1
   0  -8  -7 1155.10 102.906   2
   0  -8  -7 1081.21 97.1930   1
   0   8  -7 1215.52 73.4059   2
   0  -8  -8 13480.0 364.157   1
   0   8  -8 13635.1 262.559   2
   0  -8  -8 13485.7 361.937   2
   0   8   8 13940.3 378.043   1
   0   8  -8 13639.2 267.481   2
   0   8   9 485.968 73.4042   1
   0  -8  -9 663.624 90.4703   1
   0   8  -9 587.502 62.9456   2
   0  -8  -9 545.064 80.8354   2
   0  -8 -10 3418.92 201.459   2
   0   8 -10 3201.15 153.107   2
   0  -8 -10 3378.06 201.652   1
   0  -8 -11 182.971 63.4254   2
   0  -8  11 133.156 47.7666   1
   0   8 -11 114.156 42.0691   2
   0  -8 -12 9644.53 370.551   2
   0  -8  12 9378.55 291.796   1
   0   8 -12 9401.84 293.797   2
   0  -8 -13 56.6088 56.5144   2
   0  -8  13 13.6693 34.5451   1
   0   8 -13 17.6536 38.4687   2
   0  -8 -14 4253.81 269.738   2
   0  -8  14 3670.63 201.745   1
   0   8 -14 3890.87 210.881   2
   0  -8 -15 1212.88 157.438   2
   0   8 -15 1122.95 121.411   2
   0  -8 -16 865.552 146.923   2
   0   8 -16 550.256 90.9619   2
   0  -8 -17 81.8894 67.1866   2
   0   8 -17 92.1619 54.6090   2
   0   8 -18 2765.51 212.055   2
   0 -10   0 3644.08 105.698   2
   0  10   0 4237.29 118.224   2
   0 -10   0 5586.88 180.455   1
   0 -10   1 90601.9 680.743   1
   0  10   1 95901.3 610.593   2
   0  10  -1 87986.0 445.680   2
   0 -10  -1 92815.0 589.691   2
   0 -10  -1 91387.4 728.359   1
   0 -10   1 88804.8 425.167   2
   0 -10  -2 71.4097 43.2644   1
   0 -10  -2-18.8229 25.7233   2
   0 -10   2 18.6336 8.97364   2
   0  10  -2 2.13612 7.21789   2
   0  10   2 45.6964 28.6835   2
   0 -10  -3 23694.7 413.109   1
   0 -10  -3 24010.7 368.659   2
   0  10   3 25384.5 386.075   2
   0 -10  -4 300.613 53.4158   2
   0  10   4 334.086 64.8482   1
   0  10   4 347.403 56.1866   2
   0 -10  -4 317.932 58.1256   1
   0  10   5 2376.20 140.643   2
   0  10  -5 1778.36 55.7669   2
   0 -10  -5 2273.67 132.140   2
   0  10   5 2285.88 147.012   1
   0 -10  -5 2437.96 146.540   1
   0  10  -5 1607.39 55.8752   2
   0 -10  -6 15.6422 32.1417   2
   0  10   6 14.0083 34.7840   2
   0  10  -6 31.9927 16.2727   2
   0  10   6-1.27386 32.4096   1
   0 -10  -6 10.5674 37.6866   1
   0  10  -6 19.7415 12.6877   2
   0 -10  -7 3833.60 190.807   2
   0  10   7 3582.03 193.478   1
   0  10  -7 3646.51 109.892   2
   0  10  -7 3294.46 107.018   2
   0 -10  -7 3722.71 196.503   1
   0  10   8 3079.92 186.008   1
   0 -10  -8 3244.20 186.592   1
   0  10  -8 3523.39 122.851   2
   0  10  -8 3214.40 120.614   2
   0 -10  -8 3241.85 183.377   2
   0  10  -9 18971.6 316.703   2
   0 -10  -9 20007.6 475.461   2
   0  10  -9 18561.9 317.753   2
   0 -10  -9 20128.1 490.095   1
   0  10 -10 2731.01 132.972   2
   0  10 -10 2741.14 131.376   2
   0 -10 -10 3042.44 200.337   1
   0 -10 -10 2841.53 188.038   2
   0 -10 -11 7541.62 320.470   2
   0  10 -11 7040.51 226.384   2
   0  10 -11 7198.57 224.392   2
   0 -10 -11 7418.34 324.602   1
   0  10 -12 3819.70 181.905   2
   0  10 -12 3473.90 166.304   2
   0 -10  12 3698.00 178.649   1
   0 -10 -12 4320.93 252.179   2
   0 -10  13 1294.62 113.201   1
   0  10 -13 1222.38 104.438   2
   0  10 -13 1580.15 123.656   2
   0 -10 -13 1635.38 162.177   2
   0 -10 -14 62.1861 67.4699   2
   0  10 -14 41.4068 36.4260   2
   0 -10 -15 6934.94 359.834   2
   0  10 -15 5549.31 252.491   2
   0  10 -16-32.7511 45.7896   2
   0 -10 -16 119.312 75.9614   2
   0 -12   0 72064.9 495.561   2
   0  12   0 73969.4 513.163   2
   0 -12  -1 973.065 70.2617   2
   0  12   1 1063.65 72.7646   2
   0  12  -1 944.009 51.8677   2
   0 -12  -1 1085.68 92.5666   1
   0 -12   1 868.271 47.6720   2
   0 -12   1 1332.85 95.1582   1
   0 -12   2 3140.49 70.1956   2
   0 -12  -2 4247.32 184.768   1
   0  12   2 4509.64 161.577   2
   0 -12  -2 4172.82 153.725   2
   0 -12   2 4688.04 166.958   1
   0  12   3 3351.26 151.158   2
   0 -12  -3 3288.62 146.831   2
   0 -12  -3 2967.51 157.404   1
   0 -12  -4 2129.33 139.226   1
   0  12   4 2240.62 133.542   2
   0 -12  -4 2089.08 126.709   2
   0  12   5 1027.58 97.1221   2
   0 -12  -5 1009.31 99.8951   2
   0  12   5 1045.14 108.686   1
   0 -12  -5 1009.47 105.199   1
   0  12   6 31421.2 590.659   1
   0 -12  -6 31961.6 581.246   1
   0 -12  -6 32188.9 550.222   2
   0  12  -7 826.510 41.6819   2
   0  12   7 651.127 93.5464   1
   0 -12  -7 902.100 100.574   2
   0 -12  -7 879.004 104.889   1
   0  12  -7 605.193 38.7994   2
   0  12  -8 249.528 30.1122   2
   0 -12  -8 311.034 74.1316   1
   0 -12  -8 320.254 70.5462   2
   0  12  -8 222.676 30.0930   2
   0 -12  -9-15.9145 54.8058   2
   0  12  -9 31.3684 21.3431   2
   0  12  -9-3.48630 21.1760   2
   0 -12  -9-11.7117 49.2434   1
   0 -12 -10 3129.96 214.731   1
   0  12 -10 3011.44 123.811   2
   0  12 -10 2788.82 120.171   2
   0 -12 -10 3128.13 207.061   2
   0 -12 -11 1610.79 152.172   2
   0  12 -11 1559.02 98.2777   2
   0  12 -11 1630.74 97.5410   2
   0 -12 -11 1669.41 167.579   1
   0 -12  12 2282.42 139.094   1
   0 -12 -12 2650.23 204.927   2
   0 -12 -12 2856.64 217.953   1
   0  12 -12 2334.65 131.360   2
   0 -12 -13 1149.33 144.792   2
   0  12 -13 972.750 92.4321   2
   0 -12 -14 1936.98 192.453   2
   0 -12 -15 809.227 142.488   2
   0 -12 -16 562.420 121.473   2
   0 -14   0 2718.23 101.611   2
   0 -14   0 1804.10 117.476   1
   0 -14   1 5694.98 202.681   1
   0 -14   1 5829.90 123.051   2
   0 -14  -1 6812.40 183.339   2
   0 -14  -1 6170.82 232.143   1
   0 -14  -2 89.3612 33.4964   2
   0 -14  -2-12.6965 36.7046   1
   0 -14   2 5.54619 27.9181   1
   0 -14   3 12473.4 289.959   1
   0 -14  -3 13712.8 312.681   2
   0 -14  -3 12949.4 355.981   1
   0 -14  -4 512.491 80.4806   1
   0 -14  -4 458.144 69.0694   2
   0 -14  -5 3806.91 209.675   1
   0 -14  -5 3923.12 192.841   2
   0 -14  -6 253.140 69.5075   1
   0 -14  -6 337.615 70.3947   2
   0 -14  -7 1810.54 155.149   1
   0 -14  -7 1763.03 147.042   2
   0 -14  -8 480.193 81.6318   2
   0 -14  -8 462.759 95.0176   1
   0 -14  -9 4306.34 243.065   2
   0 -14  -9 4425.04 257.302   1
   0 -14 -10 1355.78 144.672   2
   0 -14 -10 1286.17 146.922   1
   0  14 -10 906.497 55.2318   2
   0 -14 -11 6424.42 330.351   1
   0 -14 -11 6228.60 315.275   2
   0 -14 -12 479.059 108.266   1
   0 -14 -12 423.482 99.3141   2
   0 -14 -13 1798.17 184.387   2
   0 -14 -14 121.855 69.2718   2
   0 -14 -15 751.474 135.895   2
   0 -16   0 15036.4 245.945   2
   0 -16   0 14215.7 360.246   1
   0 -16   1 2914.32 155.232   1
   0 -16  -1 3014.62 127.986   2
   0 -16   1 2497.72 82.3134   2
   0 -16  -1 2900.85 168.095   1
   0 -16  -2 2294.01 124.036   2
   0 -16  -2 2178.80 152.459   1
   0 -16   2 2287.62 134.516   1
   0 -16  -3 17.5545 34.4733   2
   0 -16  -3 94.6587 48.6548   1
   0 -16   3-17.1490 30.9945   1
   0 -16  -4 64.2312 39.6033   2
   0 -16  -4 46.1437 42.3510   1
   0 -16   4 34.1163 28.1624   1
   0 -16  -5 480.992 74.2218   2
   0 -16   5 490.067 63.1278   1
   0 -16  -5 524.268 93.5319   1
   0 -16  -6 8475.71 313.925   2
   0 -16  -6 7781.75 326.038   1
   0 -16  -7 1304.35 142.344   1
   0 -16  -7 1291.69 131.565   2
   0 -16  -8 4607.76 251.020   2
   0 -16  -8 4337.02 263.362   1
   0 -16  -9 492.392 89.7046   2
   0 -16  -9 394.373 97.3951   1
   0 -16 -10-15.3170 49.5181   2
   0 -16 -10 39.1671 53.9178   1
   0 -16 -11 713.870 116.786   2
   0 -16 -11 617.735 110.201   1
   0 -16 -12 6572.24 345.185   2
   0 -16 -12 6434.15 357.117   1
   0 -16 -13 585.716 118.129   2
   0 -16 -14 1608.25 187.389   2
   0 -18   0 6493.61 158.058   2
   0 -18   0 5519.00 233.983   1
   0 -18  -1 749.911 93.0242   1
   0 -18  -1 956.861 74.0222   2
   0 -18   1 571.617 35.8472   2
   0 -18   1 756.835 88.5368   1
   0 -18   2 24.3970 34.1003   1
   0 -18  -2 69.5393 49.1428   1
   0 -18  -2 4.10287 31.1529   2
   0 -18  -3 4279.53 231.087   1
   0 -18   3 3914.86 180.571   1
   0 -18  -3 4862.52 202.819   2
   0 -18  -4 77.7223 45.8207   2
   0 -18   4-20.9427 32.0242   1
   0 -18  -4 71.4566 64.2545   1
   0 -18  -5 86.9655 56.1641   1
   0 -18   5 51.7259 28.3286   1
   0 -18  -5 96.6360 47.4145   2
   0 -18  -6 4984.81 273.093   1
   0 -18   6 4167.75 169.165   1
   0 -18  -6 5836.69 267.480   2
   0 -18   7 1.38184 35.1516   1
   0 -18  -7 27.1722 62.6220   1
   0 -18  -7 72.6413 52.3440   2
   0 -18  -8 460.612 91.1149   2
   0 -18  -8 374.305 94.0976   1
   0 -18  -9 7128.71 340.591   2
   0 -18  -9 6559.93 347.463   1
   0 -18 -10 668.568 120.140   1
   0 -18 -10 733.310 119.324   2
   0 -18 -11 1882.15 190.742   2
   0 -18 -11 1758.83 203.093   1
   0 -18 -12 2172.81 208.924   2
   0 -18 -13 624.412 122.498   2
   0 -20   0 2151.82 157.678   1
   0 -20  -1 38.7877 50.2460   1
   0 -20   1 1.69429 39.2418   1
   0 -20  -2 1287.00 136.569   1
   0 -20   2 1264.61 111.293   1
   0 -20   3 479.517 70.8267   1
   0 -20  -3 583.548 95.6000   1
   0 -20  -3 819.552 86.1906   2
   0 -20  -4 3279.60 183.215   2
   0 -20  -4 2886.96 207.228   1
   0 -20  -5 118.971 67.3731   1
   0 -20  -5 48.1238 43.2748   2
   0 -20  -6 2797.92 218.583   1
   0 -20  -6 3308.89 215.422   2
   0 -20  -7 1859.84 168.288   2
   0 -20  -7 1485.38 165.107   1
   0 -20  -8 1987.06 182.533   2
   0 -20  -8 1592.32 179.832   1
   0 -20  -9 1579.05 178.354   1
   0 -20  -9 1850.05 182.003   2
   0 -20 -10 2730.01 248.489   1
   0 -20 -10 2839.96 230.308   2
   0 -20 -11 22.1149 72.4544   2
   0 -20 -12 2331.32 225.768   2
   0 -22   0 1576.75 142.142   1
   0 -22  -1 1494.62 142.173   1
   0 -22  -2 1136.16 130.726   1
   0 -22  -3 2941.54 212.265   1
   0 -22  -4-73.4601 71.8623   1
   0 -22  -5 113.423 59.9411   1
   0 -22  -6 1085.20 150.061   1
   0 -22  -7 1973.46 196.524   1
   0 -22  -8 760.986 161.367   1
   0 -22  -9 449.964 126.134   1
   0 -24  -5-23.2397 68.3489   1
   0 -24  -6 2054.83 204.300   1
   0 -24  -7-69.7934 80.5404   1
   1  -1 -19 4635.29 315.607   2
   1   1 -19 4512.38 306.348   2
   1  -1 -18 40.3034 56.4061   2
   1   1 -18 44.5358 66.9315   2
   1  -1 -17 3056.06 234.808   2
   1   1 -17 3133.02 236.534   2
   1  -1 -16 3252.86 237.642   2
   1   1 -16 2955.71 222.095   2
   1  -1 -15 722.325 114.066   2
   1   1 -15 852.786 121.747   2
   1  -1 -14 2946.23 205.807   2
   1   1 -14 2900.06 198.382   2
   1  -1 -13 6853.18 298.506   2
   1   1 -13 6986.53 295.231   2
  -1  -1  13 7076.74 290.275   1
   1  -1 -12 1686.03 144.917   2
  -1  -1  12 1630.78 138.611   1
  -1   1  12 1645.85 143.631   1
   1   1 -12 1560.60 137.994   2
  -1  -1  11 777.329 94.5072   1
   1  -1 -11 684.859 93.2802   2
   1   1 -11 702.533 97.5999   2
  -1   1  11 773.312 97.3390   1
  -1  -1  10 1268.84 110.842   1
   1   1 -10 1254.98 115.449   2
  -1   1  10 1335.60 110.845   1
   1  -1 -10 1332.86 116.888   2
  -1   1   9 11.2578 32.8075   1
   1   1  -9-10.0055 33.2235   2
  -1  -1   9-39.5904 37.7941   1
   1  -1  -9 54.8296 40.3591   2
   1   1  -8 19072.4 362.439   2
  -1   1   8 18888.7 361.937   1
   1  -1  -8 18644.6 367.612   2
  -1  -1   8 18072.6 334.825   1
   1  -1  -7 15169.5 296.369   1
  -1   1   7 15967.6 310.037   1
   1  -1  -7 15515.9 318.493   2
  -1  -1   7 14924.0 282.790   1
   1   1  -7 15278.9 306.161   2
   1  -1  -6 80.9860 40.2016   2
   1   1  -6 59.8721 32.2540   2
  -1  -1   6 28.3266 24.7600   1
   1  -1  -6 86.9641 38.3525   1
  -1   1   6 57.8873 33.0041   1
  -1  -1   5 8580.92 177.761   1
   1  -1  -5 8446.36 189.795   1
   1  -1  -5 8757.92 203.801   2
  -1   1   5 8772.22 194.114   1
   1  -1  -4 9981.31 178.694   1
  -1   1   4 9935.20 184.304   1
  -1  -1   4 9204.89 158.898   1
   1   1  -3 5401.57 99.6514   1
  -1  -1   3 5728.77 101.172   1
   1  -1  -3 5964.70 126.933   1
  -1   1   3 6147.35 127.665   1
  -1   1  -2 106042. 436.811   2
   1   1   2 106416. 503.388   2
   1  -1   2 104605. 443.426   2
   1   1   3 26451.2 293.239   2
  -1  -1  -3 26786.5 293.911   2
   1   1   3 25921.7 292.310   1
   1  -1   3 26358.6 270.291   2
  -1   1  -3 25514.4 266.694   2
  -1   1  -4 56327.9 451.146   2
   1   1   4 55556.8 480.966   2
   1   1   4 56741.3 483.439   1
   1  -1   4 55124.5 445.566   2
  -1  -1  -4 56028.7 485.218   2
  -1  -1  -5 24703.0 355.659   2
   1   1   5 24501.8 349.900   1
   1   1   5 23500.6 342.797   2
   1  -1   5 23812.5 329.117   2
  -1   1  -5 25183.7 340.957   2
   1   1   6 998.451 81.8032   1
   1   1   6 909.628 76.6094   2
   1  -1   6 712.342 68.7679   2
  -1   1  -6 858.468 74.3892   2
  -1  -1  -6 969.578 81.8666   2
   1   1   7 47691.6 584.360   2
   1   1   7 48511.1 583.890   1
  -1  -1  -7 47548.3 576.891   2
  -1   1  -7 47679.2 556.673   2
   1  -1   7 48243.5 565.905   1
   1   1   8 11167.0 298.698   1
   1   1   8 10697.5 293.922   2
  -1  -1  -8 10859.9 297.170   2
   1  -1   8 10794.9 285.212   1
  -1   1  -8 10851.6 286.647   2
  -1   1  -9 82.9166 39.7546   2
   1   1   9 101.312 49.4177   1
  -1  -1  -9-34.2959 40.7026   2
   1  -1   9 36.8149 36.4335   1
  -1  -1 -10 12634.2 358.878   2
  -1   1 -10 12470.2 348.013   2
   1  -1  10 13208.7 355.506   1
   1   1  10 13086.1 368.986   1
   1   1  11 6907.36 278.313   1
   1  -1  11 6915.90 275.326   1
  -1   1 -11 6946.92 275.585   2
  -1  -1 -11 7215.50 284.820   2
  -1   1 -12 1190.42 124.807   2
  -1  -1 -12 1216.03 127.431   2
   1  -1  12 1331.15 134.917   1
  -1  -1 -13 3247.21 213.114   2
  -1   1 -13 3271.60 203.977   2
  -1  -1 -14 899.902 124.535   2
  -1   1 -14 936.024 120.581   2
  -1  -1 -15 136.273 65.4502   2
  -1   1 -15 254.796 83.4085   2
  -1   1 -16 1749.02 180.009   2
  -1  -1 -16 1845.14 188.554   2
  -1  -1 -17 916.315 141.473   2
  -1   1 -17 880.661 134.895   2
  -1   1 -18 261.020 82.4154   2
  -1  -1 -18 410.257 100.075   2
  -1   1 -19 1316.62 173.166   2
   1   3 -20 157.513 83.7897   2
   1  -3 -19 3480.01 272.081   2
   1   3 -19 3061.23 241.927   2
   1  -3 -18 170.289 78.8757   2
   1   3 -18 265.097 85.3404   2
   1  -3 -17 3881.08 270.818   2
   1   3 -17 3347.75 240.504   2
   1  -3 -16 6589.45 335.158   2
   1   3 -16 6055.88 305.106   2
   1  -3 -15 504.596 99.7984   2
   1   3 -15 547.742 98.9773   2
   1  -3 -14 5355.06 280.121   2
   1   3 -14 5247.98 260.078   2
  -1  -3  14 5015.52 250.307   1
   1   3 -13 3657.32 206.741   2
  -1  -3  13 3509.64 199.908   1
   1  -3 -13 3684.00 222.037   2
   1   3 -12 2890.64 178.636   2
   1  -3 -12 3030.66 193.245   2
  -1   3  12 3140.11 199.699   1
  -1  -3  12 2997.18 176.259   1
   1   3 -11 4693.14 216.521   2
   1  -3 -11 4977.24 231.862   2
  -1   3  11 4755.47 229.723   1
  -1  -3  11 4713.31 204.187   1
   1   3 -10 14401.9 350.078   2
   1  -3 -10 14353.8 376.498   2
  -1  -3  10 14797.6 339.989   1
  -1   3  10 14720.0 378.120   1
  -1   3   9 1338.62 114.353   1
  -1  -3   9 1263.86 94.6514   1
   1   3  -9 1263.93 102.527   2
   1  -3  -9 1208.60 111.715   2
   1  -3  -9 1334.64 110.799   1
  -1  -3   8 5962.28 184.591   1
   1   3  -8 5919.39 198.224   2
  -1   3   8 6145.32 218.154   1
   1  -3  -8 5968.79 208.346   1
   1  -3  -8 6205.47 224.808   2
  -1  -3   7 3267.21 130.675   1
   1  -3  -7 3598.38 155.919   1
   1   3  -7 3746.72 148.345   2
   1  -3  -7 3576.58 159.846   2
  -1   3   7 3672.19 163.131   1
  -1   3   6 697.660 70.9981   1
  -1  -3   6 879.626 64.3937   1
   1  -3  -6 648.985 69.7075   1
   1  -3  -6 641.171 67.0184   2
  -1   3   5 280.480 45.4896   1
   1  -3  -5 402.997 56.7825   2
  -1  -3   5 301.290 36.3405   1
   1  -3  -5 331.049 50.0952   1
   1  -3  -4 57175.7 486.857   1
  -1   3   4 58707.1 492.871   1
   1  -3  -4 57463.3 480.468   2
   1  -3  -3 53926.6 433.429   1
   1   3  -3 50999.8 319.464   2
  -1   3   3 54668.4 430.811   1
   1  -3  -3 53833.6 408.406   2
  -1   3   2 38181.8 328.971   1
  -1  -3   2 38256.4 233.527   2
   1   3  -2 37508.5 229.523   2
   1  -3  -2 39630.4 296.701   2
   1  -3  -2 38641.4 328.219   1
  -1  -3   1 90129.2 328.847   2
   1   3   0 53071.4 289.633   2
   1   3   0 51460.7 281.079   1
  -1  -3   0 53181.1 279.727   1
  -1  -3  -1 24046.0 234.801   2
  -1  -3  -1 24758.3 236.978   1
   1   3   1 24506.6 234.010   2
   1   3   2 232.759 36.5439   2
  -1  -3  -2 230.148 39.4043   2
  -1   3  -2 193.537 22.4595   2
   1  -3   2 204.734 22.3063   2
  -1  -3  -2 237.691 40.1786   1
   1   3   2 227.941 37.2982   1
  -1  -3  -3 14987.6 239.642   2
  -1  -3  -3 14923.0 241.446   1
   1   3   3 14973.4 238.482   2
  -1   3  -3 14420.0 177.229   2
   1   3   3 14403.6 237.524   1
   1  -3   3 13773.6 173.143   2
   1   3   4 11679.8 238.138   1
   1   3   4 11695.6 237.276   2
  -1  -3  -4 11786.7 236.322   1
  -1  -3  -4 11461.8 238.082   2
  -1   3  -4 11653.0 194.258   2
   1   3   5 42798.7 490.118   1
  -1   3  -5 42078.8 415.566   2
   1   3   5 42175.0 488.767   2
  -1  -3  -5 41582.8 486.510   2
   1   3   6 13706.4 297.672   1
  -1   3  -6 14192.4 268.178   2
  -1  -3  -6 13394.9 302.937   2
   1   3   6 13825.5 302.309   2
   1   3   7 63077.9 681.460   1
   1   3   7 61074.4 681.669   2
  -1  -3  -7 61616.7 677.827   2
  -1   3  -7 62350.8 609.303   2
  -1   3  -8 427.836 61.1992   2
   1   3   8 320.316 59.6630   2
  -1  -3  -8 358.510 63.8214   2
   1   3   8 421.501 67.1947   1
  -1   3  -9 417.266 67.6194   2
   1  -3   9 321.576 59.1962   1
  -1  -3  -9 457.508 77.5082   2
   1   3   9 416.458 73.9939   1
  -1  -3 -10 15908.3 411.465   2
   1  -3  10 15138.1 375.463   1
   1   3  10 15953.4 417.795   1
  -1   3 -10 15714.6 378.851   2
  -1  -3 -11 10895.1 356.995   2
   1  -3  11 11120.6 334.432   1
  -1   3 -11 11012.5 337.339   2
   1   3  11 11540.5 374.905   1
  -1   3 -12 236.041 62.8037   2
   1  -3  12 274.456 63.9723   1
  -1  -3 -12 346.723 77.6037   2
  -1   3 -13 1136.41 126.746   2
  -1  -3 -13 881.563 123.865   2
  -1   3 -14 1129.95 133.487   2
  -1  -3 -14 1193.70 139.993   2
  -1   3 -15 435.617 98.4902   2
  -1  -3 -15 379.734 93.4049   2
  -1   3 -16 7251.89 342.343   2
  -1  -3 -16 7718.75 373.435   2
  -1  -3 -17 51.8472 71.9125   2
  -1   3 -17 34.7544 60.5802   2
  -1   3 -18 66.2745 75.9831   2
  -1  -3 -18 23.4260 71.7033   2
  -1   3 -19 542.411 115.621   2
   1   5 -20 407.491 109.294   2
   1   5 -19 1445.52 170.592   2
   1  -5 -18 44.0296 58.1498   2
   1   5 -18 26.4081 51.4229   2
   1  -5 -17 1159.83 159.943   2
   1   5 -17 913.213 125.650   2
   1   5 -16 4981.08 269.969   2
   1  -5 -16 5135.50 302.126   2
   1  -5 -15 525.658 111.180   2
   1   5 -15 414.539 86.3215   2
   1   5 -14 7077.51 296.749   2
  -1  -5  14 7359.53 290.944   1
   1  -5 -14 7414.46 337.359   2
  -1  -5  13 6671.96 263.601   1
   1  -5 -13 7103.02 313.096   2
   1   5 -13 6696.89 269.336   2
  -1  -5  12 6052.27 238.394   1
   1   5 -12 5854.18 243.520   2
   1  -5 -12 5878.27 279.386   2
  -1   5  11 9291.79 329.632   1
  -1  -5  11 8876.88 269.560   1
   1   5 -11 8978.31 284.614   2
   1  -5 -11 9294.38 325.821   2
   1  -5 -11 8929.48 310.123   1
  -1  -5  10 4543.96 181.656   1
   1  -5 -10 4311.80 208.886   1
  -1   5  10 4774.06 226.785   1
   1  -5 -10 4628.45 222.669   2
   1   5 -10 4441.44 188.057   2
   1  -5  -9 6485.62 242.531   1
   1  -5  -9 6637.87 249.014   2
  -1   5   9 6891.86 258.777   1
   1   5  -9 6716.56 216.970   2
  -1  -5   9 6645.78 203.863   1
   1   5  -8 46.3566 32.9119   2
   1  -5  -8 70.8160 44.4735   1
  -1  -5   8 68.1157 32.2004   1
  -1   5   8 80.7547 46.1603   1
   1  -5  -8 45.2208 40.7929   2
   1  -5  -7 17408.3 357.090   1
   1  -5  -7 17724.4 360.147   2
  -1   5   7 17819.6 366.010   1
   1  -5  -6 4530.38 171.146   2
   1  -5  -6 4516.62 173.924   1
  -1   5   6 4640.45 178.601   1
   1  -5  -5 24418.2 374.257   1
  -1   5   5 24864.5 380.923   1
   1  -5  -5 25430.4 373.364   2
  -1   5   4 119929. 787.977   1
   1  -5  -4 117688. 724.351   2
   1   5  -4 114637. 538.464   2
   1  -5  -4 118123. 766.036   1
   1   5  -3 10929.4 140.254   2
  -1   5   3 10147.8 216.425   1
   1  -5  -3 11146.4 201.291   2
  -1  -5   3 11219.1 147.362   2
   1  -5  -3 10497.8 214.665   1
   1  -5  -2 64.9564 33.5798   1
  -1  -5   2 55.8771 17.0193   2
   1   5  -2 64.9576 16.6021   2
   1  -5  -2 75.2984 28.0757   2
  -1  -5   1 8989.59 127.222   1
   1  -5  -1 9503.49 135.321   2
  -1  -5   1 9571.45 126.228   2
   1   5  -1 9892.50 131.193   2
  -1  -5   0 2884.51 84.5987   1
   1   5   0 2417.41 80.8822   1
  -1  -5   0 3026.53 81.9245   2
   1   5   0 2859.16 80.4083   2
   1   5   1 26947.9 278.218   2
  -1  -5  -1 26054.5 276.159   2
  -1  -5  -2 7467.17 170.226   2
  -1  -5  -2 7843.96 178.295   1
   1   5   2 7617.37 169.186   2
   1   5   2 7567.88 173.657   1
  -1   5  -3 28190.0 208.704   2
  -1  -5  -3 30704.9 380.192   1
   1   5   3 29988.5 370.476   1
  -1  -5  -3 30041.7 367.722   2
   1   5   3 30297.1 374.851   2
  -1  -5  -4 13209.9 267.536   2
  -1   5  -4 13111.2 182.052   2
   1   5   4 13944.4 275.705   1
   1   5   4 13745.4 275.522   2
  -1  -5  -4 13840.1 277.323   1
  -1  -5  -5 621.717 75.0121   2
   1   5   5 783.097 79.6226   1
   1   5   5 700.327 75.5583   2
  -1  -5  -5 612.777 72.6133   1
  -1   5  -5 362.680 40.2800   2
   1   5   6 1762.71 118.129   2
   1   5   6 1980.55 124.717   1
  -1   5  -6 1837.33 93.6101   2
  -1  -5  -6 1724.42 120.456   2
  -1  -5  -6 1826.92 120.578   1
  -1   5  -7 12794.1 261.711   2
   1   5   7 12615.8 322.833   2
   1   5   7 12613.8 322.146   1
  -1  -5  -7 12138.4 317.942   2
   1   5   8 5945.13 238.565   2
  -1   5  -8 5802.54 194.067   2
   1   5   8 6315.98 241.360   1
  -1  -5  -8 5759.25 232.587   2
   1   5   9 3649.13 196.640   2
  -1   5  -9 3620.88 166.737   2
  -1  -5  -9 3564.41 191.837   2
   1   5   9 3893.94 200.527   1
  -1   5 -10 19009.4 401.018   2
   1   5  10 20051.5 476.659   1
  -1  -5 -10 18562.9 459.801   2
  -1   5 -11 5747.36 235.392   2
  -1  -5 -11 5758.19 267.729   2
   1  -5  11 5637.00 234.071   1
  -1  -5 -12 4044.15 233.463   2
   1  -5  12 3921.59 210.064   1
  -1   5 -12 4091.84 211.011   2
  -1  -5 -13 7899.27 344.575   2
   1  -5  13 8147.74 310.306   1
  -1   5 -13 7699.16 301.955   2
  -1   5 -14 6559.02 289.429   2
  -1  -5 -14 6913.21 335.917   2
  -1  -5 -15 45.0723 58.9077   2
  -1   5 -15 19.1210 49.0847   2
  -1  -5 -16 753.813 136.261   2
  -1   5 -16 672.934 118.493   2
  -1  -5 -17 2460.52 233.319   2
  -1   5 -17 2033.66 187.046   2
  -1   5 -18 199.851 91.4127   2
  -1   5 -19 1162.57 154.889   2
  -1   5 -20 251.829 89.2457   2
   1   7 -20 70.6169 56.8498   2
   1   7 -19 464.802 103.134   2
   1   7 -18 96.5861 64.4868   2
   1  -7 -18 113.563 72.6687   2
   1  -7 -17 3181.18 252.034   2
   1   7 -17 2701.32 201.449   2
   1   7 -16 2275.35 179.103   2
   1  -7 -16 2654.48 225.323   2
  -1  -7  15 1027.31 115.312   1
   1  -7 -15 1107.72 149.712   2
   1   7 -15 1040.97 117.736   2
   1   7 -14 5737.26 256.381   2
   1  -7 -14 6057.69 313.236   2
  -1  -7  14 5720.23 245.143   1
   1  -7 -13 2384.11 190.181   2
  -1  -7  13 2402.36 153.562   1
   1   7 -13 2577.27 170.856   2
   1   7 -12 6057.95 240.512   2
   1  -7 -12 6284.39 292.063   2
  -1  -7  12 6468.45 234.626   1
   1  -7 -12 6054.55 279.963   1
   1   7 -11 4911.97 203.774   2
  -1  -7  11 4907.62 192.885   1
   1  -7 -11 5181.08 250.814   2
   1  -7 -11 4977.02 243.690   1
   1  -7 -10 30607.8 573.376   2
  -1   7  10 30336.7 588.946   1
   1  -7 -10 29350.3 564.051   1
   1   7 -10 29065.8 459.218   2
  -1  -7  10 29596.7 441.508   1
  -1   7   9 3390.96 190.064   1
   1  -7  -9 3080.71 177.032   2
  -1  -7   9 3060.69 133.872   1
   1  -7  -9 3160.48 180.927   1
   1   7  -9 3059.85 141.334   2
   1  -7  -8 20023.7 429.142   1
   1   7  -8 20078.2 334.578   2
   1   7  -8 20360.8 332.852   2
  -1   7   8 20275.0 436.293   1
   1  -7  -8 20953.0 430.368   2
  -1   7   7 15780.7 365.693   1
   1  -7  -7 14665.0 346.224   1
   1   7  -7 14414.0 256.508   2
   1  -7  -7 14526.9 338.891   2
   1  -7  -6 1062.69 90.7809   2
   1   7  -6 1029.98 61.9871   2
  -1   7   6 1179.05 98.8502   1
   1  -7  -6 1148.26 98.6234   1
   1   7  -5 5836.68 128.336   2
   1  -7  -5 6208.70 199.358   2
   1  -7  -5 6432.69 214.308   1
  -1   7   5 6696.29 215.807   1
   1   7  -4 50827.7 336.251   2
  -1   7   4 50184.7 566.867   1
   1  -7  -4 51287.6 559.240   1
   1  -7  -4 51353.1 517.857   2
   1   7  -3 21468.2 200.282   2
   1  -7  -3 22351.5 351.450   1
  -1  -7   3 21807.9 209.011   2
   1  -7  -3 22365.7 308.172   2
  -1  -7   2 894.324 43.5167   2
   1   7  -2 898.575 43.2039   2
   1  -7  -2 935.619 59.8415   2
   1  -7  -2 986.550 72.8484   1
   1  -7  -1 15736.2 272.585   1
  -1  -7   1 16759.0 190.445   2
   1   7  -1 16576.0 193.958   2
  -1  -7   1 15259.0 208.774   1
   1  -7  -1 16483.7 200.188   2
  -1  -7   0 1281.23 70.9190   1
  -1  -7   0 1338.54 62.7389   2
   1   7   0 1354.46 63.7265   2
   1  -7   0 1129.54 41.5577   2
   1   7   1 9836.93 189.993   2
  -1  -7  -1 9489.84 184.769   2
   1   7   1 10751.1 213.632   1
  -1  -7  -1 10127.2 208.493   1
   1   7   2 19174.7 292.725   2
  -1  -7  -2 18847.5 284.696   2
   1   7   2 17379.2 290.842   1
  -1  -7  -2 18596.9 302.394   1
   1   7   3 240.058 47.8530   1
   1   7   3 191.500 43.4770   2
  -1  -7  -3 156.824 39.2450   2
  -1  -7  -3 208.003 46.9239   1
  -1   7  -4 95.8572 16.7496   2
  -1  -7  -4 94.0223 39.1079   1
  -1  -7  -4 100.658 39.8529   2
   1   7   4 123.910 42.6962   2
  -1   7  -4 106.120 18.5083   2
   1   7   4 126.874 39.5499   1
  -1  -7  -5 1009.73 84.5095   2
   1   7   5 1023.69 89.3724   1
  -1  -7  -5 1138.45 94.1942   1
   1   7   5 1057.37 88.3283   2
  -1   7  -5 1093.13 55.8600   2
  -1   7  -6 6618.09 156.768   2
   1   7   6 6872.42 234.581   2
  -1  -7  -6 6287.30 225.243   2
  -1  -7  -6 6480.01 228.771   1
   1   7   6 6472.43 230.294   1
   1   7   7 13440.3 349.745   2
  -1  -7  -7 13018.6 343.656   1
  -1  -7  -7 13095.7 338.877   2
  -1   7  -7 13204.5 250.116   2
   1   7   7 13879.6 352.565   1
  -1  -7  -8 8778.77 289.802   2
   1   7   8 8968.10 304.644   2
   1   7   8 8807.69 294.588   1
  -1  -7  -8 8461.90 285.128   1
  -1   7  -8 8577.02 221.859   2
   1   7   9 853.315 98.1983   1
  -1   7  -9 793.846 77.7852   2
  -1  -7  -9 765.124 97.4413   2
   1   7   9 782.470 101.445   2
  -1   7 -10 20417.7 398.505   2
  -1  -7 -10 20296.8 486.277   2
  -1   7 -11 5003.32 210.197   2
  -1  -7 -11 5227.49 258.302   2
  -1  -7 -12 1155.87 130.222   2
  -1   7 -12 1067.38 112.261   2
   1  -7  12 1109.35 109.968   1
  -1  -7 -13 138.524 65.6636   2
  -1   7 -13 142.540 53.7707   2
   1  -7  13 7.80138 46.3664   1
  -1  -7 -14 8542.93 376.241   2
  -1   7 -14 7794.85 304.718   2
  -1   7 -15 248.399 71.8930   2
  -1  -7 -15 377.557 95.2344   2
  -1  -7 -16 2819.86 237.505   2
  -1   7 -16 2533.48 193.652   2
  -1  -7 -17 1758.38 202.283   2
  -1   7 -17 1259.28 141.506   2
  -1   7 -18 832.389 124.243   2
  -1   7 -19-13.0941 61.9022   2
   1   9 -18 36.8663 52.1439   2
   1   9 -17 1692.70 156.984   2
   1  -9 -17 2045.00 208.668   2
   1   9 -16 1200.68 128.232   2
   1  -9 -16 1683.69 190.957   2
   1   9 -15 38.2950 40.0180   2
   1  -9 -15 153.756 78.7273   2
   1   9 -14 353.645 63.5446   2
  -1  -9  14 451.159 71.6259   1
   1   9 -14 442.437 71.8615   2
   1  -9 -14 399.637 98.3989   2
   1   9 -13 84.2003 35.9628   2
   1   9 -13 137.339 46.4215   2
   1  -9 -13 167.206 65.4808   2
  -1  -9  13 130.035 47.2059   1
   1  -9 -12 5323.77 273.111   1
   1  -9 -12 5003.94 266.817   2
   1   9 -12 4755.73 200.309   2
  -1  -9  12 5047.04 199.998   1
   1   9 -12 4698.44 205.254   2
   1   9 -11 16775.3 359.204   2
   1  -9 -11 17860.5 479.633   1
   1   9 -11 16947.0 358.650   2
   1  -9 -11 18535.1 483.786   2
  -1  -9  11 16944.2 343.843   1
   1  -9 -10 10325.0 348.028   2
   1  -9 -10 10226.9 348.473   1
   1   9 -10 9994.53 262.461   2
  -1  -9  10 9842.35 246.554   1
   1   9 -10 9728.62 259.211   2
   1  -9  -9 142.574 52.6247   2
  -1   9   9 82.8039 44.9703   1
   1  -9  -9 93.9125 47.1574   1
   1   9  -9 124.715 34.2236   2
   1   9  -9 136.647 34.9781   2
   1  -9  -8 753.675 95.5177   1
   1   9  -8 620.042 60.4568   2
   1  -9  -8 659.357 86.8509   2
  -1   9   8 843.895 98.7166   1
   1   9  -8 638.117 61.0044   2
   1  -9  -7 6379.07 234.120   2
   1   9  -7 6249.86 156.279   2
  -1   9   7 6248.88 241.648   1
   1  -9  -7 6303.90 242.554   1
  -1   9   6 1082.47 102.510   1
   1   9  -6 1043.65 58.4111   2
   1  -9  -6 1209.59 100.018   2
   1  -9  -6 1216.11 106.060   1
   1  -9  -5 2049.53 120.340   2
  -1   9   5 1673.17 117.586   1
   1   9  -5 1937.84 69.3572   2
   1  -9  -5 1893.08 123.644   1
   1  -9  -4 14048.5 286.509   2
   1   9  -4 13296.3 168.611   2
   1  -9  -4 14311.1 331.803   1
   1  -9  -3 9242.75 213.316   2
   1   9  -3 8472.10 131.601   2
   1  -9  -3 9255.59 247.303   1
  -1  -9   3 8708.83 136.412   2
   1  -9  -2 38442.6 486.338   1
   1  -9  -2 35584.1 374.814   2
  -1  -9   2 35065.0 277.404   2
   1   9  -2 34364.7 281.377   2
  -1  -9   2 37743.3 362.041   1
   1   9  -1 22252.4 249.798   2
   1  -9  -1 19958.2 340.040   1
  -1  -9   1 22901.7 249.135   2
   1  -9  -1 21861.0 252.849   2
  -1  -9   1 21080.6 286.760   1
   1   9   0 3131.83 106.548   2
  -1  -9   0 3046.00 121.721   1
   1  -9   0 2645.91 73.3796   2
  -1  -9   0 3030.60 102.790   2
  -1  -9  -1 36615.8 391.265   2
   1   9   1 37380.5 399.284   2
   1   9   2 17943.2 306.818   2
   1   9   2 18660.2 337.431   1
  -1  -9  -2 17454.5 301.642   2
  -1  -9  -2 18137.6 329.079   1
  -1  -9  -3 110.766 35.3091   2
  -1  -9  -3 214.723 48.1138   1
   1   9   3 170.851 38.3612   2
   1   9   3 229.989 59.3786   1
  -1  -9  -4 5141.93 187.753   2
   1   9   4 5336.36 200.320   1
  -1  -9  -4 5441.31 204.406   1
   1   9   4 5426.17 198.172   2
  -1  -9  -5 12708.9 324.542   1
  -1   9  -5 11658.0 146.056   2
   1   9   5 12367.3 316.311   1
   1   9   5 13204.2 319.759   2
  -1  -9  -5 13061.7 320.032   2
  -1   9  -6 57.8032 19.8427   2
   1   9   6 27.1181 36.6527   1
  -1  -9  -6 19.7353 35.5783   1
   1   9   6-2.31706 34.5271   2
  -1  -9  -6 2.43158 33.9483   2
  -1   9  -6 23.3795 18.0241   2
  -1  -9  -7 27526.6 509.325   2
  -1   9  -7 27316.6 322.234   2
  -1  -9  -7 28073.4 525.108   1
  -1   9  -7 27821.9 323.712   2
   1   9   7 27023.3 517.660   1
   1   9   7 29053.2 537.864   2
  -1   9  -8 242.316 41.4683   2
  -1  -9  -8 292.292 63.7258   2
   1   9   8 249.269 62.0746   2
  -1  -9  -8 225.826 65.2500   1
   1   9   8 308.084 68.7538   1
  -1  -9  -9 1211.27 118.198   2
  -1   9  -9 1332.60 92.2729   2
  -1  -9  -9 1281.35 120.584   1
  -1   9 -10 5845.72 202.636   2
  -1  -9 -10 6065.92 277.756   2
  -1  -9 -11 45.6698 54.4852   2
  -1   9 -11 66.7537 43.3642   2
  -1  -9 -12 867.578 118.334   2
  -1   9 -12 694.573 81.8414   2
   1  -9  13 5025.96 232.555   1
  -1  -9 -13 5483.32 298.053   2
  -1   9 -13 5091.47 226.327   2
  -1   9 -14 506.964 82.9799   2
  -1  -9 -14 655.768 117.046   2
  -1  -9 -15 86.5127 64.4696   2
  -1   9 -15 7.37622 38.7921   2
  -1   9 -16 1192.51 132.234   2
  -1  -9 -16 1252.58 166.193   2
  -1   9 -17 309.751 72.3638   2
   1 -11 -16 6099.66 347.800   2
   1  11 -16 5008.39 240.809   2
   1 -11 -15 415.616 100.298   2
   1  11 -15 354.300 69.4536   2
   1  11 -14 2779.44 164.875   2
   1 -11 -14 3182.90 239.381   2
   1  11 -13 1810.40 128.045   2
   1 -11 -13 2158.60 194.245   1
   1  11 -13 1767.64 122.849   2
  -1 -11  13 2047.60 132.955   1
   1 -11 -13 2044.16 183.198   2
   1 -11 -12 2724.99 200.784   2
   1  11 -12 2555.40 145.793   2
   1 -11 -12 2905.38 212.619   1
   1  11 -12 2591.92 144.745   2
  -1 -11  12 2558.09 137.962   1
   1 -11 -11 1016.11 128.931   1
   1  11 -11 977.670 83.3543   2
   1  11 -11 1007.09 86.2563   2
   1 -11 -11 968.108 117.859   2
  -1 -11  11 1040.70 85.5643   1
   1 -11 -10 281.830 71.7229   1
   1  11 -10 322.573 48.8277   2
   1 -11 -10 357.780 75.6871   2
   1  11 -10 309.253 49.2572   2
   1 -11  -9 992.564 114.870   1
   1  11  -9 793.526 64.7836   2
   1 -11  -9 881.694 106.069   2
   1  11  -9 791.068 67.8717   2
   1  11  -8 21271.2 295.601   2
   1 -11  -8 21182.4 464.490   2
   1 -11  -8 21057.2 489.244   1
   1  11  -8 19697.0 286.080   2
   1  11  -7 9860.85 182.043   2
   1 -11  -7 10299.0 310.012   2
   1  11  -7 9452.71 181.822   2
   1 -11  -7 10545.0 337.224   1
  -1  11   7 10917.8 352.038   1
  -1  11   6 646.991 87.5293   1
   1 -11  -6 622.739 78.2240   2
   1  11  -6 510.965 38.7849   2
   1 -11  -6 588.881 83.5433   1
   1  11  -5 3606.51 90.3640   2
   1 -11  -5 4442.85 206.604   1
   1 -11  -5 4653.05 189.240   2
   1 -11  -4 8446.87 234.823   2
   1 -11  -4 8244.22 265.344   1
   1  11  -4 6777.99 118.805   2
   1  11  -3 1039.43 49.3726   2
   1 -11  -3 1454.77 93.2018   2
  -1 -11   3 1266.80 54.9013   2
   1 -11  -3 1440.22 114.064   1
  -1 -11   3 1302.18 76.3104   1
   1  11  -2 26774.7 268.255   2
   1 -11  -2 28815.6 359.924   2
   1 -11  -2 26262.4 441.885   1
  -1 -11   2 28219.1 267.308   2
  -1 -11   2 26072.3 342.615   1
   1 -11  -1 34964.3 348.681   2
   1  11  -1 36253.4 349.456   2
  -1 -11   1 36088.9 422.165   1
   1 -11  -1 36383.7 502.659   1
  -1 -11   1 35578.4 336.344   2
  -1 -11   0 970.040 62.4905   2
  -1 -11   0 781.800 68.8706   1
   1 -11   0 716.262 42.7205   2
   1  11   0 926.547 62.8816   2
   1 -11   0 607.737 69.5454   1
  -1 -11  -1 572.351 59.2402   2
   1  11   1 576.535 57.6112   2
  -1 -11  -1 750.350 75.0441   1
  -1 -11  -2 27778.3 397.792   2
  -1 -11  -2 26568.7 435.989   1
   1  11   2 28544.9 411.488   2
   1  11   3 262.737 54.1277   1
  -1 -11  -3 291.086 55.7588   1
  -1 -11  -3 301.296 53.1802   2
   1  11   3 311.072 52.3626   2
   1  11   4 5622.22 224.774   1
  -1 -11  -4 6156.86 229.043   1
  -1 -11  -4 6279.35 219.222   2
   1  11   4 6388.34 220.565   2
   1  11   5 6827.36 249.269   2
  -1 -11  -5 6609.43 240.773   2
  -1 -11  -5 6502.08 253.848   1
   1  11   5 6947.50 258.266   1
   1  11   6 261.893 54.3194   2
  -1 -11  -6 384.201 73.8218   1
  -1  11  -6 152.419 15.4160   2
  -1  11  -6 139.566 15.8950   2
  -1 -11  -6 303.326 60.2596   2
   1  11   6 254.061 67.0106   1
  -1  11  -7 4612.02 110.066   2
  -1 -11  -7 5935.67 251.869   2
   1  11   7 6736.40 276.109   2
  -1  11  -7 5024.83 117.775   2
   1  11   7 6851.46 279.221   1
  -1 -11  -7 6361.37 270.102   1
  -1  11  -8 28415.5 323.374   2
   1  11   8 32844.0 624.070   2
  -1  11  -8 29485.3 328.063   2
  -1 -11  -8 31788.0 599.670   2
  -1 -11  -8 31584.0 614.034   1
  -1 -11  -9 2638.66 186.992   1
  -1  11  -9 2504.84 108.305   2
  -1 -11  -9 2665.33 187.347   2
  -1  11  -9 2668.97 112.088   2
  -1  11 -10 3867.54 149.392   2
  -1 -11 -10 4292.38 238.604   2
  -1  11 -10 4231.29 152.952   2
  -1  11 -11 2093.77 120.386   2
  -1  11 -11 2079.22 116.393   2
  -1 -11 -11 2239.24 185.084   2
  -1 -11 -12 395.982 90.0166   2
  -1  11 -12 386.697 58.4948   2
  -1  11 -12 399.761 61.6803   2
  -1 -11 -13 1092.58 146.791   2
  -1  11 -13 977.920 99.4460   2
  -1  11 -14 1712.05 129.619   2
  -1 -11 -14 2077.80 198.791   2
  -1 -11 -15 73.7062 75.7195   2
  -1 -11 -16 4489.31 309.908   2
   1 -13 -16 493.757 117.651   2
   1 -13 -15 50.6129 69.8377   2
   1 -13 -14 2886.79 230.048   2
   1 -13 -13 3460.24 256.855   1
   1 -13 -13 3802.40 256.046   2
   1  13 -13 3311.97 158.366   2
   1  13 -12 52.9077 30.8803   2
   1 -13 -12 4.65782 50.7163   2
   1 -13 -12 93.6104 61.4912   1
  -1 -13  11 3069.32 137.484   1
   1  13 -11 3002.26 128.575   2
   1 -13 -11 3586.03 228.256   2
   1 -13 -11 3445.47 234.419   1
   1  13 -11 3087.97 130.272   2
   1  13 -10 93.0875 30.3857   2
   1  13 -10 96.5932 34.2905   2
   1 -13 -10 114.540 61.4920   1
   1 -13 -10 98.0806 65.7903   2
   1 -13  -9 597.092 104.914   1
   1 -13  -9 475.015 88.5501   2
   1  13  -9 399.608 41.8653   2
   1  13  -9 412.708 42.6803   2
   1 -13  -8 544.950 89.4269   2
   1  13  -8 381.720 36.7023   2
   1  13  -8 376.496 37.1479   2
   1 -13  -8 554.384 90.9168   1
   1 -13  -7 797.331 93.3012   2
   1 -13  -7 803.687 110.855   1
   1  13  -7 599.852 38.3386   2
   1  13  -7 517.800 38.0441   2
   1  13  -6 61.8288 13.1351   2
   1 -13  -6 10.5918 49.3784   1
   1  13  -6 70.6488 13.8974   2
   1 -13  -6 99.2956 41.7990   2
   1 -13  -5 7060.25 275.358   1
   1 -13  -5 7626.58 252.125   2
  -1 -13   4 2832.79 119.973   1
   1 -13  -4 2766.40 145.637   2
   1 -13  -4 2726.91 167.693   1
   1 -13  -3 194.382 38.7404   2
   1 -13  -3 185.582 56.3378   1
  -1 -13   3 136.706 33.7579   1
  -1 -13   3 142.766 21.5417   2
   1  13  -3 102.097 18.7442   2
  -1 -13   2 13029.7 270.520   1
   1 -13  -2 13586.2 264.877   2
  -1 -13   2 12482.1 187.698   2
   1 -13  -2 13282.5 340.850   1
   1  13  -2 12258.6 192.144   2
  -1 -13   1 24806.7 297.297   2
   1  13  -1 23756.8 299.991   2
   1 -13  -1 23929.4 307.078   2
   1 -13  -1 21383.8 417.389   1
  -1 -13   1 22555.5 372.878   1
  -1 -13   0 3100.22 120.225   2
  -1 -13   0 2782.08 137.529   1
   1  13   0 3080.41 121.647   2
   1 -13   0 2592.92 83.2505   2
   1 -13   0 2576.23 142.628   1
   1  13   1 18505.5 324.999   2
   1 -13   1 16089.0 350.306   1
  -1 -13  -1 17895.4 312.293   2
  -1 -13  -1 16909.0 356.416   1
   1  13   2 4850.11 180.701   2
  -1 -13  -2 4724.97 201.311   1
  -1 -13  -2 4700.42 177.286   2
   1  13   3 56.9711 35.8653   2
  -1 -13  -3 46.5934 36.2489   1
  -1 -13  -3 21.5216 35.8763   2
   1  13   4 6568.46 268.539   1
  -1 -13  -4 6402.89 255.526   1
  -1 -13  -4 6341.88 237.651   2
   1  13   4 6465.90 238.481   2
  -1 -13  -5 18847.9 444.833   1
  -1 -13  -5 19752.2 431.398   2
   1  13   5 17133.7 436.597   1
   1  13   5 19934.3 442.755   2
  -1 -13  -6 58.0576 42.2001   2
   1  13   6 111.064 55.8207   1
   1  13   6 7.17062 35.5532   2
  -1 -13  -6 67.3758 47.8320   1
   1  13   7 2933.25 185.866   2
  -1 -13  -7 2842.84 180.912   2
  -1 -13  -7 2726.57 188.059   1
  -1 -13  -8 1419.03 138.839   2
  -1 -13  -8 1468.46 147.997   1
  -1 -13  -9 3358.06 212.429   2
  -1 -13  -9 3360.71 222.033   1
  -1  13  -9 2814.69 90.3452   2
  -1  13  -9 2511.39 86.0986   2
  -1  13 -10 3178.76 114.093   2
  -1 -13 -10 3967.29 250.502   1
  -1 -13 -10 3882.74 239.098   2
  -1  13 -10 3334.63 117.633   2
  -1  13 -11 1636.86 91.0577   2
  -1 -13 -11 1891.21 174.096   2
  -1 -13 -12 232.431 73.8203   2
  -1 -13 -13 8420.05 391.044   2
  -1 -13 -14 62.8582 67.3081   2
  -1 -13 -15 437.019 122.459   2
   1 -15 -15 234.997 98.8297   2
   1 -15 -14 2311.41 214.016   2
   1 -15 -13 1229.85 170.513   1
   1 -15 -13 1316.81 159.403   2
   1 -15 -12 108.048 64.9745   2
   1 -15 -12 112.170 76.1951   1
   1 -15 -11 248.909 73.3012   2
   1 -15 -11 248.914 83.3539   1
   1 -15 -10 6992.03 319.163   2
   1 -15 -10 6815.85 336.082   1
   1 -15  -9 957.861 127.053   1
   1 -15  -9 1174.58 126.720   2
   1 -15  -8 9909.29 349.007   2
   1 -15  -8 9527.43 372.345   1
   1 -15  -7 685.554 109.720   1
   1 -15  -7 457.962 81.4751   2
   1 -15  -6 558.021 83.5227   2
  -1 -15   6 399.782 47.0954   1
   1 -15  -6 632.129 98.4113   1
   1 -15  -5 2380.32 174.294   1
   1 -15  -5 2181.78 147.080   2
  -1 -15   5 1943.10 102.964   1
   1 -15  -4 5622.83 213.403   2
  -1 -15   4 4660.01 159.186   1
   1 -15  -4 4988.06 238.074   1
   1 -15  -3 1777.18 113.338   2
  -1 -15   3 1476.66 57.7481   2
  -1 -15   3 1808.39 104.859   1
   1  15  -3 1150.58 50.1766   2
   1 -15  -3 1801.74 140.062   1
   1 -15  -2 1842.14 138.773   1
  -1 -15   2 1867.43 75.2690   2
   1  15  -2 1707.05 72.8622   2
   1 -15  -2 2212.54 112.114   2
  -1 -15   2 1686.12 107.547   1
   1  15  -1 5532.85 151.241   2
  -1 -15   1 5605.22 148.651   2
   1 -15  -1 5696.72 234.767   1
  -1 -15   1 5527.23 201.772   1
   1 -15  -1 5639.91 154.803   2
   1 -15   0 2800.09 89.6077   2
   1  15   0 3025.85 126.006   2
  -1 -15   0 2978.15 124.728   2
   1 -15   0 3091.98 171.183   1
  -1 -15   0 2892.02 154.868   1
   1 -15   1 56.8832 42.9853   1
  -1 -15  -1 74.6705 40.8278   1
  -1 -15  -1 66.6250 32.8653   2
   1  15   1 11.1992 24.8807   2
  -1 -15  -2 732.831 92.1136   1
   1  15   2 737.515 77.2746   2
  -1 -15  -2 668.927 74.5596   2
   1 -15   2 581.303 73.9673   1
   1 -15   3 3842.69 180.052   1
   1  15   3 4099.18 186.658   2
  -1 -15  -3 3892.47 200.994   1
  -1 -15  -3 3988.18 185.051   2
  -1 -15  -4 12640.7 344.693   2
   1  15   4 12183.8 339.564   2
  -1 -15  -4 11345.9 356.220   1
   1  15   5 6027.81 252.961   2
  -1 -15  -5 6123.78 255.495   2
  -1 -15  -5 5884.10 266.587   1
  -1 -15  -6 59.0598 44.4840   2
  -1 -15  -6 68.9402 53.4251   1
  -1 -15  -7 3986.08 239.874   1
  -1 -15  -7 4066.23 230.102   2
  -1 -15  -8 2548.00 195.909   1
  -1 -15  -8 2528.51 182.827   2
  -1 -15  -9 644.955 104.165   1
  -1 -15  -9 727.881 117.375   2
  -1 -15 -10 8636.31 367.679   2
  -1 -15 -10 8277.78 373.637   1
  -1 -15 -11 1187.90 150.616   2
  -1 -15 -12-37.8624 66.7225   2
  -1 -15 -13 3229.69 250.715   2
  -1 -15 -14 536.720 119.043   2
   1 -17 -14-5.11398 61.2759   2
   1 -17 -13 5345.55 342.429   1
   1 -17 -13 5229.30 316.895   2
   1 -17 -12 60.2415 56.8047   2
   1 -17 -12 69.1563 76.9064   1
   1 -17 -11 3748.72 271.392   1
   1 -17 -11 4369.31 273.680   2
   1 -17 -10 495.170 107.556   1
   1 -17 -10 574.942 105.913   2
   1 -17  -9 2331.17 203.572   1
   1 -17  -9 2405.11 188.643   2
   1 -17  -8 430.622 85.6815   2
   1 -17  -8 418.905 99.2711   1
   1 -17  -7 9910.13 350.044   2
  -1 -17   7 7465.51 194.886   1
   1 -17  -7 8634.00 363.057   1
   1 -17  -6 580.431 89.1242   2
   1 -17  -6 573.375 96.0840   1
  -1 -17   6 551.591 59.3755   1
   1 -17  -5 4594.98 251.031   1
   1 -17  -5 5352.07 229.770   2
  -1 -17   5 3989.11 150.879   1
  -1 -17   4 77.8953 28.4158   1
   1 -17  -4 59.3932 43.5174   2
   1 -17  -4 185.258 63.9711   1
   1 -17  -3 189.113 44.9456   2
   1 -17  -3 31.6144 46.1921   1
  -1 -17   3 37.7025 28.5869   1
  -1 -17   2 1580.44 70.5363   2
   1 -17  -2 2097.22 162.485   1
   1 -17  -2 2026.35 110.383   2
  -1 -17   2 1933.02 123.486   1
  -1 -17   1 11745.1 314.019   1
   1 -17  -1 11618.1 352.122   1
  -1 -17   1 12796.7 226.856   2
   1 -17  -1 12466.6 231.913   2
  -1 -17   0 1803.65 97.1293   2
   1 -17   0 1385.33 122.692   1
  -1 -17   0 1464.67 117.715   1
   1 -17   0 1354.20 59.0817   2
  -1 -17  -1 6286.66 250.029   1
  -1 -17  -1 6739.40 210.615   2
   1 -17   1 5571.90 233.431   1
  -1 -17  -2 5249.39 239.555   1
   1 -17   2 5133.93 218.393   1
  -1 -17  -2 5730.22 213.152   2
  -1 -17  -3 57.4356 49.2912   1
  -1 -17  -3 77.0260 37.0444   2
   1 -17   3 70.8785 37.1596   1
   1 -17   4 442.937 71.9775   1
  -1 -17  -4 640.828 86.0350   2
  -1 -17  -4 512.011 86.6333   1
  -1 -17  -5 1961.53 164.732   1
  -1 -17  -5 2050.68 157.984   2
  -1 -17  -6 4822.14 246.461   2
  -1 -17  -6 4428.80 252.947   1
  -1 -17  -7 9501.67 381.539   1
  -1 -17  -7 10199.8 374.343   2
  -1 -17  -8 1619.00 156.765   2
  -1 -17  -8 1542.21 163.466   1
  -1 -17  -9 708.390 118.154   1
  -1 -17  -9 738.717 121.008   2
  -1 -17 -10 3683.13 257.625   2
  -1 -17 -10 3555.64 257.292   1
  -1 -17 -11 6490.60 347.713   2
  -1 -17 -12-15.9151 55.3773   2
  -1 -17 -13 3476.72 272.954   2
   1 -19 -13 723.219 136.061   2
   1 -19 -12-32.4851 64.8320   2
   1 -19 -11 833.056 133.595   2
   1 -19 -11 847.994 141.123   1
   1 -19 -10 7270.23 385.409   1
   1 -19 -10 7519.42 360.359   2
   1 -19  -9 332.701 85.6569   1
   1 -19  -9 322.462 81.4841   2
   1 -19  -8 7628.72 371.232   1
   1 -19  -8 8400.13 353.911   2
   1 -19  -7 316.538 75.6311   2
   1 -19  -7 135.994 65.4515   1
   1 -19  -6 55.2879 42.1909   2
   1 -19  -6-28.5152 56.4207   1
   1 -19  -5 4285.97 259.092   1
   1 -19  -5 4779.74 228.310   2
  -1 -19   5 3658.25 154.033   1
   1 -19  -4 6059.18 296.593   1
   1 -19  -4 7371.31 259.036   2
  -1 -19   4 5277.94 190.060   1
   1 -19  -3 52.6800 37.7468   2
   1 -19  -3 23.5394 49.8089   1
  -1 -19   3 149.253 44.3894   1
   1 -19  -2 3469.53 140.784   2
  -1 -19   2 2804.75 157.165   1
   1 -19  -2 3054.72 197.644   1
   1 -19  -1 13.2765 21.7493   2
   1 -19  -1 61.3951 46.1511   1
  -1 -19   1 5.23263 19.2590   2
  -1 -19   1-59.6378 43.7146   1
   1 -19   0 2735.35 178.602   1
  -1 -19   0 2588.34 163.619   1
  -1 -19   0 2935.02 123.798   2
  -1 -19  -1 288.877 53.0987   2
  -1 -19  -1 189.279 58.6947   1
   1 -19   1 236.209 62.5433   1
   1 -19   2 621.652 86.7016   1
  -1 -19  -2 652.142 77.9120   2
  -1 -19  -2 600.134 85.8277   1
   1 -19   3 208.105 51.0844   1
  -1 -19  -3 130.594 52.0649   2
  -1 -19  -3 164.326 57.2762   1
   1 -19   4 3081.67 167.998   1
  -1 -19  -4 3451.29 220.523   1
  -1 -19  -4 4255.92 217.945   2
   1 -19   5 163.368 44.2488   1
  -1 -19  -5 243.960 71.6068   2
  -1 -19  -5 290.737 82.3049   1
  -1 -19  -6 91.3258 56.7060   1
  -1 -19  -6-3.02113 53.9616   2
  -1 -19  -7 234.828 85.7271   2
  -1 -19  -7 71.8632 55.8007   1
  -1 -19  -8 2626.92 209.276   2
  -1 -19  -8 2165.19 198.435   1
  -1 -19  -9 490.823 103.432   2
  -1 -19  -9 420.548 108.536   1
  -1 -19 -10 3496.89 257.761   2
  -1 -19 -11 240.161 91.9041   2
  -1 -19 -12 5.47608 70.0910   2
   1 -21 -12 158.518 91.4585   2
   1 -21 -11 1145.19 158.192   2
   1 -21 -10 91.4412 72.5700   2
   1 -21 -10-39.5590 73.1548   1
   1 -21  -9 164.652 100.649   1
   1 -21  -9 13.8135 58.6374   2
   1 -21  -8 185.746 76.3477   2
   1 -21  -8 159.557 85.8827   1
   1 -21  -7 4494.79 289.732   1
   1 -21  -6 94.7582 55.6795   1
   1 -21  -5 2938.29 220.363   1
   1 -21  -4 396.567 86.2829   1
   1 -21  -3 171.849 69.4574   1
   1 -21  -2 1566.99 156.050   1
  -1 -21   1 6142.23 253.572   1
   1 -21  -1 6036.20 279.127   1
  -1 -21   0 9.95292 53.5941   1
   1 -21   0 6.01890 48.4779   1
  -1 -21  -1 6994.74 296.707   1
   1 -21   1 6617.03 277.865   1
  -1 -21  -2 263.290 68.9245   1
   1 -21   2 263.593 60.9963   1
  -1 -21  -3 30.4876 51.6477   1
  -1 -21  -4 509.633 97.9795   1
  -1 -21  -5 2921.23 217.724   1
  -1 -21  -6 245.425 81.1325   2
  -1 -21  -6 119.427 76.6536   1
  -1 -21  -7 4336.13 284.928   1
  -1 -21  -7 5683.45 303.742   2
  -1 -21  -8 126.788 83.8600   1
  -1 -21  -8 29.2594 56.2390   2
  -1 -21  -9 2042.34 199.076   2
  -1 -21 -10 1004.99 150.023   2
  -1 -21 -11 404.481 122.458   2
   1 -23  -8 1287.29 170.487   1
   1 -23  -7 398.295 99.9395   1
   1 -23  -6 198.910 90.0045   1
   1 -23  -5 1090.57 141.322   1
   1 -23  -4 3816.96 256.994   1
   1 -23  -3 180.107 78.6139   1
   1 -23  -2 3296.24 227.571   1
  -1 -23  -3 60.3917 57.2574   1
  -1 -23  -4 1852.83 175.824   1
  -1 -23  -5 14.8558 64.4099   1
  -1 -23  -6 223.922 76.8713   1
  -1 -23  -7 225.145 109.232   1
   2   0 -20 6516.18 384.303   2
   2   0 -19-21.7456 68.0830   2
   2   0 -18 11996.0 473.658   2
   2   0 -17 147.135 80.6401   2
   2   0 -16 216.331 72.2361   2
   2   0 -15 27.8642 53.0610   2
   2   0 -14 8001.50 333.091   2
   2   0 -13-96.9549 52.2535   2
  -2   0  13 36.0441 46.9385   1
   2   0 -12 626.744 88.7663   2
  -2   0  12 388.384 73.1617   1
  -2   0  11 3.15096 34.3209   1
   2   0 -11 72.4858 47.7776   2
  -2   0  10 9020.31 272.340   1
   2   0 -10 9036.74 286.436   2
  -2   0   9 33.5696 33.5281   1
   2   0  -9 7.08491 35.6337   2
   2   0  -8 9169.15 234.235   1
   2   0  -8 9953.33 271.603   2
  -2   0   8 9384.65 245.585   1
  -2   0   7 118.301 40.2799   1
   2   0  -7 183.373 47.8978   1
  -2   0   6 3352.95 126.167   1
   2   0  -6 3138.02 119.872   1
   2   0  -5 2.04105 25.0170   1
  -2   0   5 16.7880 26.4852   1
   2   0  -4 601.572 47.7127   1
  -2   0   4 621.828 48.9005   1
  -2   0   3 42.6992 21.7180   1
   2   0  -3 11.5040 21.5144   1
   2   0  -3 37.0589 23.8676   2
   2   0   1 25.9823 17.3185   2
   2   0   2 12011.6 181.012   2
  -2   0  -2 11965.7 181.452   2
   2   0   3 0.20992 24.6319   2
  -2   0  -3 21.8584 28.3129   2
   2   0   4 34150.2 384.553   2
  -2   0  -4 34042.0 387.734   2
   2   0   5 13.1400 27.6253   2
  -2   0  -5 69.8737 37.1953   2
   2   0   6 170584. 1017.60   2
  -2   0  -6 171349. 1030.12   2
   2   0   7 80.0011 41.6829   2
  -2   0  -7 67.6549 45.2535   2
   2   0   8 6013.43 223.624   2
  -2   0  -8 6352.81 227.458   2
   2   0   8 6149.79 228.441   1
   2   0   9-11.2459 35.5178   2
  -2   0  -9 12.4288 34.2482   2
   2   0   9 95.2875 52.4390   1
  -2   0 -10 16746.8 414.905   2
   2   0  10 17160.0 428.021   1
  -2   0 -11-12.3138 40.1975   2
   2   0  11-9.08509 46.1928   1
  -2   0 -12 11640.1 386.247   2
  -2   0 -13 102.075 64.6629   2
  -2   0 -14 2467.60 195.397   2
  -2   0 -15 79.4523 69.7321   2
  -2   0 -16 401.990 94.0550   2
  -2   0 -17-50.4119 63.5814   2
  -2   0 -18 2096.34 212.071   2
   2   2 -20 351.459 103.360   2
   2   2 -19 168.003 75.2472   2
   2  -2 -19 87.3143 77.4680   2
   2  -2 -18 232.671 94.2206   2
   2   2 -18 183.110 82.1695   2
   2   2 -17 6399.93 330.368   2
   2  -2 -17 6472.58 343.970   2
   2  -2 -16 2209.99 201.283   2
   2   2 -16 2165.91 189.499   2
   2   2 -15 7514.48 326.674   2
   2  -2 -15 7697.00 343.204   2
   2   2 -14 186.534 66.9732   2
  -2  -2  14 108.699 51.0556   1
   2  -2 -14 73.3168 59.6120   2
   2   2 -13 47.5833 42.4965   2
   2  -2 -13 180.303 67.9997   2
  -2  -2  13 81.6116 50.2832   1
  -2   2  12 80.2551 45.0146   1
   2  -2 -12-58.2523 53.9975   2
   2   2 -12 9.59838 48.3268   2
  -2  -2  12 28.5073 34.0203   1
  -2  -2  11 4328.31 195.287   1
  -2   2  11 4267.00 216.472   1
   2   2 -11 4174.13 204.756   2
   2  -2 -11 4144.04 207.243   2
   2  -2 -10 1430.78 111.584   1
  -2  -2  10 1399.34 104.540   1
   2   2 -10 1347.64 111.729   2
  -2   2  10 1294.40 116.209   1
   2  -2 -10 1240.67 112.334   2
   2   2  -9 16572.0 355.592   2
  -2   2   9 16667.0 366.684   1
   2  -2  -9 16964.4 376.508   2
  -2  -2   9 16094.7 324.639   1
   2  -2  -9 16046.0 348.048   1
  -2  -2   8 3747.18 144.442   1
   2  -2  -8 3492.11 153.848   1
   2  -2  -8 3902.89 171.738   2
  -2   2   8 3664.88 164.863   1
  -2  -2   7 18817.0 292.846   1
   2  -2  -7 18141.3 325.301   1
   2  -2  -7 18583.6 353.301   2
  -2   2   7 18421.2 336.394   1
   2  -2  -6 42.3052 35.1870   1
  -2   2   6 44.5291 32.8963   1
  -2  -2   6-2.78401 22.5557   1
  -2   2   5 11115.9 224.004   1
   2  -2  -5 11008.6 221.929   1
   2   2  -5 11391.9 171.124   1
  -2  -2   5 11508.3 177.887   1
  -2   2   4 18057.1 259.246   1
   2  -2  -4 18402.6 255.567   1
  -2  -2   4 17281.6 183.203   1
   2   2  -4 16939.2 172.223   1
   2   2  -3 45627.7 332.415   2
  -2  -2   3 44402.6 337.621   2
   2  -2  -3 48361.2 381.610   1
  -2  -2   3 44585.4 223.187   1
   2   2  -2 9481.91 136.906   2
  -2  -2   2 9878.60 139.492   2
   2   2   0 2949.08 79.1519   2
   2  -2   0 2961.26 60.0076   2
  -2   2  -1 254.389 25.9602   2
   2   2   1 263.205 34.8605   2
   2  -2   1 240.577 23.6542   2
  -2  -2  -1 321.952 41.3524   2
   2  -2   2 5167.54 105.665   2
  -2   2  -2 5319.52 109.534   2
  -2  -2  -2 5683.71 136.868   2
   2   2   2 5564.55 135.332   2
  -2  -2  -3 26216.2 328.266   2
   2   2   3 25798.9 322.645   2
   2  -2   3 25401.5 274.040   2
  -2   2  -3 25336.9 271.874   2
   2   2   4 105.696 34.8634   2
  -2   2  -4 109.176 34.5355   2
   2  -2   4 83.9791 30.4552   2
  -2  -2  -4 111.097 45.9796   2
   2   2   4 146.908 41.6737   1
   2  -2   5 26546.4 352.382   2
   2   2   5 27047.5 396.882   1
  -2   2  -5 26642.0 353.737   2
  -2  -2  -5 26166.4 391.659   2
   2   2   5 26049.1 385.326   2
  -2   2  -6 646.943 69.0899   2
  -2  -2  -6 684.034 79.5084   2
   2   2   6 633.221 70.7871   2
   2  -2   6 595.237 66.3144   2
   2   2   6 589.221 66.6023   1
   2   2   7 27874.8 459.441   2
  -2   2  -7 28527.7 431.752   2
   2   2   7 28885.2 477.259   1
  -2  -2  -7 28901.2 472.111   2
   2  -2   7 28869.3 441.169   2
   2   2   8 50.6046 32.3998   2
  -2  -2  -8 95.9341 46.3268   2
   2  -2   8 63.5570 31.7352   2
  -2   2  -8 44.0207 31.8609   2
   2   2   8 58.6300 33.9547   1
  -2   2  -9 38127.3 570.699   2
   2   2   9 37774.7 615.105   2
  -2  -2  -9 37890.5 606.229   2
   2   2   9 38524.7 618.443   1
   2   2  10 1229.88 124.930   1
   2   2  10 1261.34 124.374   2
   2  -2  10 1083.59 112.072   1
  -2   2 -10 1197.59 113.718   2
  -2  -2 -10 1103.67 113.482   2
  -2   2 -11 3909.01 209.299   2
  -2  -2 -11 4033.66 224.195   2
   2  -2  11 3809.72 211.920   1
  -2  -2 -12 126.602 63.7158   2
  -2   2 -12 221.374 64.9201   2
  -2  -2 -13 24.1384 53.0413   2
  -2   2 -13 41.1046 59.1715   2
  -2   2 -14 37.2528 60.0080   2
  -2  -2 -14 75.7073 58.5350   2
  -2   2 -15 6714.00 325.672   2
  -2  -2 -15 7006.27 347.612   2
  -2   2 -16 291.256 92.0970   2
  -2  -2 -16 350.821 98.2018   2
  -2  -2 -17 4929.08 312.223   2
  -2   2 -17 4707.30 299.657   2
  -2  -2 -18 215.125 94.0124   2
  -2   2 -18 16.4773 67.0288   2
  -2   2 -19 82.2471 71.3682   2
   2   4 -20 1376.61 168.100   2
   2  -4 -19 868.836 146.847   2
   2   4 -19 751.091 126.928   2
   2  -4 -18 5249.38 331.627   2
   2   4 -18 4461.40 278.323   2
   2  -4 -17 529.080 112.716   2
   2   4 -17 368.156 89.6286   2
   2   4 -16 862.752 120.638   2
   2  -4 -16 1044.30 146.120   2
   2  -4 -15 1749.55 174.737   2
   2   4 -15 1528.66 148.134   2
  -2  -4  14 2913.07 179.797   1
   2  -4 -14 2723.49 204.267   2
   2   4 -14 2453.92 181.841   2
   2   4 -13-2.19723 46.7534   2
   2  -4 -13 16.6377 51.7980   2
  -2  -4  13 20.4297 38.3508   1
   2   4 -12 19231.1 432.732   2
  -2   4  12 20356.0 493.461   1
   2  -4 -12 20353.5 496.898   2
   2  -4 -12 19965.2 472.379   1
  -2  -4  12 19998.6 418.513   1
  -2  -4  11 5325.14 206.106   1
   2  -4 -11 5243.14 232.391   1
  -2   4  11 5413.31 242.059   1
   2   4 -11 5134.78 217.288   2
   2  -4 -11 5567.61 248.265   2
   2   4 -10 1398.05 110.748   2
   2  -4 -10 1480.22 121.191   1
  -2  -4  10 1345.85 96.2944   1
  -2   4  10 1389.17 121.438   1
   2  -4 -10 1413.66 121.995   2
   2  -4  -9 685.297 81.6587   2
  -2  -4   9 690.493 66.9992   1
  -2   4   9 569.374 79.5912   1
   2  -4  -9 568.936 75.6603   1
   2  -4  -8 11339.5 299.144   2
  -2  -4   8 11058.0 231.738   1
  -2   4   8 11170.4 297.361   1
   2  -4  -8 10585.4 283.151   1
  -2  -4   7 2707.16 104.296   1
   2  -4  -7 2813.94 140.984   2
   2  -4  -7 2560.64 135.722   1
  -2   4   7 2760.03 141.339   1
   2   4  -6 37797.6 406.311   2
  -2   4   6 39291.2 494.385   1
   2  -4  -6 38147.3 477.771   1
   2  -4  -6 39218.5 490.502   2
   2  -4  -5 999.798 78.8437   1
  -2   4   5 871.212 73.0647   1
   2  -4  -5 1012.64 77.2488   2
  -2  -4   5 1061.07 48.0571   1
   2   4  -5 1129.65 66.4991   2
   2   4  -4 16442.7 218.227   2
  -2   4   4 19199.9 303.566   1
   2  -4  -4 18485.1 293.129   1
   2  -4  -3 8178.79 185.032   1
   2   4  -3 7885.69 136.425   2
  -2  -4   3 8465.19 144.858   2
  -2  -4   2 111278. 482.519   2
   2   4  -2 110328. 488.047   2
  -2  -4   1 16346.6 193.354   2
   2   4  -1 15750.8 191.712   2
   2  -4   0 12179.0 107.963   2
  -2  -4   0 12361.2 181.079   2
   2   4   0 12468.3 161.398   1
   2   4   0 12272.4 182.455   2
  -2  -4  -1 173.079 33.8878   2
   2   4   1 271.624 33.5711   1
   2   4   1 240.011 36.8416   2
  -2  -4  -2 60013.8 483.570   2
   2   4   2 59011.1 475.987   1
   2   4   2 60056.8 484.621   2
  -2   4  -2 57742.7 291.094   2
   2  -4   2 58413.9 298.338   2
   2   4   3 3134.89 122.443   2
   2  -4   3 2991.57 85.1288   2
  -2   4  -3 2981.32 82.9177   2
   2   4   3 3064.56 116.950   1
  -2  -4  -3 3392.54 128.788   2
   2   4   4 34840.1 437.495   1
   2  -4   4 33475.1 327.470   2
  -2   4  -4 33442.5 326.315   2
  -2  -4  -4 35483.8 443.617   2
   2   4   4 35147.5 441.642   2
  -2  -4  -5 171.273 48.7073   2
   2  -4   5 64.8284 28.5626   2
  -2   4  -5 26.3122 29.0691   2
   2   4   5 155.678 41.8079   2
   2   4   5 83.6147 33.0798   1
   2   4   6 41508.6 553.678   1
   2   4   6 41063.2 545.087   2
   2  -4   6 39343.8 443.176   2
  -2   4  -6 40822.0 453.950   2
  -2  -4  -6 40337.0 548.535   2
   2   4   7 7591.01 250.563   2
   2   4   7 8014.78 258.633   1
  -2   4  -7 7809.93 219.116   2
  -2  -4  -7 7571.64 252.204   2
  -2  -4  -8 36422.3 576.941   2
   2   4   8 37492.2 591.369   1
   2   4   8 35864.5 577.310   2
  -2   4  -8 36253.2 501.932   2
   2   4   9 125.131 59.5252   2
  -2  -4  -9 27.3222 37.8667   2
   2   4   9 149.510 54.7173   1
  -2   4  -9 43.4994 36.4244   2
  -2   4 -10 154.507 42.5027   2
  -2  -4 -10 274.782 66.1349   2
   2   4  10 240.910 65.7750   2
   2   4  10 246.419 64.4285   1
  -2   4 -11 2282.30 158.846   2
  -2  -4 -11 2188.81 166.710   2
   2  -4  11 2209.38 157.914   1
  -2  -4 -12 9752.33 364.413   2
   2  -4  12 9412.62 336.291   1
  -2   4 -12 10028.2 337.066   2
  -2  -4 -13 6294.53 304.808   2
  -2   4 -13 6609.41 287.869   2
  -2  -4 -14 3135.61 231.499   2
  -2   4 -14 3256.57 216.751   2
  -2   4 -15 1316.33 143.851   2
  -2  -4 -15 1507.79 168.513   2
  -2  -4 -16 129.633 68.1328   2
  -2   4 -16 79.5148 50.2455   2
  -2   4 -17 224.240 88.2009   2
  -2  -4 -17 93.7632 68.9989   2
  -2   4 -18 1684.85 184.887   2
  -2   4 -19 511.676 120.279   2
   2   6 -21 1640.05 187.763   2
   2   6 -20 204.462 80.1191   2
   2   6 -19 302.047 82.8609   2
   2  -6 -18 149.453 76.3170   2
   2   6 -18 124.093 66.0704   2
   2   6 -17 1029.46 129.674   2
   2  -6 -17 1287.95 169.988   2
   2  -6 -16 507.559 112.569   2
   2   6 -16 389.301 83.8130   2
   2   6 -15 3554.77 215.400   2
   2  -6 -15 3999.84 261.230   2
  -2  -6  15 3694.53 205.333   1
   2   6 -14 3735.41 210.110   2
  -2  -6  14 3978.14 202.401   1
   2  -6 -14 4191.66 254.236   2
   2   6 -13 307.859 69.0317   2
  -2  -6  13 358.776 69.4247   1
   2  -6 -13 352.174 82.2434   1
   2  -6 -13 288.041 79.0157   2
   2   6 -12 603.806 79.9305   2
  -2  -6  12 570.310 74.1026   1
   2  -6 -12 633.498 99.2266   1
   2  -6 -12 731.632 98.6710   2
   2  -6 -11 5082.29 243.961   2
   2  -6 -11 5018.09 237.750   1
  -2  -6  11 5289.90 193.626   1
  -2   6  11 5690.78 263.092   1
   2   6 -11 5091.32 210.574   2
   2  -6 -10 26.7731 44.1491   2
   2   6 -10 66.8765 33.1809   2
   2  -6 -10 39.7373 40.9757   1
  -2  -6  10 61.3045 37.2217   1
  -2   6  10-0.01822 43.9521   1
   2   6  -9 19480.1 358.831   2
   2  -6  -9 19773.7 430.577   2
   2  -6  -9 19001.5 420.682   1
  -2   6   9 20051.2 443.071   1
  -2  -6   9 18865.6 310.014   1
   2  -6  -8 3447.87 171.903   2
  -2  -6   8 3317.09 118.806   1
   2   6  -8 3273.06 137.628   2
  -2   6   8 3284.45 171.398   1
   2  -6  -8 3117.72 162.355   1
  -2  -6   7 4517.35 121.832   1
   2   6  -7 4631.71 151.316   2
  -2   6   7 4307.21 189.338   1
   2  -6  -7 4234.41 185.679   1
   2  -6  -7 4728.91 187.969   2
  -2   6   6 424.790 60.5864   1
   2  -6  -6 515.080 66.7712   1
   2   6  -6 689.283 55.2392   2
  -2  -6   6 603.171 41.1386   1
   2  -6  -6 571.932 68.1363   2
   2  -6  -5 137120. 935.316   1
   2   6  -5 135031. 679.658   2
   2  -6  -5 138227. 858.337   2
  -2   6   5 139605. 953.069   1
   2   6  -4 218.481 27.6929   2
   2  -6  -4 248.334 40.5618   2
   2  -6  -4 361.713 56.6522   1
  -2  -6   4 262.952 36.3922   2
   2  -6  -3 33048.6 416.009   1
  -2  -6   3 33509.4 290.314   2
   2  -6  -3 33977.0 352.529   2
   2   6  -3 33051.1 288.169   2
  -2  -6   2 1345.68 63.5847   2
  -2  -6   2 1330.08 46.7871   1
   2   6  -2 1310.14 61.7500   2
   2  -6  -2 1407.64 67.8967   2
   2  -6  -1 16881.0 181.934   2
  -2  -6   1 17778.8 221.229   2
  -2  -6   1 17678.5 198.755   1
   2   6  -1 16970.9 200.057   1
   2   6  -1 17718.3 224.602   2
   2   6   0 2018.44 79.2021   1
   2   6   0 2108.99 84.8949   2
  -2  -6   0 2194.58 84.9644   1
   2  -6   0 1744.08 45.4052   2
   2  -6   0 1891.65 46.1353   2
  -2  -6   0 2027.41 83.2917   2
  -2  -6  -1 7551.50 175.624   2
   2   6   1 7805.71 172.516   1
  -2  -6  -1 8022.61 178.434   1
   2   6   1 7464.80 173.450   2
  -2  -6  -2 3287.01 123.276   1
  -2  -6  -2 3163.68 122.898   2
   2   6   2 3092.17 119.075   1
   2   6   2 3102.10 119.375   2
  -2  -6  -3 33898.7 435.218   1
  -2  -6  -3 32886.8 423.976   2
   2   6   3 32388.5 417.641   1
   2   6   3 33036.0 422.278   2
  -2  -6  -4 836.503 77.6805   2
  -2  -6  -4 964.257 87.7673   1
   2   6   4 891.210 80.3100   1
   2   6   4 957.406 81.7550   2
  -2   6  -4 875.966 47.9618   2
   2   6   5 59394.0 647.659   1
   2   6   5 60204.8 653.429   2
  -2   6  -5 59358.1 447.475   2
  -2  -6  -5 60053.1 651.482   2
  -2   6  -6 141.702 33.8281   2
   2   6   6 185.117 51.0285   2
   2   6   6 6.84787 30.8803   1
  -2  -6  -6 95.2819 48.1076   2
  -2   6  -7 100.087 29.5076   2
   2   6   7 122.929 42.8143   2
  -2  -6  -7 133.136 46.9726   2
   2   6   7 121.056 48.1454   1
   2   6   8 700.293 87.5642   2
  -2  -6  -8 719.878 90.8796   2
   2   6   8 715.361 87.6661   1
  -2   6  -8 725.400 70.6210   2
   2   6   9 55349.5 782.706   1
   2   6   9 54024.1 775.846   2
  -2  -6  -9 53767.3 763.594   2
  -2   6  -9 53283.5 624.236   2
  -2   6 -10 967.989 94.4685   2
  -2  -6 -10 1024.86 113.795   2
  -2   6 -11 665.572 84.6949   2
  -2  -6 -11 711.304 103.350   2
   2  -6  12 9768.14 333.112   1
  -2  -6 -12 10006.1 376.454   2
  -2   6 -12 9916.50 326.726   2
  -2  -6 -13 1569.43 157.785   2
  -2   6 -13 1470.08 136.094   2
  -2   6 -14 598.830 96.3969   2
  -2  -6 -14 813.932 132.712   2
  -2  -6 -15 7803.73 377.882   2
  -2   6 -15 6710.69 311.871   2
  -2  -6 -16 53.3363 72.8177   2
  -2   6 -16-35.3577 48.8071   2
  -2  -6 -17 2100.70 218.852   2
  -2   6 -17 2112.36 190.402   2
  -2   6 -18-58.7113 72.4845   2
  -2   6 -19 202.914 78.6808   2
   2   8 -20 1267.32 151.087   2
   2   8 -19 351.847 93.5387   2
   2   8 -18 5540.63 295.909   2
   2  -8 -18 6902.00 388.950   2
   2   8 -17 126.397 65.9094   2
   2  -8 -17 145.275 61.0666   2
   2   8 -16 900.009 113.523   2
   2  -8 -16 1163.10 153.219   2
   2  -8 -15 3455.07 246.676   2
   2   8 -15 3056.23 194.209   2
  -2  -8  15 3318.56 186.362   1
   2  -8 -14 118.611 66.3404   1
   2   8 -14 34.3855 41.6195   2
   2   8 -14 118.246 58.4764   2
   2  -8 -14 29.8086 61.2567   2
  -2  -8  14 132.485 51.6848   1
  -2  -8  13 85.9949 42.0778   1
   2  -8 -13 81.4574 53.5987   2
   2   8 -13 150.712 51.4921   2
   2  -8 -13 234.027 75.3799   1
   2   8 -13 128.350 47.4911   2
   2  -8 -12 10940.3 379.012   1
   2   8 -12 10289.3 304.034   2
  -2  -8  12 10393.5 275.782   1
   2  -8 -12 11156.3 386.011   2
   2   8 -12 9698.68 292.734   2
   2  -8 -11 351.592 77.0316   1
   2   8 -11 367.826 54.6777   2
   2  -8 -11 483.007 87.6851   2
  -2  -8  11 403.918 56.4253   1
   2   8 -11 388.383 61.7667   2
   2  -8 -10 1667.35 136.137   2
   2  -8 -10 1605.75 136.160   1
  -2  -8  10 1425.20 89.2799   1
   2   8 -10 1541.83 105.519   2
   2   8 -10 1359.14 98.2647   2
  -2   8   9 3337.68 191.879   1
   2  -8  -9 3930.69 198.682   2
  -2  -8   9 3749.66 131.392   1
   2  -8  -9 3507.49 190.461   1
   2   8  -9 4048.06 160.016   2
   2   8  -8 16956.6 302.136   2
  -2  -8   8 17075.5 252.906   1
  -2   8   8 17360.3 412.693   1
   2  -8  -8 16755.6 403.081   1
   2  -8  -8 17236.0 390.534   2
   2  -8  -7 3985.78 182.071   2
  -2   8   7 4016.14 194.221   1
   2  -8  -7 4087.98 190.916   1
   2   8  -7 3928.58 133.255   2
   2   8  -6 11451.6 209.291   2
   2  -8  -6 11632.3 288.494   2
  -2   8   6 11756.0 315.154   1
   2  -8  -6 11908.1 314.363   1
   2  -8  -5 32.0559 33.1348   2
   2   8  -5 40.2262 19.0497   2
   2  -8  -5 41.1247 40.2449   1
   2   8  -4 11291.2 181.563   2
   2  -8  -4 12292.5 291.823   1
  -2  -8   4 11234.5 186.054   2
   2  -8  -4 11906.1 248.879   2
  -2  -8   3 2604.52 72.5121   1
   2  -8  -3 2704.61 134.257   1
  -2  -8   3 3657.77 100.310   2
   2  -8  -3 3279.07 116.965   2
   2   8  -3 3558.43 100.463   2
   2   8  -2 56478.0 413.709   2
  -2  -8   2 56107.5 398.228   2
   2  -8  -2 55741.8 586.304   1
  -2  -8   2 55207.9 372.905   1
   2  -8  -2 54718.5 423.487   2
   2   8  -1 11313.3 196.364   2
  -2  -8   1 11739.0 196.348   1
  -2  -8   1 11378.8 193.836   2
   2  -8  -1 11080.4 162.065   2
   2  -8   0 32837.3 211.304   2
  -2  -8   0 36204.1 371.797   2
   2   8   0 36777.0 385.606   1
  -2  -8   0 37601.7 387.228   1
   2   8   0 35695.0 374.911   2
  -2  -8  -1 2910.35 121.246   1
   2   8   1 2708.35 114.882   2
  -2  -8  -1 2800.35 115.499   2
   2   8   1 2907.68 118.895   1
   2   8   2 43324.0 483.280   1
  -2  -8  -2 45034.4 500.931   1
  -2  -8  -2 42973.5 478.130   2
   2   8   2 44161.5 488.088   2
   2   8   3 2712.32 135.553   1
  -2  -8  -3 2714.80 135.711   1
   2   8   3 2439.31 128.500   2
  -2  -8  -3 2402.02 128.265   2
   2   8   4 12432.4 297.125   2
  -2  -8  -4 12794.3 303.276   1
  -2  -8  -4 12454.5 295.272   2
   2   8   4 12516.8 299.628   1
   2   8   5 1902.25 123.940   1
  -2  -8  -5 2059.07 130.518   1
  -2   8  -5 1865.26 67.8755   2
  -2  -8  -5 1977.20 126.739   2
   2   8   5 1991.95 129.011   2
  -2  -8  -6 34635.5 554.226   2
  -2  -8  -6 35108.9 563.195   1
   2   8   6 36124.4 572.017   2
  -2   8  -6 33364.7 339.074   2
   2   8   6 35075.3 558.684   1
   2   8   7 6686.82 255.825   2
  -2  -8  -7 6395.78 248.656   2
   2   8   7 6404.92 246.285   1
  -2   8  -7 6329.14 168.826   2
  -2   8  -8 26398.8 383.472   2
  -2  -8  -8 26779.2 537.398   2
   2   8   8 27479.9 545.278   2
   2   8   8 27052.4 538.379   1
  -2   8  -9 1896.90 114.689   2
  -2  -8  -9 1846.15 155.083   2
  -2  -8 -10-2.52579 47.1773   2
  -2   8 -10 33.2477 28.9818   2
  -2  -8 -11 58.6372 56.7504   2
  -2   8 -11 39.3850 31.3645   2
  -2  -8 -12 5004.55 272.598   2
  -2   8 -12 4925.47 222.259   2
  -2   8 -13 845.460 100.274   2
  -2  -8 -13 859.088 125.882   2
  -2  -8 -14 5332.48 306.361   2
  -2   8 -14 4994.40 244.258   2
  -2   8 -15 544.246 95.5640   2
  -2  -8 -15 530.432 111.529   2
  -2  -8 -16 244.650 90.5983   2
  -2   8 -16 36.7543 43.3878   2
  -2   8 -17 230.089 71.6123   2
   2 -10 -17 3566.71 279.001   2
   2  10 -17 3082.99 203.915   2
   2 -10 -16 114.369 70.6222   2
   2  10 -16-8.90797 39.8230   2
   2  10 -15 6262.64 269.459   2
   2 -10 -15 7468.68 365.073   2
   2 -10 -14 585.888 102.814   1
   2 -10 -14 720.145 122.338   2
   2  10 -14 639.761 81.7048   2
   2  10 -14 527.298 78.3894   2
   2 -10 -13 304.304 76.8497   2
  -2 -10  13 463.488 67.5984   1
   2 -10 -13 417.585 95.1597   1
   2  10 -13 414.855 69.0581   2
   2  10 -13 408.531 71.8392   2
   2 -10 -12 1982.55 168.569   2
  -2 -10  12 1932.50 115.229   1
   2 -10 -12 1961.03 167.532   1
   2  10 -12 1804.92 123.702   2
   2  10 -12 1942.02 132.204   2
   2  10 -11 36.0200 30.8531   2
  -2 -10  11 54.6314 32.0669   1
   2 -10 -11 76.6318 51.5840   1
   2 -10 -11-34.0037 57.7859   2
   2  10 -11 29.1384 27.5340   2
  -2 -10  10 12070.6 241.617   1
   2  10 -10 12703.3 287.043   2
   2 -10 -10 12160.9 388.229   1
   2 -10 -10 12530.0 377.826   2
   2  10 -10 11755.1 278.052   2
   2 -10  -9 23283.4 518.814   1
  -2 -10   9 23247.2 308.036   1
   2 -10  -9 23785.2 504.310   2
   2  10  -9 23277.3 369.171   2
   2  10  -8 1031.82 72.4946   2
   2 -10  -8 907.560 98.5028   2
  -2  10   8 694.814 94.2608   1
   2 -10  -8 907.507 103.395   1
   2  10  -7 4976.67 144.574   2
  -2  10   7 4498.86 218.217   1
   2 -10  -7 4992.02 223.878   1
   2 -10  -7 5046.50 208.957   2
   2  10  -6 109.115 28.1562   2
   2 -10  -6 134.790 48.8046   1
   2 -10  -6 154.898 47.1601   2
   2 -10  -5 14582.3 362.593   1
   2  10  -5 14654.9 216.002   2
   2 -10  -5 14668.5 312.650   2
  -2 -10   4 6221.54 127.019   1
   2 -10  -4 6626.56 235.017   1
  -2 -10   4 7271.87 151.543   2
   2 -10  -4 6992.25 201.228   2
   2  10  -4 7008.99 146.118   2
   2  10  -3 38620.9 349.535   2
   2 -10  -3 37963.9 543.135   1
  -2 -10   3 39225.4 349.222   2
  -2 -10   3 38144.3 333.667   1
   2 -10  -3 39138.2 435.492   2
   2  10  -2 809.125 55.0797   2
   2 -10  -2 874.316 61.4893   2
   2 -10  -2 907.655 86.0810   1
  -2 -10   2 853.778 54.2865   2
  -2 -10   2 937.399 59.8093   1
   2 -10  -1 34138.2 307.241   2
  -2 -10   1 33579.5 361.683   2
   2 -10  -1 33626.3 496.226   1
   2  10  -1 32908.4 361.170   2
  -2 -10   1 33491.3 378.459   1
   2 -10   0 1875.41 54.7371   2
  -2 -10   0 1902.62 99.7641   1
  -2 -10   0 2270.11 101.416   2
   2  10   0 2203.02 101.272   2
   2 -10   0 2221.91 60.9422   2
  -2 -10  -1 28827.0 390.382   2
   2  10   1 29636.5 424.938   1
   2  10   1 29066.7 392.952   2
  -2 -10  -1 29665.0 414.601   1
  -2 -10  -2 3500.33 152.434   1
   2  10   2 3594.19 150.111   2
   2  10   2 3192.11 145.154   1
  -2 -10  -2 3524.10 148.802   2
  -2 -10  -3 13826.3 320.868   1
   2  10   3 13787.0 315.006   2
  -2 -10  -3 13612.9 308.935   2
   2  10   3 13422.0 313.737   1
  -2 -10  -4 560.238 73.2333   2
  -2 -10  -4 512.198 68.9436   1
   2  10   4 476.750 68.2968   1
   2  10   4 504.847 68.4026   2
   2  10   5 7878.70 264.066   1
  -2 -10  -5 7696.85 259.622   2
   2  10   5 7972.58 269.415   2
  -2 -10  -5 8119.23 272.659   1
  -2  10  -6 689.344 40.6985   2
  -2 -10  -6 896.367 97.8470   2
   2  10   6 653.649 82.0319   1
  -2 -10  -6 867.900 96.0698   1
   2  10   6 822.605 95.1681   2
  -2  10  -6 810.454 44.3315   2
  -2 -10  -7 9768.42 327.365   1
  -2  10  -7 8899.18 172.924   2
  -2  10  -7 8486.50 167.853   2
   2  10   7 9526.44 315.767   1
  -2 -10  -7 9421.43 317.516   2
   2  10   7 9847.62 327.895   2
  -2 -10  -8 156.297 54.8130   2
  -2  10  -8 95.0682 28.6038   2
  -2  10  -9 26129.4 374.563   2
  -2 -10  -9 28013.9 589.322   2
  -2  10 -10-8.00477 26.2704   2
  -2 -10 -10 83.0861 61.9448   2
  -2  10 -11 164.432 42.5532   2
  -2 -10 -11 189.791 76.5629   2
  -2  10 -12 1447.67 110.570   2
  -2 -10 -12 1433.36 154.259   2
  -2  10 -13 88.7387 40.3708   2
  -2 -10 -13 134.269 67.1524   2
  -2 -10 -14 296.438 89.2091   2
  -2  10 -14 250.458 62.3972   2
  -2 -10 -15 2905.39 241.205   2
  -2  10 -15 2455.97 169.695   2
   2 -12 -16-34.4629 63.2823   2
   2  12 -15 439.979 73.9904   2
   2 -12 -15 597.399 119.001   1
   2 -12 -15 500.746 108.451   2
   2  12 -14 3166.75 174.399   2
   2 -12 -14 3539.54 246.354   2
   2 -12 -14 3353.51 257.680   1
   2 -12 -13 149.285 74.3603   2
   2  12 -13 83.3273 40.7955   2
   2 -12 -13-72.5073 58.7963   1
   2  12 -12 4610.50 187.392   2
   2 -12 -12 4967.37 272.569   2
   2  12 -12 4268.28 182.962   2
   2 -12 -12 4971.04 282.886   1
  -2 -12  12 4821.45 168.957   1
   2  12 -11 1987.24 115.801   2
   2 -12 -11 2150.51 183.200   1
   2  12 -11 2142.79 119.634   2
  -2 -12  11 2091.72 102.783   1
   2 -12 -11 2058.94 169.233   2
   2 -12 -10 3402.78 210.533   2
  -2 -12  10 2850.69 111.627   1
   2 -12 -10 3252.52 214.861   1
   2  12 -10 3019.94 132.893   2
   2  12 -10 2793.04 127.990   2
   2 -12  -9 2489.40 168.896   2
   2 -12  -9 2265.89 173.179   1
   2  12  -9 2470.27 112.275   2
   2  12  -9 2212.24 106.904   2
   2 -12  -8 388.877 75.7547   1
   2 -12  -8 436.763 75.7055   2
   2  12  -8 463.275 46.4191   2
   2  12  -7 3725.98 117.057   2
   2 -12  -7 3484.56 199.212   1
   2 -12  -7 3771.46 186.990   2
   2 -12  -6 11864.2 316.734   2
   2  12  -6 11067.2 191.463   2
   2 -12  -6 11748.7 353.921   1
   2  12  -5 129.507 24.2434   2
  -2 -12   5 114.719 23.9983   1
   2 -12  -5 69.4004 39.0959   1
   2 -12  -5 116.851 39.4276   2
   2  12  -4 8469.78 162.735   2
  -2 -12   4 8660.09 168.119   2
  -2 -12   4 8322.69 168.826   1
   2 -12  -4 9506.73 249.830   2
   2 -12  -4 9384.44 295.949   1
   2 -12  -3 192.887 40.7927   2
   2 -12  -3 90.3527 46.8894   1
  -2 -12   3 89.3107 26.7911   1
   2  12  -3 176.554 27.8009   2
  -2 -12   3 216.425 33.3135   2
   2 -12  -2 12017.3 227.810   2
   2  12  -2 12849.5 225.449   2
  -2 -12   2 13031.7 218.842   2
   2 -12  -2 11991.6 325.138   1
  -2 -12   2 12582.4 241.192   1
   2 -12  -1 5793.69 135.189   2
   2 -12  -1 5237.32 214.256   1
   2  12  -1 5833.86 162.403   2
  -2 -12   1 6176.83 165.140   2
  -2 -12   1 5715.29 174.052   1
   2  12   0 18641.9 316.140   2
  -2 -12   0 18709.6 340.365   1
   2 -12   0 16109.3 170.713   2
  -2 -12   0 18492.4 311.188   2
  -2 -12  -1 47.8283 30.1570   2
  -2 -12  -1 61.7863 33.1730   1
   2  12   1 76.8117 27.9213   2
  -2 -12  -2 10236.4 282.665   1
   2  12   2 10237.9 266.699   2
  -2 -12  -2 10348.7 269.508   2
   2  12   2 9844.20 284.226   1
   2  12   3 311.260 54.5352   2
  -2 -12  -3 312.450 59.7217   1
  -2 -12  -3 446.589 65.4815   2
   2  12   3 213.634 46.6983   1
   2  12   4 3568.11 185.254   1
  -2 -12  -4 3476.08 186.040   1
  -2 -12  -4 3539.06 178.023   2
   2  12   4 3710.30 183.819   2
   2  12   5 149.205 56.0198   2
  -2 -12  -5 36.0254 47.4429   2
   2  12   5 172.622 62.3745   1
  -2 -12  -5 131.465 53.3031   1
  -2 -12  -6 54981.3 761.989   2
   2  12   6 53564.4 775.700   1
  -2 -12  -6 54826.6 781.308   1
   2  12   6 55156.1 766.283   2
  -2 -12  -7 2687.04 183.041   1
  -2 -12  -7 2756.63 179.085   2
   2  12   7 2702.81 180.278   2
  -2 -12  -8 510.972 87.5610   2
  -2  12  -8 402.248 34.5070   2
  -2  12  -8 447.952 38.2730   2
  -2  12  -9 330.828 40.0719   2
  -2 -12  -9 475.533 91.7133   2
  -2  12  -9 394.624 43.2776   2
  -2  12 -10 611.627 57.5830   2
  -2  12 -10 618.178 56.9172   2
  -2 -12 -10 687.765 108.245   2
  -2 -12 -11-23.5252 47.5378   2
  -2  12 -11-6.95512 29.7138   2
  -2 -12 -12 10899.0 429.518   2
  -2  12 -12 9948.01 263.266   2
  -2 -12 -13 700.801 125.057   2
  -2 -12 -14 2885.17 236.112   2
  -2 -12 -15 2959.44 250.814   2
   2 -14 -16 25.6362 64.1821   2
   2 -14 -15 7584.33 401.280   1
   2 -14 -15 7751.73 390.511   2
   2 -14 -14 126.217 76.4034   1
   2 -14 -14 36.4830 57.1510   2
   2 -14 -13 849.982 133.768   1
   2 -14 -13 1060.81 142.050   2
   2 -14 -12 2040.81 178.751   2
   2  14 -12 1632.53 101.941   2
   2 -14 -12 1997.23 191.927   1
   2  14 -11 4303.70 153.755   2
   2 -14 -11 5208.04 292.596   1
   2 -14 -11 5167.40 275.648   2
   2  14 -10 235.939 38.9909   2
   2  14 -10 167.575 34.7981   2
   2 -14 -10 353.944 88.9395   1
  -2 -14  10 187.615 30.2407   1
   2 -14 -10 96.0100 52.0751   2
   2  14  -9 15897.2 254.352   2
   2 -14  -9 18585.0 477.515   2
   2 -14  -9 18533.8 514.444   1
   2 -14  -8 554.088 94.0771   1
   2 -14  -8 516.540 84.0255   2
   2  14  -8 399.215 40.1731   2
   2  14  -8 373.168 36.0226   2
  -2 -14   7 9869.48 180.002   1
   2 -14  -7 12642.4 405.248   1
   2 -14  -7 13300.1 368.530   2
   2 -14  -6 1767.08 153.355   1
   2 -14  -6 2100.19 140.475   2
   2  14  -6 1553.26 66.8872   2
  -2 -14   6 1406.03 68.0073   1
   2 -14  -5 1749.25 148.044   1
   2  14  -5 1421.53 64.0911   2
  -2 -14   5 1735.63 83.5348   1
   2 -14  -5 1779.83 123.309   2
   2 -14  -4 1406.87 125.463   1
   2 -14  -4 1607.01 109.082   2
  -2 -14   4 1596.17 73.0139   2
   2  14  -4 1339.22 65.2525   2
  -2 -14   4 1321.08 75.8344   1
   2 -14  -3 11431.5 341.724   1
  -2 -14   3 11055.6 198.883   2
   2 -14  -3 11345.7 260.847   2
   2  14  -3 10585.1 195.467   2
  -2 -14   3 10644.3 228.118   1
   2 -14  -2 1128.73 72.6403   2
  -2 -14   2 1238.67 72.5394   2
   2  14  -2 1146.23 70.7437   2
  -2 -14   2 1095.63 80.5261   1
   2 -14  -2 972.588 104.918   1
  -2 -14   1 6487.19 179.618   2
   2 -14  -1 6281.53 145.800   2
   2 -14  -1 6672.04 252.899   1
   2  14  -1 6341.97 179.780   2
  -2 -14   1 6229.78 202.447   1
   2 -14   0 1159.56 110.644   1
  -2 -14   0 1275.29 99.3605   1
   2 -14   0 1034.50 45.5687   2
   2  14   0 1385.92 90.5244   2
   2 -14   0 1028.79 41.0253   2
  -2 -14   0 1506.55 96.9761   2
   2  14   1 50.6322 25.4694   2
  -2 -14  -1 88.4824 40.7630   1
  -2 -14  -1 75.5240 34.4026   2
   2  14   2 726.732 78.4040   2
  -2 -14  -2 723.386 81.2992   1
  -2 -14  -2 860.946 81.8081   2
   2  14   3 26045.2 479.100   2
  -2 -14  -3 26312.4 479.155   2
  -2 -14  -3 24709.3 487.192   1
  -2 -14  -4 506.253 79.8785   2
  -2 -14  -4 354.413 69.6226   1
   2  14   4 278.856 65.5531   1
   2  14   4 461.488 73.6940   2
  -2 -14  -5 1173.17 122.696   1
  -2 -14  -5 1233.20 116.324   2
   2  14   5 1309.17 122.123   2
   2  14   5 1157.38 120.424   1
  -2 -14  -6 77.0005 54.6706   1
   2  14   6 74.8184 53.4082   2
  -2 -14  -6 126.923 60.4133   2
  -2 -14  -7 621.474 98.1475   1
  -2 -14  -7 662.724 100.812   2
  -2 -14  -8 1549.33 151.857   2
  -2 -14  -8 1263.38 143.126   1
  -2 -14  -9 9819.45 383.248   2
  -2 -14 -10 498.578 95.3818   2
  -2 -14 -11 2641.95 211.940   2
  -2 -14 -12 121.262 66.4588   2
  -2 -14 -13 579.334 122.383   2
  -2 -14 -14 7.36166 62.1273   2
   2 -16 -15 61.6842 77.7520   2
   2 -16 -14 1426.35 174.569   2
   2 -16 -14 1544.77 192.142   1
   2 -16 -13 545.085 107.958   2
   2 -16 -13 493.054 114.122   1
   2 -16 -12 6032.44 326.792   2
   2 -16 -12 6065.38 343.933   1
   2 -16 -11 3122.47 241.155   1
   2 -16 -11 3619.35 243.458   2
   2 -16 -10 846.803 129.752   1
   2 -16 -10 1069.16 128.475   2
   2 -16  -9 1801.13 158.933   2
   2 -16  -9 1485.17 159.698   1
  -2 -16   8 2104.20 80.5889   1
   2 -16  -8 2848.97 190.007   2
   2 -16  -8 2804.94 213.329   1
  -2 -16   7 108.824 25.1093   1
   2 -16  -7 146.435 66.5586   1
   2 -16  -7 80.7107 50.7899   2
   2 -16  -6 19750.7 447.013   2
   2 -16  -6 19099.4 510.943   1
   2 -16  -5 1329.69 113.776   2
   2 -16  -5 1088.80 121.761   1
   2  16  -5 539.793 34.6097   2
  -2 -16   5 970.894 65.9201   1
  -2 -16   4 228.978 39.5468   1
  -2 -16   4 304.285 33.7361   2
   2  16  -4 164.590 25.6109   2
   2 -16  -4 387.342 79.3185   1
   2 -16  -4 410.778 61.0916   2
   2 -16  -3 405.207 55.3051   2
  -2 -16   3 446.839 42.0389   2
   2 -16  -3 304.069 66.5910   1
   2  16  -3 369.732 37.5900   2
  -2 -16   3 355.654 50.2607   1
   2 -16  -2 6133.61 174.339   2
  -2 -16   2 6032.97 201.084   1
   2  16  -2 5912.29 162.825   2
  -2 -16   2 6356.33 165.020   2
   2 -16  -2 5874.27 258.607   1
   2 -16  -1 8401.62 302.991   1
   2  16  -1 9129.32 223.026   2
  -2 -16   1 9731.88 224.650   2
   2 -16  -1 8607.53 169.205   2
  -2 -16   1 8744.61 255.016   1
   2  16   0 3069.43 142.065   2
  -2 -16   0 3168.27 142.714   2
  -2 -16   0 3028.56 161.417   1
   2 -16   0 3114.23 183.010   1
   2  16   1 168.953 40.6048   2
   2 -16   1 195.402 49.2880   1
  -2 -16  -1 159.520 51.5058   1
  -2 -16  -1 113.784 41.6435   2
   2  16   2 481.472 65.1127   2
  -2 -16  -2 522.601 71.9469   2
  -2 -16  -2 633.240 86.2962   1
   2 -16   2 523.506 76.2008   1
  -2 -16  -3 2382.27 152.181   2
   2  16   3 2136.24 143.716   2
  -2 -16  -3 2105.86 154.932   1
   2  16   4 93.9770 44.9940   2
  -2 -16  -4 131.926 52.2802   2
  -2 -16  -4 71.5684 44.6210   1
  -2 -16  -5 743.481 102.152   2
   2  16   5 822.017 108.123   2
  -2 -16  -5 899.380 111.896   1
  -2 -16  -6 15438.9 463.453   1
  -2 -16  -6 16297.6 460.008   2
  -2 -16  -7 505.460 97.9809   1
  -2 -16  -7 430.530 88.0639   2
  -2 -16  -8 5827.03 304.226   1
  -2 -16  -8 5961.79 300.898   2
  -2 -16  -9 35.4250 51.4572   2
  -2 -16 -10 3597.30 254.046   2
  -2 -16 -11 1759.71 266.813   2
  -2 -16 -12 5181.09 323.591   2
  -2 -16 -13-55.8956 71.2011   2
   2 -18 -14 89.7569 83.2314   2
   2 -18 -13 1047.64 151.061   2
   2 -18 -12 1128.10 156.686   1
   2 -18 -12 1193.38 151.126   2
   2 -18 -11 1968.99 186.684   2
   2 -18 -11 2038.68 204.992   1
   2 -18 -10 91.1773 67.5579   1
   2 -18 -10 150.025 74.1814   2
   2 -18  -9 11658.9 462.316   1
   2 -18  -9 12576.6 432.472   2
   2 -18  -8 486.837 85.0805   2
   2 -18  -8 223.710 82.4415   1
   2 -18  -7 324.114 93.4317   1
   2 -18  -7 346.247 79.7014   2
   2 -18  -6 2433.67 164.770   2
   2 -18  -6 2021.97 174.649   1
  -2 -18   5 2657.79 116.492   1
   2 -18  -5 3343.27 182.084   2
   2 -18  -5 3086.15 212.548   1
   2 -18  -4 403.659 64.9770   2
  -2 -18   4 406.189 53.9967   1
   2 -18  -4 475.088 97.2415   1
   2 -18  -3 9695.34 253.915   2
  -2 -18   3 8312.06 172.776   2
  -2 -18   3 8820.51 246.900   1
   2 -18  -3 9562.80 359.930   1
   2 -18  -2 4486.70 146.327   2
   2  18  -2 3845.02 128.874   2
   2 -18  -2 3878.08 223.488   1
  -2 -18   2 4076.58 176.293   1
  -2 -18   2 4488.79 140.162   2
   2 -18  -1 5234.26 136.465   2
   2 -18  -1 5141.13 251.245   1
   2 -18  -1 4634.37 115.021   2
  -2 -18   1 5337.82 169.017   2
  -2 -18   1 4949.78 205.988   1
   2  18  -1 5075.95 164.940   2
   2 -18   0 573.317 93.5739   1
  -2 -18   0 688.133 87.7326   1
  -2 -18   0 860.439 78.8123   2
   2  18   0 792.682 75.8364   2
   2  18   1 208.299 50.5290   2
   2 -18   1 140.904 53.9823   1
  -2 -18  -1 135.531 52.1332   1
  -2 -18  -1 156.156 43.9311   2
  -2 -18  -2 104.409 52.2427   1
   2  18   2-16.2148 36.2727   2
  -2 -18  -2 37.0588 36.4835   2
   2 -18   2 56.7984 41.2716   1
   2  18   3 5743.57 240.659   2
   2 -18   3 5029.01 234.146   1
  -2 -18  -3 5370.57 260.001   1
  -2 -18  -3 5815.41 245.159   2
  -2 -18  -4 44.9757 39.7328   2
   2  18   4 113.218 52.1550   2
  -2 -18  -4 56.3351 55.8367   1
   2 -18   4 47.0232 38.3180   1
  -2 -18  -5 2028.28 174.918   1
  -2 -18  -5 2076.80 165.612   2
  -2 -18  -6 4848.66 260.757   2
  -2 -18  -6 3790.59 242.674   1
  -2 -18  -7 71.1134 52.0687   2
  -2 -18  -7 130.534 64.7159   1
  -2 -18  -8 131.652 56.8286   2
  -2 -18  -9 10336.2 423.631   2
  -2 -18 -10-52.6206 74.6587   2
  -2 -18 -11 1286.86 172.281   2
  -2 -18 -12 1105.74 171.031   2
   2 -20 -13 67.9318 71.3007   2
   2 -20 -12 1573.77 181.223   2
   2 -20 -11 105.166 64.3623   2
   2 -20 -11-68.9232 83.4442   1
   2 -20 -10 1022.43 134.743   2
   2 -20 -10 811.384 139.588   1
   2 -20  -9 3480.59 235.893   2
   2 -20  -9 3120.34 248.683   1
   2 -20  -8 1700.71 162.388   2
   2 -20  -8 1455.98 178.079   1
   2 -20  -7-39.2447 48.9381   2
   2 -20  -7-46.6554 63.2239   1
   2 -20  -6 7099.46 357.913   1
   2 -20  -6 8286.42 311.108   2
   2 -20  -5-27.0444 55.5781   1
   2 -20  -5-31.6520 42.7200   2
   2 -20  -4 2391.62 194.816   1
   2 -20  -3 156.363 57.5896   1
   2 -20  -2 4918.30 263.957   1
  -2 -20   2 5219.07 210.450   1
   2 -20  -1 2076.83 169.147   1
  -2 -20   1 2175.62 142.824   1
  -2 -20   0 5695.55 245.645   1
   2 -20   0 5567.51 266.175   1
  -2 -20  -1 627.610 74.0550   2
  -2 -20  -1 455.013 86.1464   1
   2 -20   1 632.784 99.1144   1
   2 -20   2 3743.07 211.982   1
  -2 -20  -2 3738.35 216.011   1
  -2 -20  -2 4367.17 202.976   2
  -2 -20  -3 670.191 103.313   1
   2 -20   3 446.677 75.7231   1
  -2 -20  -3 885.813 101.915   2
   2 -20   4 491.770 78.4081   1
  -2 -20  -4 830.588 108.864   2
  -2 -20  -4 841.314 120.300   1
  -2 -20  -5 439.828 84.3981   2
  -2 -20  -5 389.936 99.1507   1
  -2 -20  -6 4801.51 289.006   1
  -2 -20  -6 5130.48 279.110   2
  -2 -20  -7 453.837 101.184   2
  -2 -20  -8 2317.53 209.515   2
  -2 -20  -9 360.070 110.341   2
  -2 -20 -10 997.011 149.202   2
  -2 -20 -11 129.654 76.6676   2
   2 -22  -9 1454.22 180.043   1
   2 -22  -8-1.27395 66.3596   1
   2 -22  -7 608.725 116.967   1
   2 -22  -6 112.807 82.6496   1
   2 -22  -5 1109.17 155.492   1
   2 -22  -4 155.999 56.4269   1
   2 -22  -3 4247.55 266.893   1
   2 -22  -2 87.5918 64.3094   1
   2 -22  -1 1227.14 138.307   1
   2 -22   0 1570.08 148.717   1
   2 -22   1 1202.29 130.070   1
  -2 -22  -2 104.707 56.6411   1
  -2 -22  -3 5101.43 272.766   1
  -2 -22  -4 1098.17 137.966   1
  -2 -22  -5 1635.68 172.808   1
   2 -24  -7-95.2908 89.1875   1
   2 -24  -6 3113.55 249.159   1
   2 -24  -5 307.733 101.768   1
   2 -24  -4 888.915 137.984   1
   2 -24  -3 734.800 123.726   1
   3  -1 -20 116.303 80.3287   2
   3   1 -20 49.9589 85.6760   2
   3  -1 -19 5209.39 331.432   2
   3   1 -19 5030.20 314.968   2
   3   1 -18 747.288 127.887   2
   3  -1 -18 609.012 126.455   2
   3  -1 -17 74.6157 60.0716   2
   3   1 -17 111.121 66.9713   2
   3   1 -16 2954.49 220.006   2
   3  -1 -16 2847.11 224.227   2
   3  -1 -15 160.894 74.4923   2
   3   1 -15 101.650 52.1886   2
   3   1 -14 243.994 69.5500   2
  -3  -1  14 297.221 74.5317   1
   3  -1 -14 239.803 66.0165   2
   3  -1 -13 3610.86 215.173   2
  -3  -1  13 4063.72 211.057   1
  -3   1  13 3852.10 210.325   1
   3   1 -13 4088.14 227.063   2
  -3  -1  12 1324.81 114.166   1
  -3   1  12 1346.06 123.687   1
   3  -1 -12 1154.56 118.972   2
   3   1 -12 1150.06 117.692   2
  -3  -1  11 1690.56 126.424   1
   3   1 -11 1654.16 129.736   2
  -3   1  11 1787.28 132.082   1
   3  -1 -11 1744.10 128.900   1
   3  -1 -11 1656.10 139.641   2
   3  -1 -10 20947.0 440.013   2
  -3  -1  10 21355.9 399.634   1
   3  -1 -10 20499.8 400.846   1
  -3   1  10 21301.1 421.223   1
  -3  -1   9 9694.26 253.164   1
   3   1  -9 10182.9 248.922   1
   3  -1  -9 9666.74 256.668   1
  -3   1   9 10039.6 272.858   1
  -3  -1   8 12108.1 258.631   1
   3   1  -8 12074.0 248.962   1
   3  -1  -8 11862.5 268.421   1
  -3   1   8 12254.2 280.303   1
   3   1  -7 24506.8 325.820   1
  -3  -1   7 24880.4 340.024   1
   3  -1  -7 24336.3 361.483   1
  -3   1   7 24654.0 372.954   1
  -3  -1   6 67.9796 25.5694   1
   3  -1  -6-9.98040 30.3933   1
   3   1  -6 24.3400 26.1366   1
  -3   1   6-35.0942 33.5194   1
   3  -1  -5 2601.36 104.905   1
  -3   1   5 2710.64 106.753   1
  -3  -1   5 2611.45 91.4290   1
   3   1  -5 2530.00 90.6382   1
   3   1  -5 2685.20 110.957   2
   3   1  -4 1246.94 56.6158   1
   3  -1  -4 1261.48 69.9391   1
   3  -1  -4 1418.44 73.0665   2
   3   1  -4 1382.31 71.3524   2
  -3  -1   4 1393.51 73.9817   2
   3   1  -3 458.416 43.8260   2
  -3  -1   3 377.582 43.2489   2
  -3   1   3 387.114 46.2912   2
   3  -1  -3 333.578 40.4030   2
   3  -1  -2 75701.0 431.978   2
  -3   1   2 75886.3 429.500   2
   3   1  -2 74918.6 432.700   2
  -3  -1   2 72060.1 422.704   2
   3   1  -1 40839.5 317.284   2
   3  -1  -1 40007.6 288.643   2
  -3   1   1 39315.2 287.677   2
  -3  -1   1 39446.3 311.623   2
   3  -1   0 2093.80 70.7613   2
  -3   1   0 2199.73 73.4477   2
  -3  -1   0 2087.61 79.7420   2
   3   1   0 2085.97 77.8623   2
   3  -1   1 3084.06 92.7030   2
  -3  -1  -1 3052.10 101.046   2
  -3   1  -1 3052.39 90.7780   2
   3   1   1 3111.41 100.119   2
  -3  -1  -2 9534.75 189.685   2
   3  -1   2 9268.83 170.487   2
   3   1   2 9430.08 185.284   2
  -3   1  -2 9672.63 175.761   2
  -3  -1  -3 1816.54 94.5991   2
   3   1   3 1873.76 92.1279   2
  -3   1  -3 1866.88 90.9821   2
   3  -1   3 1702.17 84.0027   2
  -3  -1  -4 41641.7 465.016   2
   3   1   4 40904.5 459.577   2
   3  -1   4 41366.4 437.061   2
  -3   1  -4 41965.8 438.283   2
   3   1   5 91793.3 743.208   2
  -3   1  -5 93775.4 716.237   2
  -3  -1  -5 93443.6 752.703   2
   3  -1   5 91405.3 711.201   2
   3  -1   6 556.634 67.4837   2
  -3   1  -6 456.331 58.8985   2
  -3  -1  -6 528.991 70.4710   2
   3   1   6 600.250 77.0574   2
  -3   1  -7 11369.6 295.634   2
   3   1   7 11251.3 301.486   2
  -3  -1  -7 11181.0 304.850   2
   3  -1   7 11138.5 288.718   2
   3   1   8 8430.88 284.060   1
  -3   1  -8 8043.20 263.780   2
  -3  -1  -8 8203.22 276.949   2
   3   1   8 7804.54 259.814   2
   3  -1   8 7901.74 261.201   2
  -3  -1  -9 825.283 96.7803   2
   3   1   9 655.109 85.8159   2
  -3   1  -9 732.940 88.4235   2
   3  -1   9 727.457 88.6648   2
   3   1   9 781.761 95.6015   1
   3  -1  10 1609.46 139.352   2
  -3  -1 -10 1525.88 136.787   2
   3   1  10 1647.77 140.264   2
  -3   1 -10 1731.15 140.230   2
   3   1  10 1733.85 148.594   1
   3  -1  10 1652.99 141.177   1
  -3  -1 -11 3148.84 197.861   2
  -3   1 -11 3215.47 198.497   2
  -3   1 -12 287.794 75.1284   2
  -3  -1 -12 249.825 73.2950   2
  -3   1 -13 1089.65 127.536   2
  -3  -1 -13 1150.62 136.423   2
  -3  -1 -14 2673.14 207.937   2
  -3   1 -14 2694.02 210.134   2
  -3   1 -15 2312.59 196.059   2
  -3  -1 -15 2305.35 203.289   2
  -3  -1 -16 5227.16 316.690   2
  -3   1 -16 5237.10 308.241   2
  -3   1 -17 376.940 99.5376   2
  -3  -1 -17 191.464 80.2933   2
  -3   1 -18 490.362 117.336   2
  -3  -1 -18 519.562 118.771   2
   3   3 -20 1692.49 188.880   2
   3  -3 -19 1823.80 205.130   2
   3   3 -19 1374.70 171.236   2
   3   3 -18 260.072 89.2131   2
   3  -3 -18-64.0918 62.0020   2
   3   3 -17 470.931 97.9686   2
   3  -3 -17 530.276 114.613   2
   3  -3 -16 6758.50 343.143   2
   3   3 -16 6524.47 310.948   2
  -3  -3  15 1585.84 143.941   1
   3   3 -15 1536.44 150.381   2
   3  -3 -15 1530.02 158.701   2
   3   3 -14 2955.24 189.792   2
  -3  -3  14 3003.03 184.946   1
   3  -3 -14 3358.16 216.628   2
   3  -3 -13 4425.88 230.136   1
   3  -3 -13 4628.49 249.687   2
   3   3 -13 4476.57 229.088   2
  -3  -3  13 4890.14 222.748   1
   3   3 -12 1101.11 118.202   2
  -3  -3  12 1301.45 112.050   1
   3  -3 -12 1160.56 115.721   1
  -3   3  12 1259.77 124.043   1
   3  -3 -12 1138.31 126.711   2
   3  -3 -11 4454.95 207.993   1
  -3  -3  11 4456.49 186.102   1
   3  -3 -11 4712.76 223.464   2
  -3   3  11 4634.96 221.050   1
  -3   3  10 13086.6 347.138   1
  -3  -3  10 13009.9 293.752   1
   3  -3 -10 12407.2 327.271   1
   3  -3 -10 12758.2 355.541   2
   3  -3  -9 86.6849 43.6534   1
   3  -3  -9 117.772 53.9922   2
  -3   3   9 82.3226 38.2770   1
  -3  -3   9 112.925 37.1178   1
  -3  -3   8 13330.3 252.124   1
   3  -3  -8 12895.7 300.661   1
  -3   3   8 13160.2 314.752   1
  -3   3   7 10520.9 263.176   1
   3  -3  -7 10289.3 256.072   1
  -3  -3   7 10506.7 199.144   1
   3   3  -7 10476.7 240.090   2
   3  -3  -6 1134.66 87.3578   1
   3   3  -6 1219.86 58.9512   1
  -3  -3   6 1236.00 61.4709   1
   3   3  -6 1196.35 80.2496   2
  -3   3   6 1257.71 89.6904   1
  -3  -3   5 18902.9 192.105   1
   3   3  -5 18709.9 184.596   1
   3  -3  -5 19984.2 313.892   1
   3   3  -5 19109.2 279.919   2
  -3  -3   4 63303.4 475.200   2
   3   3  -4 62380.5 457.484   2
   3  -3  -4 59183.1 523.480   1
   3   3  -3 85528.5 499.426   2
  -3  -3   3 86869.8 503.305   2
   3  -3  -3 85706.0 518.141   2
   3  -3  -2 942.700 53.6972   2
  -3  -3   2 924.604 55.6110   2
   3   3  -2 894.927 54.4150   2
   3  -3  -1 138.734 23.1901   2
   3   3  -1 99.1475 26.6096   2
  -3   3   1 139.497 25.6828   2
  -3  -3   1 146.661 34.7716   2
  -3   3   0 1431.43 50.8001   2
   3   3   0 1188.96 65.9988   2
   3  -3   0 1299.69 50.6235   2
  -3  -3   0 1243.72 66.0110   2
  -3  -3  -1 13007.1 223.815   2
   3   3   1 13128.2 220.917   2
   3  -3   1 12786.5 163.663   2
  -3   3  -1 13604.2 166.725   2
  -3  -3  -2 20564.2 295.810   2
   3  -3   2 18890.9 221.800   2
   3   3   2 20571.6 293.657   2
  -3   3  -2 20210.8 224.861   2
  -3   3  -3 1794.38 78.4340   2
  -3  -3  -3 2021.12 104.297   2
   3   3   3 1886.96 98.3060   2
   3  -3   3 1877.88 79.4751   2
   3   3   4 34554.3 443.569   2
  -3  -3  -4 34476.3 446.522   2
  -3   3  -4 34006.1 369.800   2
   3   3   4 35015.5 451.359   1
   3  -3   4 34297.2 375.278   2
  -3   3  -5 29944.3 383.498   2
  -3  -3  -5 30003.0 451.247   2
   3   3   5 30468.4 447.456   2
   3  -3   5 30063.4 388.161   2
   3   3   5 32256.8 467.011   1
  -3   3  -6 1531.00 96.1875   2
   3   3   6 1782.78 118.557   1
   3  -3   6 1647.94 101.301   2
   3   3   6 1715.50 115.645   2
  -3  -3  -6 1704.19 116.880   2
  -3  -3  -7 11286.2 314.636   2
   3  -3   7 11724.1 285.988   2
  -3   3  -7 11750.5 284.481   2
   3   3   7 11827.7 315.381   2
   3   3   7 12187.8 326.032   1
  -3  -3  -8 9396.12 299.700   2
   3   3   8 9611.90 306.704   1
   3   3   8 9315.14 297.213   2
  -3   3  -8 9507.76 275.613   2
   3  -3   8 9748.90 279.877   2
   3  -3   9 788.111 89.5668   2
   3   3   9 702.590 95.0618   1
  -3  -3  -9 611.314 88.9225   2
  -3   3  -9 774.837 94.0043   2
   3   3   9 642.442 84.7720   2
  -3   3 -10 9125.65 306.275   2
  -3  -3 -10 9333.86 332.489   2
  -3  -3 -11 10717.9 375.795   2
  -3   3 -11 10637.9 351.601   2
   3  -3  11 9687.87 339.624   1
  -3  -3 -12 4942.20 269.573   2
  -3   3 -12 4910.15 249.698   2
  -3  -3 -13 3336.14 232.230   2
  -3   3 -13 3491.95 221.519   2
  -3  -3 -14 1461.72 168.298   2
  -3   3 -14 1413.68 148.687   2
  -3   3 -15 335.268 93.6878   2
  -3  -3 -15 311.856 93.7990   2
  -3  -3 -16 7010.82 372.602   2
  -3   3 -16 6750.47 341.297   2
  -3  -3 -17-162.833 90.6343   2
  -3   3 -17-68.8711 64.0761   2
  -3   3 -18 130.550 81.0460   2
   3   5 -21 410.470 114.099   2
   3   5 -20 145.778 79.5772   2
   3   5 -19 4998.88 298.950   2
   3  -5 -19 5743.34 364.856   2
   3  -5 -18 98.1264 76.8487   2
   3   5 -18-25.3383 52.8360   2
   3   5 -17 1969.18 180.003   2
   3  -5 -17 2698.93 228.175   2
   3  -5 -16 110.363 68.8529   2
   3   5 -16 28.9223 54.7515   2
  -3  -5  15 1840.37 146.202   1
   3  -5 -15 2156.66 189.440   2
   3   5 -15 1858.91 158.925   2
  -3  -5  14 1728.00 135.149   1
   3  -5 -14 1631.47 153.925   1
   3   5 -14 1554.35 136.332   2
   3  -5 -14 1810.77 169.508   2
   3  -5 -13 8097.49 318.027   1
   3   5 -13 8003.16 295.112   2
   3  -5 -13 8780.28 341.972   2
  -3  -5  13 8514.12 274.219   1
   3   5 -12 2351.42 152.339   2
   3  -5 -12 2865.00 191.323   2
   3  -5 -12 2703.39 176.601   1
  -3  -5  12 2535.10 140.583   1
   3  -5 -11 12472.4 371.153   2
   3  -5 -11 11815.7 351.429   1
   3   5 -11 13006.7 336.598   2
  -3   5  11 11893.0 364.184   1
  -3  -5  11 12389.3 290.087   1
   3  -5 -10 12622.3 348.070   1
  -3  -5  10 12919.1 273.591   1
   3  -5 -10 13113.1 362.304   2
   3   5 -10 12608.9 316.012   2
  -3   5  10 13456.4 370.844   1
   3  -5  -9 179.444 52.1115   1
   3  -5  -9 196.315 58.1663   2
  -3   5   9 126.404 46.1862   1
   3   5  -9 212.592 41.8040   2
  -3  -5   9 182.047 35.2560   1
  -3  -5   8 7217.69 166.889   1
   3  -5  -8 7114.23 237.273   1
  -3   5   8 7442.80 250.965   1
   3   5  -8 6900.62 206.227   2
   3  -5  -8 7254.32 247.089   2
   3  -5  -7 11648.4 295.343   1
   3   5  -7 12050.4 250.516   2
   3  -5  -7 12151.6 297.228   2
  -3  -5   7 12327.7 188.604   1
  -3   5   7 12913.5 317.250   1
  -3  -5   6 2789.14 76.1462   1
   3  -5  -6 2933.40 141.783   1
   3   5  -6 2490.65 109.998   2
  -3   5   6 3586.55 164.493   1
   3   5  -5 4217.54 126.889   2
  -3  -5   5 4292.57 134.088   2
   3  -5  -5 3864.62 152.573   1
  -3  -5   4 10564.4 196.370   2
   3   5  -4 9811.28 183.607   2
   3  -5  -4 10951.6 252.151   1
  -3  -5   3 22619.1 268.898   2
   3   5  -3 22552.2 265.958   2
   3   5  -2 5114.06 81.6953   1
  -3  -5   2 5623.41 134.372   2
   3   5  -2 5664.99 134.514   2
   3  -5  -2 5695.28 124.616   2
   3   5  -1 210.910 36.2468   2
   3  -5  -1 172.478 23.2651   2
  -3  -5   1 214.687 40.1141   2
   3   5  -1 143.201 24.1990   1
  -3  -5   0 18363.8 263.572   2
   3  -5   0 18848.0 167.426   2
   3   5   0 19030.0 267.328   2
  -3   5   0 19160.2 170.488   2
   3   5   0 18184.8 230.867   1
  -3  -5  -1 27603.0 345.636   2
   3   5   1 27382.6 342.614   2
   3  -5   1 26237.4 199.318   2
   3   5   1 26403.0 314.772   1
  -3   5  -1 27128.5 198.408   2
  -3  -5  -2 1928.49 101.194   2
   3  -5   2 1900.90 62.1410   2
   3   5   2 1977.44 102.262   2
   3   5   2 2057.46 102.799   1
  -3   5  -2 1907.61 61.5873   2
  -3  -5  -3 5858.60 190.285   2
   3   5   3 5742.92 183.761   2
   3  -5   3 5616.71 123.929   2
   3   5   3 6121.92 181.638   1
  -3   5  -3 5825.42 122.138   2
  -3   5  -4 11321.9 195.119   2
  -3  -5  -4 11572.1 276.239   2
   3   5   4 12059.4 273.992   1
   3   5   4 12041.6 280.323   2
   3  -5   4 11647.3 203.778   2
  -3   5  -5 10835.4 214.782   2
   3   5   5 11000.3 282.309   2
  -3  -5  -5 11279.5 285.464   2
   3   5   5 10881.5 279.484   1
   3  -5   5 10639.4 212.255   2
  -3   5  -6 27.2520 24.0349   2
   3   5   6 33.4203 33.1742   1
  -3  -5  -6-5.24130 35.4597   2
   3  -5   6 38.8264 25.6260   2
   3   5   6 72.0630 47.3615   2
  -3  -5  -7 46314.9 650.219   2
   3   5   7 47016.7 661.736   1
   3   5   7 47029.8 658.504   2
  -3   5  -7 46970.5 535.381   2
   3  -5   7 46943.4 539.610   2
  -3  -5  -8 22342.7 475.985   2
  -3   5  -8 21995.5 396.997   2
   3   5   8 22392.0 474.009   2
   3   5   8 23049.4 484.444   1
  -3  -5  -9 5266.08 243.222   2
   3   5   9 5272.43 245.485   2
  -3   5  -9 5249.41 209.414   2
   3   5   9 5349.79 245.539   1
  -3  -5 -10 770.276 105.110   2
  -3   5 -10 737.539 92.8064   2
  -3   5 -11 8881.32 303.702   2
  -3  -5 -11 9108.04 347.502   2
  -3  -5 -12 3676.20 236.891   2
  -3   5 -12 3646.98 206.653   2
  -3  -5 -13 8660.70 371.509   2
  -3   5 -13 8260.10 321.829   2
  -3   5 -14 2065.89 172.232   2
  -3  -5 -14 2226.53 199.693   2
  -3   5 -15 451.471 97.9757   2
  -3  -5 -15 589.857 112.849   2
  -3  -5 -16 1367.76 177.194   2
  -3   5 -16 1022.65 130.342   2
  -3   5 -17 500.110 93.9910   2
  -3  -5 -17 806.908 141.112   2
  -3   5 -18 161.818 72.6390   2
  -3   5 -19 1504.24 176.174   2
   3   7 -21 359.525 99.5972   2
   3   7 -20 220.047 68.6700   2
   3   7 -19 2120.89 195.142   2
   3   7 -18 271.664 77.6638   2
   3  -7 -18 203.522 83.1549   2
   3  -7 -17 4647.68 304.346   2
   3   7 -17 3766.21 236.200   2
   3  -7 -16 3950.56 268.211   2
   3   7 -16 3254.40 214.534   2
   3   7 -15 181.321 62.6690   2
   3  -7 -15 320.592 92.4478   2
  -3  -7  15 229.470 62.7873   1
   3  -7 -15 208.784 82.0347   1
   3   7 -14 2876.08 182.654   2
  -3  -7  14 3155.40 168.136   1
   3   7 -14 2839.52 177.595   2
   3  -7 -14 3352.27 225.249   2
   3  -7 -14 3317.33 222.497   1
   3   7 -13 486.356 77.6471   2
   3   7 -13 386.487 69.4818   2
   3  -7 -13 579.067 102.254   1
  -3  -7  13 444.038 65.5518   1
   3  -7 -13 628.198 104.391   2
   3  -7 -12 41.3994 56.0784   2
   3   7 -12 131.924 49.8877   2
  -3  -7  12 58.1697 36.8596   1
   3   7 -12 31.9417 33.4027   2
   3  -7 -12 119.976 57.0835   1
   3   7 -11 4336.13 194.902   2
   3  -7 -11 4596.45 230.602   1
   3  -7 -11 4447.27 235.688   2
  -3  -7  11 4482.40 164.110   1
   3   7 -10 20853.8 398.438   2
  -3   7  10 20674.7 484.765   1
  -3  -7  10 20789.5 321.005   1
   3  -7 -10 21189.6 475.192   2
   3  -7 -10 19466.7 453.296   1
   3  -7  -9 269.392 59.5972   2
  -3  -7   9 289.464 38.9004   1
   3   7  -9 347.984 53.7770   2
  -3   7   9 193.778 51.5238   1
   3  -7  -9 293.389 60.9420   1
  -3   7   8 14404.6 373.188   1
   3   7  -8 15447.2 298.143   2
  -3  -7   8 14982.7 214.301   1
   3  -7  -8 14797.2 362.830   1
   3  -7  -8 15593.9 356.345   2
   3  -7  -7 7823.95 258.114   1
   3   7  -7 7149.67 190.808   2
  -3   7   7 7740.72 263.135   1
   3  -7  -7 7546.78 240.702   2
  -3  -7   7 6441.14 119.019   1
   3  -7  -6 6054.83 219.507   1
   3   7  -6 6149.90 165.480   2
   3  -7  -6 6265.76 204.711   2
  -3  -7   5 4906.49 143.762   2
   3   7  -5 4845.11 137.868   2
   3  -7  -5 5211.31 196.589   1
   3  -7  -5 5441.28 180.758   2
   3  -7  -4 75123.6 595.285   2
   3  -7  -4 73076.0 704.707   1
   3   7  -4 75615.5 517.456   2
  -3  -7   4 76938.0 528.104   2
   3  -7  -3 39592.7 510.201   1
  -3  -7   3 36562.0 355.122   2
   3   7  -3 36877.7 359.918   2
   3   7  -2 111.764 26.9798   2
   3   7  -2 169.869 25.6276   1
  -3  -7   2 110.130 28.6224   2
   3   7  -1 515.887 41.8622   1
  -3  -7   1 679.443 54.3257   2
   3  -7  -1 644.267 39.1142   2
   3   7  -1 697.204 55.0410   2
   3  -7   0 294.328 22.2536   2
  -3  -7   0 274.659 39.6853   2
   3   7   0 226.898 33.6101   1
   3   7   0 284.801 44.2642   2
  -3  -7  -1 16073.0 284.781   2
   3   7   1 15842.2 280.776   2
   3   7   1 16681.0 276.273   1
   3   7   2 7210.39 202.700   2
   3   7   2 7290.02 198.043   1
  -3  -7  -2 7458.68 209.283   2
  -3  -7  -3 16792.6 328.056   2
   3   7   3 16616.1 327.067   2
   3   7   3 16431.6 323.374   1
  -3   7  -3 14590.4 156.794   2
   3  -7   3 14128.4 158.680   2
  -3   7  -4 16467.3 201.986   2
   3   7   4 16971.5 355.000   2
   3   7   4 16921.7 344.232   1
  -3  -7  -4 17072.0 353.453   2
   3   7   5 5866.51 225.470   2
  -3   7  -5 5446.93 135.944   2
  -3  -7  -5 5724.01 220.464   2
   3   7   5 5662.35 217.050   1
  -3   7  -6 964.222 69.6112   2
   3   7   6 859.523 91.6562   1
   3   7   6 905.602 91.9974   2
  -3  -7  -6 874.685 93.9014   2
  -3  -7  -7 29202.0 535.939   2
   3   7   7 29715.2 544.265   1
  -3   7  -7 28107.5 386.068   2
   3   7   7 29297.5 538.486   2
  -3  -7  -8 32059.6 586.453   2
  -3   7  -8 31265.5 442.031   2
   3   7   8 31718.0 587.108   1
   3   7   8 31839.9 590.786   2
  -3   7  -9 442.298 61.7854   2
  -3  -7  -9 432.050 81.1038   2
  -3  -7 -10 2438.48 181.944   2
  -3   7 -10 2267.68 135.982   2
  -3   7 -11 460.959 73.0646   2
  -3  -7 -11 519.158 97.6001   2
  -3  -7 -12 184.139 58.1254   2
  -3   7 -12 208.607 57.3840   2
  -3   7 -13 5873.47 263.643   2
  -3  -7 -13 6046.80 316.745   2
  -3  -7 -14 4585.82 283.542   2
  -3   7 -14 4296.17 231.700   2
  -3  -7 -15 1935.88 196.930   2
  -3   7 -15 1556.19 150.599   2
  -3   7 -16 4561.76 263.261   2
  -3  -7 -16 4884.00 321.282   2
  -3   7 -17 319.010 78.3960   2
  -3   7 -18 270.115 93.2056   2
   3   9 -19 1951.90 177.929   2
   3  -9 -18 1258.55 172.777   2
   3   9 -18 990.697 127.960   2
   3  -9 -17 1923.10 209.067   2
   3   9 -17 1578.46 150.880   2
   3   9 -16 1176.07 127.971   2
   3  -9 -16 1660.92 182.055   2
   3   9 -15 1901.23 152.537   2
   3  -9 -15 2084.90 194.161   1
   3  -9 -15 2358.04 206.992   2
   3   9 -14 3102.85 181.987   2
   3  -9 -14 3658.14 244.031   2
   3   9 -14 3026.87 178.610   2
  -3  -9  14 3098.87 155.335   1
   3  -9 -14 3167.71 224.677   1
   3   9 -13 2761.93 166.769   2
   3   9 -13 2955.33 170.810   2
  -3  -9  13 3019.65 145.883   1
   3  -9 -13 2956.47 209.490   1
   3  -9 -13 3230.83 219.532   2
   3   9 -12 1224.96 108.644   2
   3  -9 -12 1252.65 132.675   2
   3  -9 -12 1251.50 134.727   1
  -3  -9  12 1108.28 84.4068   1
   3   9 -12 1015.84 100.629   2
   3  -9 -11 30583.1 623.087   1
  -3  -9  11 30589.5 391.935   1
   3  -9 -11 31664.8 614.158   2
   3   9 -11 30498.8 495.637   2
  -3  -9  10 2739.76 109.688   1
   3   9 -10 2293.84 131.624   2
   3  -9 -10 2860.76 185.691   1
   3  -9 -10 2631.59 177.844   2
   3   9  -9 2039.94 118.332   2
   3  -9  -9 1929.30 146.053   2
   3  -9  -9 1853.91 143.009   1
  -3  -9   9 1914.48 80.6650   1
  -3   9   9 1838.01 149.120   1
   3  -9  -8 91.1830 48.5889   1
   3  -9  -8 84.7602 45.8364   2
  -3  -9   8 70.8010 18.5984   1
   3   9  -8 76.9302 34.0815   2
   3  -9  -7 4161.66 202.631   1
   3   9  -7 4255.29 144.756   2
   3  -9  -7 4245.81 187.644   2
   3   9  -6 1378.60 78.3137   2
   3  -9  -6 1529.32 120.764   1
   3  -9  -6 1448.63 106.007   2
   3  -9  -5 24820.0 454.246   1
  -3  -9   5 25981.8 335.021   2
   3   9  -5 24938.4 314.735   2
   3  -9  -5 25736.5 394.241   2
   3  -9  -4 155.876 36.8327   2
  -3  -9   4 217.800 39.2443   2
   3  -9  -4 268.016 60.1406   1
  -3  -9   4 106.808 13.7761   1
   3   9  -4 179.216 34.9900   2
   3   9  -3 3231.79 111.918   2
   3  -9  -3 3309.69 119.331   2
   3  -9  -3 3114.96 159.630   1
  -3  -9   3 3263.50 111.947   2
  -3  -9   3 2965.45 79.5967   1
   3   9  -2 1465.00 80.6329   2
  -3  -9   2 1649.87 72.3528   1
  -3  -9   2 1497.10 79.8921   2
   3  -9  -2 1519.11 74.6135   2
   3   9  -1 21471.5 316.306   2
   3  -9  -1 20148.9 221.310   2
  -3  -9   1 20878.8 306.813   2
   3  -9  -1 18988.8 215.639   2
  -3  -9   1 21931.9 289.472   1
   3   9  -1 21487.0 293.327   1
  -3  -9   0 1549.37 91.0357   2
   3  -9   0 1011.80 38.6040   2
  -3  -9   0 1632.84 89.3768   1
   3  -9   0 1123.44 39.6273   2
   3   9   0 1481.08 88.6286   2
   3   9   0 1510.84 85.6226   1
  -3  -9  -1 68146.9 619.974   2
   3   9   1 69201.9 628.190   2
   3   9   1 67280.6 603.674   1
  -3  -9  -1 71558.5 630.163   1
   3   9   2 18567.6 340.841   1
  -3  -9  -2 19453.3 358.740   1
  -3  -9  -2 17893.7 340.333   2
   3   9   2 17955.5 339.415   2
   3   9   3 41.0365 32.0984   1
  -3  -9  -3 45.9044 34.1196   2
  -3  -9  -3 34.9111 32.7027   1
   3   9   3 89.3620 37.0391   2
   3   9   4 12999.4 327.893   2
   3   9   4 13240.7 325.616   1
  -3  -9  -4 12566.6 319.942   2
  -3  -9  -5 17923.6 399.775   2
   3   9   5 17677.3 397.872   2
  -3   9  -5 15492.3 186.844   2
   3   9   5 16875.6 385.136   1
  -3   9  -6 893.812 54.4444   2
  -3  -9  -6 1139.48 109.402   2
   3   9   6 1161.56 113.169   2
   3   9   6 1060.34 105.904   1
  -3   9  -7 19945.3 291.218   2
  -3  -9  -7 20520.6 467.930   2
   3   9   7 20279.0 460.495   1
   3   9   7 21295.0 483.957   2
  -3   9  -8 7084.40 195.595   2
  -3  -9  -8 7408.10 296.886   2
  -3   9  -9 1202.00 89.8026   2
  -3  -9  -9 1196.76 133.136   2
  -3   9 -10 1495.88 106.260   2
  -3  -9 -10 1516.38 147.385   2
  -3   9 -11 9357.51 279.791   2
  -3  -9 -11 9781.29 384.630   2
  -3  -9 -12 831.622 125.553   2
  -3   9 -12 827.791 94.8436   2
  -3   9 -13 11020.9 339.400   2
  -3  -9 -13 11846.3 450.221   2
  -3  -9 -14 10.6361 69.4534   2
  -3   9 -14 47.3276 44.5320   2
  -3  -9 -15 79.6544 70.4864   2
  -3   9 -15 30.7423 43.6207   2
   3  11 -17 41.5046 44.1835   2
   3 -11 -17 196.853 88.5690   2
   3 -11 -16 5374.43 330.338   1
   3 -11 -16 5611.67 335.933   2
   3  11 -16 4626.47 236.438   2
   3  11 -15 201.640 61.3383   2
   3 -11 -15 168.020 75.4287   1
   3 -11 -15 145.064 77.3019   2
   3  11 -14 262.038 63.8250   2
   3  11 -14 94.8790 37.1730   2
   3 -11 -14 153.499 60.8816   2
   3 -11 -14 193.084 83.0981   1
   3  11 -13 780.559 88.6454   2
   3  11 -13 770.117 87.6697   2
   3 -11 -13 937.089 133.784   1
  -3 -11  13 977.684 78.3874   1
   3 -11 -13 1001.29 133.192   2
   3  11 -12 5245.37 213.886   2
   3 -11 -12 5219.50 281.377   1
   3 -11 -12 5398.75 274.351   2
   3  11 -12 4739.67 199.657   2
  -3 -11  12 5220.97 161.797   1
   3  11 -11 2064.61 123.704   2
   3 -11 -11 2502.89 182.990   2
   3 -11 -11 2321.21 186.157   1
  -3 -11  11 2278.48 98.4421   1
   3  11 -11 2232.46 131.988   2
  -3 -11  10 7918.84 162.739   1
   3 -11 -10 8906.82 349.864   1
   3 -11 -10 8798.20 326.090   2
   3  11 -10 8671.26 242.057   2
   3 -11  -9 5199.41 251.363   1
  -3 -11   9 3931.13 98.5498   1
   3  11  -9 5109.38 174.639   2
   3 -11  -9 5224.32 238.223   2
   3  11  -8 19684.4 320.592   2
   3 -11  -8 18400.2 462.154   1
   3 -11  -8 19564.1 433.854   2
   3 -11  -7 3631.50 182.617   2
   3 -11  -7 3629.56 202.511   1
   3  11  -7 3297.18 124.392   2
   3 -11  -6 416.895 80.3414   1
   3  11  -6 487.009 48.1064   2
   3 -11  -6 404.899 61.2707   2
  -3 -11   5 405.824 27.7462   1
  -3 -11   5 892.797 64.8804   2
   3 -11  -5 570.048 83.0289   1
   3  11  -5 861.217 60.4848   2
   3 -11  -5 710.293 72.1867   2
  -3 -11   4 21264.3 295.120   2
  -3 -11   4 18270.5 204.862   1
   3 -11  -4 21009.4 350.514   2
   3 -11  -4 20819.2 436.916   1
   3  11  -4 21165.9 294.851   2
   3  11  -3 680.441 54.4631   2
   3 -11  -3 767.567 91.6933   1
  -3 -11   3 680.212 46.3303   1
   3 -11  -3 801.251 66.0622   2
  -3 -11   3 645.049 53.3882   2
   3 -11  -2 52925.6 447.853   2
  -3 -11   2 53888.9 492.481   2
  -3 -11   2 53959.6 458.792   1
   3 -11  -2 49379.9 656.837   1
   3  11  -2 53231.0 497.317   2
  -3 -11   1 13194.1 252.031   1
  -3 -11   1 12003.4 248.760   2
   3 -11  -1 11604.5 176.610   2
   3  11  -1 12048.0 251.818   2
   3 -11  -1 10996.4 171.892   2
  -3 -11   0 112.391 38.6645   2
   3  11   0 69.8687 29.8128   2
   3  11   0 99.9098 34.6801   1
  -3 -11   0 86.0065 33.8394   1
   3  11   1 2808.28 137.159   2
  -3 -11  -1 3110.61 145.818   1
   3  11   1 3421.75 152.370   1
  -3 -11  -1 2811.19 137.639   2
  -3 -11  -2 3308.36 156.657   2
   3  11   2 3158.06 152.933   1
  -3 -11  -2 3394.53 160.489   1
   3  11   2 3399.16 159.052   2
  -3 -11  -3 109.632 40.9118   2
   3  11   3 183.427 46.2122   2
  -3 -11  -3 180.688 51.6911   1
   3  11   3 249.512 54.2973   1
  -3 -11  -4 16879.9 398.520   1
   3  11   4 15807.3 378.990   1
   3  11   4 17168.3 392.789   2
  -3 -11  -4 16783.6 384.494   2
  -3 -11  -5 19126.7 434.952   2
   3  11   5 19906.2 443.405   1
   3  11   5 19973.0 446.504   2
   3  11   6-32.2277 37.7422   2
  -3  11  -6 20.5196 7.99463   2
  -3 -11  -6 32.2200 38.7855   2
   3  11   6-12.7151 38.9897   1
  -3  11  -6 26.6784 9.93031   2
  -3 -11  -7 3338.97 203.982   2
  -3  11  -7 2745.82 93.1514   2
  -3  11  -7 2642.70 87.2520   2
  -3  11  -8 22431.5 294.913   2
  -3 -11  -8 24909.6 562.200   2
  -3  11  -9 59.8738 27.3592   2
  -3 -11  -9 2.86767 46.7042   2
  -3  11 -10 78.4405 28.7198   2
  -3 -11 -10 17.6546 56.5462   2
  -3 -11 -11 2239.76 194.770   2
  -3  11 -11 2082.27 122.859   2
  -3 -11 -12 220.417 88.8624   2
  -3  11 -12 63.3710 30.2081   2
  -3  11 -13 1180.51 106.829   2
  -3 -11 -13 1453.24 169.453   2
  -3 -11 -14 3170.70 254.663   2
  -3 -11 -15 996.474 157.954   2
   3 -13 -16 2211.70 221.508   1
   3 -13 -16 2121.61 212.793   2
   3 -13 -15 150.323 71.2244   1
   3 -13 -15 20.3424 61.8923   2
   3 -13 -14 1095.61 152.537   1
   3  13 -14 766.938 82.9043   2
   3 -13 -14 996.621 134.338   2
   3 -13 -13 6750.26 345.609   1
   3 -13 -13 7065.11 341.113   2
   3  13 -13 5845.19 221.691   2
   3  13 -12 774.014 81.6467   2
   3 -13 -12 960.787 126.632   2
   3 -13 -12 848.093 121.237   1
   3 -13 -11 2944.24 201.424   2
   3  13 -11 2385.67 124.878   2
  -3 -13  11 1836.05 75.2972   1
   3 -13 -11 2519.39 201.956   1
   3  13 -11 2229.28 124.407   2
   3 -13 -10 3068.43 202.995   2
   3  13 -10 2701.56 127.883   2
  -3 -13  10 2017.46 67.1936   1
   3 -13 -10 3371.45 227.624   1
   3 -13  -9 210.545 63.1893   2
  -3 -13   9 181.740 17.2369   1
   3 -13  -9 275.970 78.9042   1
   3  13  -9 229.181 40.7802   2
   3  13  -8 8353.27 199.573   2
   3 -13  -8 9020.05 306.334   2
   3 -13  -8 9130.83 347.927   1
   3 -13  -7 18965.7 486.223   1
   3 -13  -7 19724.6 431.121   2
   3  13  -7 19098.4 290.938   2
   3  13  -6 1062.35 67.7949   2
   3 -13  -6 1023.25 98.8131   2
  -3 -13   6 632.838 34.3680   1
   3 -13  -6 957.275 113.180   1
  -3 -13   5 17251.7 279.412   2
   3 -13  -5 16532.8 427.527   1
   3  13  -5 16808.9 265.410   2
  -3 -13   5 13160.7 182.560   1
   3 -13  -5 17261.7 357.834   2
   3 -13  -4 2565.01 168.542   1
  -3 -13   4 2181.87 83.9349   1
   3 -13  -4 2175.19 120.542   2
  -3 -13   4 2054.72 98.0647   2
   3  13  -4 2107.94 97.4189   2
  -3 -13   3 62.5937 27.7406   1
   3 -13  -3 20.5971 26.3090   2
  -3 -13   3 40.5644 26.1940   2
   3 -13  -3 31.3936 44.6849   1
   3  13  -3 52.3381 26.1500   2
  -3 -13   2 2774.52 119.288   1
   3 -13  -2 3120.31 180.872   1
   3 -13  -2 2683.74 106.910   2
  -3 -13   2 2597.41 117.058   2
   3  13  -2 2552.43 117.202   2
   3 -13  -1 7757.18 146.913   2
   3  13  -1 8900.69 226.663   2
  -3 -13   1 9064.51 229.186   1
  -3 -13   1 9836.88 238.302   2
   3 -13  -1 8222.03 151.872   2
   3 -13  -1 7797.46 279.472   1
   3  13   0 12.1695 23.1222   2
  -3 -13   0-11.9106 33.2056   1
  -3 -13   0 29.5246 32.5996   2
  -3 -13  -1 22637.7 403.000   2
   3  13   1 22123.5 401.349   2
  -3 -13  -1 22559.4 412.174   1
   3  13   2 4946.70 205.636   2
  -3 -13  -2 5305.91 214.310   1
   3  13   2 5642.70 229.666   1
  -3 -13  -2 4978.68 203.076   2
  -3 -13  -3 329.671 63.6766   2
  -3 -13  -3 305.320 58.9152   1
   3  13   3 240.928 49.9153   1
   3  13   3 346.610 61.6501   2
  -3 -13  -4 17329.8 421.092   2
  -3 -13  -4 17555.4 434.900   1
   3  13   4 17407.4 419.337   2
   3  13   4 17682.6 431.625   1
  -3 -13  -5 34912.4 613.157   2
  -3 -13  -5 33589.5 618.283   1
   3  13   5 32093.4 602.750   1
   3  13   5 35025.5 616.733   2
  -3 -13  -6 5070.82 245.683   2
  -3 -13  -7 1183.45 129.720   2
  -3 -13  -8 973.855 125.506   2
  -3 -13  -9 1384.27 154.070   2
  -3  13  -9 908.571 52.8877   2
  -3 -13 -10 4108.13 258.843   2
  -3 -13 -11 2681.33 214.437   2
  -3 -13 -12-4.38956 57.3332   2
  -3 -13 -13 2933.82 240.645   2
  -3 -13 -14 189.564 92.8413   2
   3 -15 -15 53.3686 68.8593   2
   3 -15 -15 161.317 77.5273   1
   3 -15 -14 3297.07 249.223   2
   3 -15 -14 3231.27 265.636   1
   3 -15 -13 499.538 117.792   1
   3 -15 -13 480.213 100.260   2
   3 -15 -12 2038.55 188.189   2
   3 -15 -12 2129.69 205.847   1
   3  15 -11 1523.01 90.9366   2
   3 -15 -11 2085.67 196.910   1
   3 -15 -11 1996.05 172.427   2
   3 -15 -10 9416.72 357.303   2
   3  15 -10 7406.01 191.222   2
   3 -15 -10 9409.20 394.064   1
   3 -15  -9 154.475 60.2540   1
   3 -15  -9 188.260 65.4359   2
   3  15  -9 112.449 25.1510   2
   3 -15  -8 5207.79 280.919   1
   3 -15  -8 5607.34 251.560   2
   3  15  -8 4421.82 133.053   2
   3  15  -7 3537.16 118.584   2
   3 -15  -7 4577.30 220.108   2
   3 -15  -7 4622.34 258.806   1
   3 -15  -6 812.642 89.1581   2
   3  15  -6 788.641 55.8215   2
   3 -15  -6 757.346 106.566   1
  -3 -15   6 633.388 38.2188   1
   3  15  -5 2650.20 102.912   2
  -3 -15   5 2570.97 89.9284   1
  -3 -15   5 3012.50 116.624   2
   3 -15  -5 3308.93 211.723   1
   3 -15  -5 3233.00 165.539   2
  -3 -15   4 22382.9 315.290   2
   3 -15  -4 19761.8 494.273   1
  -3 -15   4 20013.7 284.898   1
   3  15  -4 20319.1 297.704   2
   3 -15  -4 22429.3 395.780   2
   3 -15  -3 87.5953 58.5886   1
  -3 -15   3 144.872 33.1011   2
   3  15  -3 108.734 31.3060   2
   3 -15  -3 159.528 37.2516   2
  -3 -15   3 111.399 30.1788   1
   3 -15  -2 21891.9 304.156   2
  -3 -15   2 21249.8 354.043   1
   3  15  -2 21471.8 344.888   2
  -3 -15   2 22366.7 349.257   2
   3 -15  -2 23063.2 310.328   2
   3 -15  -2 21771.3 496.657   1
   3 -15  -1 676.630 100.981   1
   3 -15  -1 476.779 41.2094   2
   3  15  -1 468.772 60.1225   2
  -3 -15   1 491.354 62.0513   2
  -3 -15   1 513.995 66.7838   1
   3 -15  -1 375.294 33.4051   2
   3 -15   0-56.2464 55.8848   1
   3  15   0 28.8212 28.5871   2
  -3 -15   0 25.8716 35.2480   1
  -3 -15   0-10.8558 31.5241   2
  -3 -15  -1 517.808 74.1009   2
   3  15   1 572.765 75.1063   2
  -3 -15  -1 522.440 76.9817   1
   3  15   2 7178.89 252.850   2
  -3 -15  -2 7247.21 264.896   1
  -3 -15  -2 7538.92 258.757   2
   3  15   3 4369.33 209.333   2
   3  15   3 3584.20 205.600   1
  -3 -15  -3 4184.40 203.272   2
  -3 -15  -3 4239.22 212.069   1
  -3 -15  -4 5218.13 246.222   1
   3  15   4 4217.22 229.781   1
   3  15   4 5352.03 240.967   2
  -3 -15  -4 5447.01 245.875   2
  -3 -15  -5 6174.03 275.661   2
  -3 -15  -5 6385.60 281.848   1
   3  15   5 6103.26 271.489   2
  -3 -15  -6 4919.34 257.119   2
  -3 -15  -7 3601.92 231.503   2
  -3 -15  -8 2704.08 205.114   2
  -3 -15  -9 126.595 58.2702   2
  -3 -15 -10 8315.96 382.222   2
  -3 -15 -11 259.611 86.2791   2
  -3 -15 -12-1.46677 57.4951   2
  -3 -15 -13 1389.98 183.234   2
   3 -17 -15 145.682 88.8889   2
   3 -17 -14 221.291 92.9729   2
   3 -17 -13 5948.74 358.280   1
   3 -17 -13 6286.35 342.827   2
   3 -17 -12 221.817 81.3876   2
   3 -17 -12 245.897 94.4916   1
   3 -17 -11 3260.95 231.801   2
   3 -17 -11 2754.66 235.103   1
   3 -17 -10 2265.24 187.245   2
   3 -17 -10 2574.19 225.132   1
   3 -17  -9 6.42044 49.0815   2
   3 -17  -9-11.6122 58.4945   1
   3 -17  -8 3069.42 229.557   1
   3 -17  -8 3183.51 202.846   2
   3 -17  -7 12824.5 380.449   2
   3 -17  -7 11375.4 423.926   1
   3 -17  -6 4030.02 249.855   1
   3 -17  -6 4328.38 210.917   2
  -3 -17   6 2851.49 85.7874   1
  -3 -17   5 194.789 33.1545   1
   3  17  -5 175.421 28.1062   2
   3 -17  -5 262.021 53.3954   2
   3 -17  -5 144.018 68.3457   1
  -3 -17   4 2055.88 101.091   2
   3 -17  -4 2275.41 133.757   2
  -3 -17   4 2049.10 99.5040   1
   3  17  -4 1686.03 85.8421   2
   3 -17  -4 2020.05 168.687   1
   3 -17  -3 5776.63 181.582   2
  -3 -17   3 6416.64 179.149   2
   3 -17  -3 5630.67 275.537   1
   3  17  -3 5602.61 167.419   2
  -3 -17   3 5729.89 180.937   1
  -3 -17   2 245.048 48.2096   2
   3 -17  -2 407.452 84.3100   1
   3 -17  -2 199.869 35.5978   2
   3 -17  -2 244.487 38.2909   2
  -3 -17   2 292.881 53.2037   1
   3  17  -2 304.377 48.9394   2
   3 -17  -1 3344.16 76.1195   2
  -3 -17   1 5416.47 189.494   2
   3  17  -1 4842.21 179.101   2
  -3 -17   1 4738.96 194.174   1
   3 -17  -1 4345.73 234.530   1
   3 -17   0 646.649 98.9072   1
  -3 -17   0 844.119 84.5710   2
  -3 -17   0 796.591 88.3404   1
   3  17   0 783.742 79.8779   2
  -3 -17  -1 4605.64 201.072   2
   3  17   1 4328.47 193.100   2
  -3 -17  -1 4028.58 198.406   1
   3 -17   1 3446.83 204.490   1
  -3 -17  -2 6763.95 272.514   1
   3  17   2 6609.16 256.004   2
  -3 -17  -2 6981.77 264.012   2
   3  17   3 56.9038 44.0480   2
  -3 -17  -3-17.2578 51.1241   1
  -3 -17  -3 43.9606 46.6093   2
   3  17   4 312.814 73.0028   2
  -3 -17  -4 270.234 78.3146   1
  -3 -17  -4 228.334 71.3686   2
  -3 -17  -5 5721.27 276.120   2
  -3 -17  -6 386.838 88.6235   2
  -3 -17  -7 6685.40 322.625   2
  -3 -17  -8 3028.26 228.439   2
  -3 -17  -9 175.277 90.7202   2
  -3 -17 -10 133.386 78.9295   2
  -3 -17 -11 3067.60 248.327   2
  -3 -17 -12 38.6972 73.2788   2
   3 -19 -14 295.124 109.100   2
   3 -19 -13 484.085 112.543   2
   3 -19 -12 585.484 110.510   2
   3 -19 -12 450.403 114.911   1
   3 -19 -11 2359.52 226.918   1
   3 -19 -11 2365.13 204.478   2
   3 -19 -10 9232.32 384.417   2
   3 -19 -10 8263.16 409.785   1
   3 -19  -9 1089.97 152.358   1
   3 -19  -9 1178.32 135.895   2
   3 -19  -8 3209.62 205.980   2
   3 -19  -8 2750.77 223.812   1
   3 -19  -7 88.1422 59.0525   2
   3 -19  -7 63.0662 62.7234   1
   3 -19  -6 95.4763 50.3042   2
   3 -19  -6-64.5443 64.5127   1
   3 -19  -5 4748.57 209.691   2
   3 -19  -5 4539.34 268.765   1
   3 -19  -4 7056.32 228.723   2
   3 -19  -4 6026.78 308.963   1
   3 -19  -3 784.077 112.657   1
   3 -19  -3 763.614 68.2811   2
  -3 -19   3 718.610 74.1566   1
  -3 -19   2 9582.42 234.498   2
  -3 -19   2 8601.76 254.758   1
   3 -19  -2 8582.36 349.356   1
  -3 -19   1 1781.74 112.725   2
   3 -19  -1 1875.84 162.454   1
  -3 -19   1 1859.32 131.640   1
  -3 -19   0 27.9618 33.6630   2
  -3 -19   0 145.544 55.2248   1
   3 -19   0 39.8065 46.6241   1
  -3 -19  -1 3738.24 202.280   1
  -3 -19  -1 4231.54 197.227   2
   3 -19   1 3631.49 216.776   1
  -3 -19  -2 3091.66 193.998   1
   3 -19   2 2279.32 173.505   1
  -3 -19  -2 3490.39 191.032   2
  -3 -19  -3-1.58131 42.2107   2
   3 -19   3-103.077 53.4704   1
  -3 -19  -3-34.2028 48.6908   1
  -3 -19  -4 5159.70 258.357   2
  -3 -19  -4 4719.02 257.093   1
  -3 -19  -5 18.3397 52.1910   2
  -3 -19  -6 1240.65 146.227   2
  -3 -19  -7 1972.13 190.018   2
  -3 -19  -8 4223.62 275.020   2
  -3 -19  -9 292.392 95.8583   2
  -3 -19 -10 4955.73 316.946   2
  -3 -19 -11 164.914 92.1067   2
   3 -21 -10-227.820 100.495   1
   3 -21  -9 50.7816 69.7990   1
   3 -21  -8 534.544 113.292   1
   3 -21  -7 1674.68 184.712   1
   3 -21  -6 44.9840 58.6634   1
   3 -21  -5 4954.39 298.272   1
   3 -21  -4 439.029 98.2066   1
   3 -21  -3-9.02461 52.6280   1
   3 -21  -2 7.73784 57.5292   1
   3 -21  -1 2702.79 198.944   1
   3 -21   0 319.477 82.9710   1
  -3 -21   0 283.288 64.1865   1
  -3 -21  -1 4106.23 220.750   1
   3 -21   1 3841.50 233.148   1
  -3 -21  -2 2739.36 187.879   1
   3 -21   2 2551.63 187.041   1
   3 -21   3 287.037 69.8542   1
  -3 -21  -4 858.403 114.500   2
  -3 -21  -5 6271.84 306.826   2
  -3 -21  -6 264.108 81.6479   2
  -3 -21  -7 4816.88 293.945   2
  -3 -21  -8 161.371 71.4616   2
  -3 -21  -9-119.433 94.7244   2
  -3 -21 -10 1137.07 173.808   2
   3 -23  -8 1227.89 173.134   1
   3 -23  -7 1717.55 193.094   1
   3 -23  -6 46.0550 65.4973   1
   3 -23  -5 193.766 78.5826   1
   3 -23  -4 1583.65 172.821   1
   3 -23  -3 31.6563 57.2173   1
   3 -23  -2 3114.56 232.922   1
   3 -23  -1 263.732 80.7280   1
   4   0 -20 2949.44 256.279   2
   4   0 -19-32.9716 66.1648   2
   4   0 -18 2768.63 229.886   2
   4   0 -17 22.8057 58.9241   2
   4   0 -16 2007.48 180.228   2
   4   0 -15-43.9741 48.9139   2
  -4   0  14 5388.23 258.066   1
   4   0 -14 5153.40 264.255   2
  -4   0  13-88.5451 49.9198   1
   4   0 -13-26.3539 49.6247   2
  -4   0  12 697.341 87.5970   1
   4   0 -12 781.653 102.964   2
   4   0 -12 788.927 94.2563   1
  -4   0  11 49.3167 36.6357   1
   4   0 -11 24.6736 32.1996   1
   4   0 -10 26845.6 435.686   1
  -4   0  10 26367.0 446.452   1
  -4   0   9 50.3347 34.8004   1
   4   0  -9-33.9688 35.6277   1
  -4   0   8 30120.9 417.751   1
   4   0  -8 30971.3 414.788   1
  -4   0   7-44.9255 33.7182   1
   4   0  -7-23.2757 27.1543   2
   4   0  -7 71.9160 33.0484   1
   4   0  -6 7536.79 199.480   2
   4   0  -6 7494.73 177.256   1
   4   0  -5-9.34854 29.4630   1
   4   0  -5 42.4260 30.8385   2
  -4   0   4 559.664 57.3946   2
   4   0  -4 528.971 52.5649   2
  -4   0   3 16.7559 27.1537   2
   4   0  -3 12.2369 23.5817   2
   4   0  -2 7580.59 153.255   2
  -4   0   2 7798.76 153.101   2
  -4   0   1 50.4917 29.1445   2
   4   0  -1 16.1923 23.7692   2
  -4   0   0 111201. 597.005   2
   4   0   0 112463. 602.466   2
  -4   0  -1-0.54139 28.5891   2
   4   0   1-24.9572 28.7191   2
  -4   0  -2 16502.6 264.867   2
   4   0   2 16586.0 261.437   2
  -4   0  -3 47.1005 37.4569   2
   4   0   3 24.0655 26.8812   2
  -4   0  -4 149982. 914.038   2
   4   0   4 147490. 894.294   2
  -4   0  -5 14.6754 35.5364   2
   4   0   5-3.67995 31.4505   2
  -4   0  -6 13540.2 317.824   2
   4   0   6 13605.3 317.146   2
   4   0   7-11.9380 29.2874   2
  -4   0  -7-17.3838 35.5034   2
  -4   0  -8 2839.27 164.177   2
   4   0   8 2863.56 162.693   2
   4   0   9 26.0034 40.4460   2
  -4   0  -9 34.4960 40.3895   2
   4   0  10 135.044 55.4513   2
  -4   0 -10 164.163 54.1441   2
  -4   0 -11 8.57866 45.8685   2
  -4   0 -12 4512.09 254.503   2
  -4   0 -13 52.6246 53.8310   2
  -4   0 -14 10282.0 415.512   2
  -4   0 -15-1.02518 60.7026   2
  -4   0 -16 166.006 82.7562   2
  -4   0 -17-74.6563 67.4763   2
   4   2 -20 263.112 97.9841   2
   4  -2 -20 116.286 84.6843   2
   4   2 -19 219.954 82.9448   2
   4  -2 -19 22.9793 61.8649   2
   4   2 -18 481.727 107.313   2
   4  -2 -18 382.211 103.290   2
   4   2 -17 1860.56 180.479   2
   4  -2 -17 1863.98 191.638   2
   4   2 -16 162.453 73.4860   2
   4  -2 -16 55.7836 58.8935   2
  -4  -2  15 5807.56 266.621   1
   4  -2 -15 6064.18 301.704   2
   4   2 -15 5539.66 277.720   2
   4   2 -14 720.721 107.323   2
   4  -2 -14 641.450 97.4932   2
   4  -2 -14 748.323 103.632   1
  -4  -2  14 698.011 93.7090   1
  -4  -2  13 1447.68 122.357   1
   4  -2 -13 1572.75 132.615   1
  -4   2  13 1488.50 138.346   1
   4   2 -13 1440.40 136.967   2
   4  -2 -13 1640.48 148.248   2
   4  -2 -12 493.128 78.8781   1
   4  -2 -12 539.143 94.7823   2
  -4   2  12 395.980 76.6844   1
  -4  -2  12 432.880 69.3365   1
   4  -2 -11 9484.09 326.484   2
  -4  -2  11 10299.0 280.138   1
   4  -2 -11 9614.83 295.832   1
  -4   2  11 10412.4 319.284   1
   4   2 -10 1313.46 92.5481   1
  -4   2  10 1265.05 108.789   1
  -4  -2  10 1309.40 96.8454   1
   4  -2 -10 1262.49 104.025   1
  -4   2   9 16104.5 348.649   1
   4   2  -9 16339.9 349.367   2
   4   2  -9 16026.2 293.038   1
   4  -2  -9 16007.0 342.585   1
  -4  -2   9 16023.4 307.094   1
   4   2  -8-7.96485 32.4217   2
  -4   2   8 2.36742 30.9221   1
   4  -2  -8 30.4278 34.6954   1
   4   2  -8-34.3080 29.1401   1
  -4  -2   8 26.5084 25.8885   1
   4  -2  -7 1349.98 96.0706   1
   4   2  -7 1408.64 75.6423   1
   4   2  -7 1348.57 91.1091   2
  -4   2   7 1354.64 94.8575   1
  -4  -2   7 1329.33 77.5578   1
   4  -2  -6 112.966 37.0070   1
   4   2  -6 85.4703 25.3437   1
   4   2  -6 129.500 35.8834   2
  -4  -2   5 12691.5 242.687   2
   4   2  -5 12687.7 234.035   2
   4  -2  -5 11587.8 244.426   1
   4   2  -5 11442.8 170.415   1
   4  -2  -5 12900.8 245.947   2
  -4  -2   4 837.783 65.2178   2
   4  -2  -4 893.787 65.7119   2
   4   2  -4 731.093 58.8686   2
   4  -2  -3 636004. 1478.72   2
  -4  -2   3 622976. 1476.34   2
   4   2  -3 647261. 1512.38   2
  -4   2   3 651517. 1508.34   2
  -4   2   2 1731.74 72.1090   2
   4  -2  -2 1705.85 73.5032   2
  -4  -2   2 1696.32 82.9421   2
   4   2  -2 1737.58 79.9530   2
   4  -2  -1 5211.28 119.647   2
  -4   2   1 5133.35 119.914   2
  -4  -2   1 5013.12 137.689   2
   4   2  -1 5097.92 134.898   2
  -4   2   0 1606.73 68.2619   2
   4   2   0 1456.11 76.9116   2
   4  -2   0 1505.61 67.4883   2
  -4  -2   0 1480.70 77.8025   2
   4  -2   1 20755.7 255.288   2
   4   2   1 21330.8 298.555   2
  -4   2  -1 20949.4 255.817   2
  -4  -2  -1 21062.7 296.124   2
  -4  -2  -2 2173.83 106.025   2
  -4   2  -2 2114.99 89.8335   2
   4  -2   2 2000.82 86.4411   2
   4   2   2 2182.35 103.070   2
  -4  -2  -3 98225.3 731.248   2
   4   2   3 101040. 734.503   2
   4  -2   3 98838.3 645.867   2
  -4   2  -3 100235. 652.396   2
  -4   2  -4 14.7989 27.9034   2
   4  -2   4-12.2671 28.4315   2
  -4  -2  -5 20011.5 375.016   2
   4   2   5 20248.8 372.132   2
   4  -2   5 20298.3 341.822   2
  -4   2  -5 19939.9 343.064   2
  -4   2  -6 2462.84 134.544   2
  -4  -2  -6 2379.88 140.479   2
   4   2   6 2271.73 134.880   2
   4  -2   6 2375.75 131.211   2
  -4   2  -7 3270.26 161.662   2
  -4  -2  -7 3106.68 169.264   2
   4   2   7 3107.57 166.453   2
   4  -2   7 3216.11 158.291   2
  -4  -2  -8 2108.19 146.951   2
   4   2   8 2190.70 151.852   1
  -4   2  -8 1836.07 131.767   2
   4  -2   8 2182.41 139.154   2
   4   2   8 2053.66 142.605   2
   4   2   9 36444.8 644.606   1
   4  -2   9 35367.6 587.518   2
  -4   2  -9 35781.2 592.041   2
  -4  -2  -9 35378.7 626.590   2
   4   2   9 35036.0 610.985   2
   4  -2  10 30.1785 41.5271   2
  -4   2 -10-49.3970 51.2166   2
  -4  -2 -10 50.0865 51.5597   2
  -4  -2 -11 7774.14 325.148   2
  -4   2 -11 8339.25 318.757   2
  -4   2 -12 66.9901 59.6253   2
  -4  -2 -12 61.9195 55.3800   2
  -4   2 -13 696.506 107.454   2
  -4  -2 -13 646.826 111.891   2
  -4   2 -14 1071.08 136.924   2
  -4  -2 -14 1197.98 149.800   2
  -4  -2 -15 11220.7 455.025   2
  -4   2 -15 11123.1 436.712   2
  -4   2 -16 188.675 84.4784   2
  -4  -2 -16 238.513 100.927   2
  -4   2 -17 3016.72 244.163   2
  -4  -2 -17 3024.61 252.428   2
  -4   2 -18-14.6469 78.7655   2
   4   4 -21 30.8679 77.9962   2
   4   4 -20 3216.82 254.106   2
   4   4 -19 262.526 91.7893   2
   4  -4 -19 365.567 105.637   2
   4  -4 -18 3644.84 272.834   2
   4   4 -18 3084.46 226.343   2
   4   4 -17 619.460 105.919   2
   4  -4 -17 814.993 133.242   2
  -4  -4  16 2740.10 185.628   1
   4  -4 -16 3214.72 235.020   2
   4   4 -16 2830.77 201.217   2
   4   4 -15 1148.28 126.618   2
   4  -4 -15 1394.21 147.522   1
  -4  -4  15 1199.51 119.484   1
   4  -4 -15 1430.58 151.409   2
   4  -4 -14 6219.92 285.405   1
  -4  -4  14 6450.96 250.597   1
   4  -4 -14 6486.67 305.493   2
   4   4 -14 6036.86 279.050   2
   4   4 -13 2111.28 155.717   2
  -4  -4  13 2179.99 140.507   1
   4   4 -13 1958.21 148.986   2
   4  -4 -13 2231.52 163.857   1
   4  -4 -13 2140.61 175.441   2
   4  -4 -12 24481.1 514.644   1
  -4  -4  12 24318.2 429.790   1
   4   4 -12 25809.7 510.109   2
   4  -4 -12 25654.5 555.880   2
  -4   4  12 25106.9 542.250   1
  -4   4  11 109.257 52.6103   1
  -4  -4  11 126.880 39.8175   1
   4  -4 -11 62.0837 46.6397   2
   4   4 -11 155.603 48.0802   2
   4  -4 -11 158.213 56.9235   1
   4  -4 -10 11622.7 341.730   2
  -4   4  10 10762.4 325.671   1
   4  -4 -10 10828.0 312.168   1
  -4  -4  10 10650.2 245.600   1
   4   4 -10 11847.0 312.477   2
   4   4  -9 1211.42 97.6831   2
  -4  -4   9 1188.58 76.8903   1
  -4   4   9 1080.48 106.105   1
   4  -4  -9 1150.42 102.781   1
   4  -4  -8 2281.94 137.040   1
  -4  -4   8 2340.47 95.6720   1
  -4   4   8 2370.15 143.429   1
   4   4  -8 2065.41 119.166   2
   4  -4  -7 48.4759 33.6956   1
  -4  -4   7 46.0607 21.4522   1
   4   4  -7 215.485 42.5369   2
   4   4  -6 33363.4 254.009   1
   4  -4  -6 34921.3 469.370   1
   4   4  -6 34254.3 412.376   2
   4  -4  -5 5626.88 189.537   1
   4   4  -5 6367.60 170.537   2
   4   4  -5 4992.82 81.9766   1
  -4  -4   5 6427.50 172.058   2
   4   4  -4 24275.9 314.538   2
  -4  -4   4 24360.3 313.074   2
   4  -4  -3 13939.2 225.866   2
  -4  -4   3 13642.0 228.685   2
   4   4  -3 14085.5 228.360   2
  -4   4   2 438.212 43.6769   2
   4  -4  -2 453.149 41.2008   2
   4   4  -2 408.705 46.7240   2
  -4  -4   2 379.656 47.3694   2
   4  -4  -1 2234.11 76.9484   2
  -4   4   1 2320.88 78.5201   2
  -4  -4   1 2165.25 99.2808   2
   4   4  -1 2176.44 97.7382   2
   4   4   0 22197.8 309.415   2
  -4   4   0 21328.4 225.560   2
  -4  -4   0 21232.2 305.880   2
   4  -4   0 20839.2 227.300   2
  -4  -4  -1 27.2648 34.2801   2
   4  -4   1 23.1209 19.4497   2
   4   4   1 51.9752 34.7564   2
  -4   4  -1-2.32233 18.4650   2
   4  -4   2 10126.0 176.703   2
   4   4   2 10671.2 240.012   2
  -4   4  -2 10756.4 180.235   2
  -4  -4  -2 10967.5 244.343   2
  -4   4  -3 47.6972 26.1723   2
  -4  -4  -3 2.63953 32.9862   2
   4   4   3 31.0531 28.8123   2
   4  -4   3 34.9020 23.8949   2
  -4  -4  -4 57864.1 627.507   2
   4   4   4 56987.5 613.773   2
   4   4   4 58809.4 624.126   1
  -4   4  -4 56047.8 497.295   2
   4  -4   4 56263.1 503.161   2
  -4   4  -5 3048.38 127.734   2
   4   4   5 3502.75 164.406   1
  -4  -4  -5 3131.84 157.857   2
   4   4   5 3215.81 155.655   2
   4  -4   5 3205.14 132.485   2
  -4   4  -6 12580.7 277.981   2
  -4  -4  -6 12572.4 325.218   2
   4   4   6 12855.8 332.966   1
   4  -4   6 12756.6 284.063   2
   4   4   6 12425.2 322.735   2
  -4   4  -7 2409.62 131.839   2
  -4  -4  -7 2439.97 153.813   2
   4  -4   7 2453.20 135.115   2
   4   4   7 2459.48 155.501   2
   4   4   7 2557.91 159.877   1
  -4   4  -8 12247.8 316.080   2
  -4  -4  -8 11973.2 354.022   2
   4   4   8 12563.4 366.556   1
   4   4   8 11759.8 347.232   2
   4  -4   8 12862.4 326.329   2
  -4  -4  -9 984.069 111.358   2
  -4   4  -9 924.620 94.9048   2
   4  -4   9 995.484 99.8755   2
  -4   4 -10 1024.26 107.043   2
  -4  -4 -10 1050.50 120.723   2
  -4   4 -11 5832.82 261.069   2
  -4  -4 -11 6057.93 291.752   2
  -4   4 -12 23943.7 542.555   2
  -4  -4 -12 23890.4 601.946   2
  -4   4 -13 1783.93 159.361   2
  -4  -4 -13 2171.73 191.106   2
  -4   4 -14 10751.8 402.794   2
  -4  -4 -14 11178.2 445.224   2
  -4   4 -15 764.001 116.834   2
  -4  -4 -15 925.810 141.776   2
  -4  -4 -16 73.0709 70.7722   2
  -4   4 -16-47.6219 61.2346   2
  -4   4 -17-62.5674 69.7940   2
  -4   4 -18 1656.55 186.254   2
   4   6 -21 947.601 150.678   2
   4   6 -20-100.678 73.6987   2
   4   6 -19-26.5477 50.6077   2
   4  -6 -19 52.5758 70.1846   2
   4   6 -18 71.6815 63.5153   2
   4  -6 -18-86.2510 77.9443   2
   4   6 -17 1175.82 138.893   2
   4  -6 -17 1365.37 165.656   2
   4  -6 -16-66.4616 65.2391   1
  -4  -6  16 13.4535 40.4443   1
   4   6 -16 71.5239 50.4180   2
   4  -6 -16-79.0690 68.9387   2
   4  -6 -15 12007.5 426.733   1
  -4  -6  15 11543.9 334.590   1
   4  -6 -15 12801.7 455.416   2
   4   6 -15 10527.5 366.120   2
   4  -6 -14 203.425 70.6733   2
   4   6 -14 117.402 52.3909   2
  -4  -6  14 287.492 65.4504   1
   4  -6 -14 175.305 64.6277   1
  -4  -6  13 7094.92 232.630   1
   4  -6 -13 7385.17 305.322   1
   4   6 -13 8052.50 295.360   2
   4  -6 -13 7992.06 332.311   2
  -4  -6  12 1179.79 92.4508   1
   4   6 -12 1246.46 111.281   2
   4  -6 -12 1200.93 129.027   2
   4  -6 -12 1177.98 121.167   1
  -4  -6  11 15965.6 297.193   1
  -4   6  11 16609.3 445.311   1
   4   6 -11 15886.7 374.463   2
   4  -6 -11 15561.8 409.849   1
   4  -6 -11 16544.0 435.397   2
  -4   6  10 149.027 60.3157   1
   4  -6 -10 116.086 42.2072   1
  -4  -6  10 98.9294 28.2590   1
   4   6 -10 135.477 34.9310   2
   4  -6 -10 144.544 50.6215   2
   4  -6  -9 22270.8 458.778   2
   4  -6  -9 20415.2 439.271   1
   4   6  -9 21453.8 391.363   2
  -4  -6   9 21151.3 274.688   1
  -4   6   9 20588.1 451.026   1
   4  -6  -8 1761.25 128.578   1
   4  -6  -8 1896.37 130.493   2
   4   6  -8 2086.96 113.589   2
  -4  -6   8 1619.26 66.1545   1
   4  -6  -7 5685.93 212.895   1
   4   6  -7 6121.22 183.735   2
  -4  -6   6 4874.32 160.318   2
   4   6  -6 4972.65 154.087   2
   4  -6  -6 4118.27 179.281   1
   4  -6  -5 37693.1 523.392   1
  -4  -6   5 36807.3 411.563   2
   4   6  -5 36440.2 402.152   2
   4   6  -4 5780.18 156.882   2
  -4  -6   4 5953.61 161.572   2
   4  -6  -3 1063.90 66.0853   2
  -4  -6   3 1109.66 71.8880   2
   4   6  -3 1063.03 68.7596   2
   4   6  -2 1563.33 57.0052   1
  -4  -6   2 1590.00 83.0470   2
   4  -6  -2 1633.80 73.4806   2
   4   6  -2 1664.64 86.4830   2
   4   6  -1 4207.38 138.608   2
  -4  -6   1 4086.21 136.200   2
   4   6  -1 3975.73 108.664   1
   4  -6  -1 4354.05 104.462   2
  -4  -6   0 654.887 60.2024   2
   4   6   0 701.259 62.5731   2
  -4   6   0 759.844 41.6180   2
   4   6   0 668.496 52.5599   1
   4  -6   0 679.297 40.1996   2
   4  -6   1 7905.40 130.569   2
   4   6   1 8356.19 213.132   2
   4   6   1 8146.09 193.915   1
  -4   6  -1 8149.36 129.032   2
  -4  -6  -1 8104.85 209.357   2
  -4  -6  -2 1247.22 92.7031   2
   4  -6   2 1140.44 55.3343   2
   4   6   2 1159.23 88.9687   2
   4   6   2 1236.63 85.2341   1
  -4   6  -2 1248.53 55.1809   2
  -4  -6  -3 766.236 78.4403   2
   4  -6   3 821.604 52.3133   2
  -4   6  -3 788.606 50.1792   2
   4   6   3 863.424 78.9002   1
   4   6   3 823.265 79.7039   2
  -4  -6  -4 1755.67 119.386   2
   4   6   4 1910.38 119.478   2
   4  -6   4 1783.78 83.7457   2
   4   6   4 1768.29 113.209   1
  -4   6  -4 1804.13 81.1934   2
  -4   6  -5 12368.2 235.241   2
   4   6   5 12546.5 318.165   1
  -4  -6  -5 12301.4 322.773   2
   4  -6   5 13048.0 249.784   2
   4   6   5 12554.3 322.393   2
  -4   6  -6 493.529 54.8803   2
  -4  -6  -6 489.020 73.0789   2
   4  -6   6 468.656 54.4868   2
   4   6   6 488.009 70.9677   1
   4   6   6 496.461 71.1722   2
  -4  -6  -7 5594.03 239.058   2
  -4   6  -7 5475.28 187.869   2
   4   6   7 5593.36 238.048   2
   4   6   7 5749.22 240.070   1
   4  -6   7 5673.80 195.529   2
  -4   6  -8 2888.76 146.474   2
  -4  -6  -8 2818.64 179.865   2
   4   6   8 2765.25 177.696   1
   4   6   8 2604.49 171.566   2
  -4   6  -9 8577.52 267.768   2
  -4  -6  -9 8514.45 327.316   2
  -4  -6 -10 214.440 74.9629   2
  -4   6 -10 112.313 43.2542   2
  -4   6 -11 13813.3 380.959   2
  -4  -6 -11 13841.5 449.516   2
  -4   6 -12 1547.37 135.516   2
  -4  -6 -12 1478.04 156.473   2
  -4  -6 -13 973.109 140.830   2
  -4   6 -13 759.937 104.222   2
  -4   6 -14 1850.46 163.088   2
  -4  -6 -14 1855.71 190.550   2
  -4   6 -15 10804.7 405.675   2
  -4  -6 -15 11931.9 488.515   2
  -4   6 -16 249.131 82.2436   2
  -4  -6 -16 323.816 93.1583   2
  -4   6 -17 1061.94 140.202   2
  -4   6 -18 157.555 84.2897   2
   4   8 -20 2196.93 195.668   2
   4   8 -19 93.3500 62.3474   2
   4  -8 -18 4290.55 307.392   2
   4   8 -18 3179.03 222.954   2
   4   8 -17 224.653 69.1625   2
   4  -8 -17 296.532 97.8387   2
   4   8 -16 100.368 59.0067   2
   4  -8 -16 42.7178 54.1151   1
   4  -8 -16 69.9411 67.8998   2
   4   8 -15 143.129 59.6706   2
  -4  -8  15 153.226 50.0686   1
   4  -8 -15 137.090 66.7950   1
   4  -8 -15 205.995 76.0187   2
   4   8 -14 3364.60 197.645   2
  -4  -8  14 3940.13 172.429   1
   4  -8 -14 3817.05 240.195   1
   4   8 -14 3613.55 200.789   2
   4  -8 -14 3973.19 252.014   2
   4   8 -13 31.7916 37.1933   2
   4  -8 -13 65.6038 57.1473   2
  -4  -8  13 172.380 41.3572   1
   4  -8 -13 78.8939 49.8197   1
  -4  -8  12 40527.3 468.359   1
   4   8 -12 40641.6 625.624   2
   4  -8 -12 42371.3 747.645   2
   4  -8 -12 38684.7 709.976   1
  -4  -8  11 4586.05 143.642   1
   4   8 -11 4761.51 200.788   2
   4  -8 -11 4422.36 234.785   1
   4  -8 -11 4791.67 241.126   2
  -4  -8  10 3097.87 104.263   1
   4   8 -10 3484.70 162.166   2
  -4   8  10 2707.36 187.462   1
   4  -8 -10 3100.33 190.818   1
   4  -8 -10 3439.29 191.964   2
   4  -8  -9 624.249 83.3724   2
   4  -8  -9 566.877 86.8719   1
  -4  -8   9 450.019 35.6852   1
   4   8  -9 663.222 69.8076   2
   4  -8  -8 8557.77 296.001   1
   4   8  -8 8667.21 229.205   2
   4  -8  -8 8439.62 273.238   2
   4  -8  -7 391.750 61.9829   2
   4  -8  -7 350.835 63.3899   1
   4   8  -7 474.557 54.2990   2
   4  -8  -6 16907.4 337.005   2
  -4  -8   6 16365.9 295.781   2
   4  -8  -6 16497.4 382.166   1
   4   8  -6 16645.5 289.203   2
   4  -8  -5 3219.57 163.948   1
   4   8  -5 3021.24 119.733   2
  -4  -8   5 3118.66 124.623   2
  -4  -8   4 19306.8 294.878   2
   4   8  -4 19144.9 293.459   2
   4  -8  -4 17724.6 379.899   1
   4  -8  -3 2498.88 101.710   2
   4   8  -3 2442.71 106.462   2
  -4  -8   3 2426.90 104.543   2
   4   8  -2 7150.91 141.684   1
   4  -8  -2 6286.69 148.450   2
  -4  -8   2 6629.30 176.943   2
   4   8  -2 6472.69 176.706   2
   4   8  -1 55.7903 25.3257   2
   4  -8  -1 114.209 22.2920   2
  -4  -8   1 84.7202 28.3790   2
   4   8  -1 57.4941 21.2058   1
   4   8   0 37227.3 456.277   2
   4  -8   0 34422.8 249.710   2
   4  -8   1 2534.99 63.3751   2
   4   8   1 3483.33 136.663   1
   4   8   1 3179.36 143.349   2
  -4  -8  -1 3192.94 143.659   2
   4  -8   2 292.207 24.2403   2
  -4  -8  -2 478.884 63.9042   2
   4   8   2 484.491 59.8330   1
  -4   8  -2 369.240 25.1602   2
   4   8   2 414.096 59.8211   2
   4   8   3 2.27206 29.9924   1
  -4  -8  -3 50.1667 33.6860   2
   4   8   3 45.3377 35.8860   2
   4  -8   3 41.8884 16.1544   2
  -4   8  -3 52.5620 15.4897   2
   4  -8   4 16989.9 220.665   2
  -4  -8  -4 17705.4 380.928   2
   4   8   4 18052.2 383.150   1
   4   8   4 18327.8 393.089   2
  -4   8  -4 17125.7 214.550   2
  -4  -8  -5 5778.88 230.258   2
   4   8   5 5672.21 225.217   1
   4   8   5 5984.43 234.280   2
  -4   8  -5 5800.66 141.869   2
  -4   8  -6 35595.3 398.399   2
  -4  -8  -6 36617.9 611.136   2
   4   8   6 36340.8 596.059   1
   4   8   6 36626.5 608.412   2
   4   8   7 118.715 46.7988   1
  -4   8  -7 122.737 29.8055   2
  -4  -8  -7 226.438 68.5774   2
   4   8   7 189.886 55.5314   2
  -4   8  -8 20552.5 358.228   2
  -4  -8  -8 21278.7 510.757   2
  -4  -8  -9 312.486 75.8657   2
  -4   8  -9 201.951 45.9369   2
  -4   8 -10 4205.24 190.471   2
  -4  -8 -10 4429.52 252.447   2
  -4   8 -11 397.642 65.8295   2
  -4  -8 -11 498.280 103.228   2
  -4   8 -12 17059.6 424.838   2
  -4  -8 -12 17381.8 541.853   2
  -4   8 -13 1360.01 128.534   2
  -4  -8 -13 1384.94 162.879   2
  -4  -8 -14 5146.76 318.569   2
  -4   8 -14 5021.43 254.341   2
  -4  -8 -15 165.546 78.7383   2
  -4   8 -15 145.956 67.1614   2
  -4   8 -16 82.6791 54.4099   2
   4 -10 -18 1434.30 188.555   2
   4  10 -18 1225.37 136.521   2
   4 -10 -17 2700.95 237.696   1
   4 -10 -17 3135.14 259.367   2
   4  10 -17 2285.90 178.955   2
   4  10 -16 834.487 109.950   2
   4 -10 -16 917.528 142.459   1
   4 -10 -16 911.922 146.500   2
   4  10 -15 2106.61 155.242   2
   4 -10 -15 2440.17 207.932   2
   4 -10 -15 2343.92 205.997   1
   4  10 -14 851.812 102.199   2
   4  10 -14 955.796 101.642   2
   4 -10 -14 1157.35 140.674   2
   4 -10 -14 1025.98 141.110   1
  -4 -10  13 448.738 55.2347   1
   4  10 -13 326.694 64.6852   2
   4 -10 -13 199.649 75.4415   1
   4  10 -13 283.297 61.3074   2
   4 -10 -13 373.222 91.9018   2
  -4 -10  12 1304.49 77.4188   1
   4  10 -12 980.428 97.7492   2
   4 -10 -12 1324.53 142.564   1
   4 -10 -12 1087.84 125.983   2
   4 -10 -11 2433.48 182.449   2
   4  10 -11 2493.73 145.749   2
   4 -10 -11 2527.64 187.394   1
  -4 -10  11 2466.26 89.7640   1
   4 -10 -10 63.9722 41.4643   2
   4 -10 -10 22.1644 50.0216   1
   4  10 -10 48.5456 34.7890   2
  -4 -10  10 19.7899 11.7898   1
   4  10  -9 21184.8 376.752   2
   4 -10  -9 22206.4 477.020   2
   4 -10  -9 20603.1 496.354   1
   4  10  -8 1263.39 88.3820   2
   4 -10  -8 1120.93 106.228   2
   4 -10  -8 1066.71 116.178   1
   4 -10  -7 93.4484 43.5761   2
   4 -10  -7 57.8589 44.4954   1
   4  10  -7 60.4895 24.4866   2
   4 -10  -6 8414.19 245.463   2
   4  10  -6 8934.96 214.667   2
   4 -10  -6 8428.27 294.193   1
  -4 -10   6 9050.39 222.747   2
   4  10  -5 1787.04 97.2097   2
   4 -10  -5 1889.86 137.806   1
  -4 -10   5 1694.19 96.4172   2
   4 -10  -5 1530.74 102.480   2
   4  10  -4 212.259 35.3801   2
  -4 -10   4 287.396 42.1153   2
   4 -10  -4 159.660 55.6305   1
   4 -10  -4 203.293 40.7423   2
  -4 -10   3 20052.1 315.218   2
   4 -10  -3 19714.0 294.791   2
   4 -10  -3 19117.1 293.073   2
   4  10  -3 20056.9 320.038   2
   4  10  -2 5103.19 166.066   2
  -4 -10   2 5167.72 163.086   2
   4 -10  -2 4579.63 126.502   2
   4 -10  -2 4910.55 133.310   2
   4  10  -1 18594.2 327.967   2
   4 -10  -1 16438.2 203.531   2
   4 -10  -1 18074.5 213.450   2
  -4 -10   1 18309.7 321.064   2
   4  10  -1 18575.6 292.746   1
   4  10   0 12105.9 254.195   1
   4  10   0 12715.5 282.466   2
   4 -10   0 10070.1 120.972   2
  -4 -10   0 13382.4 287.065   2
   4  10   1 5569.56 186.426   1
   4  10   1 5479.47 196.542   2
  -4 -10  -1 5250.35 191.900   2
   4  10   2 61.7397 33.5213   1
  -4 -10  -2 70.2228 35.7231   2
   4  10   2 119.894 38.6287   2
   4  10   3 35633.5 531.843   1
  -4 -10  -3 35946.9 549.866   2
   4  10   3 35973.9 550.360   2
  -4 -10  -4 371.343 75.1173   2
   4  10   4 375.196 62.1246   1
   4  10   4 239.180 58.8947   2
  -4 -10  -5 850.651 97.7248   2
   4  10   5 918.707 106.519   2
  -4  10  -5 809.987 43.9276   2
   4  10   5 996.834 101.372   1
   4  10   6 5588.54 243.802   1
  -4 -10  -6 6033.91 259.435   2
   4  10   6 5928.22 255.753   2
  -4  10  -6 5433.62 129.444   2
  -4 -10  -7 8471.33 324.142   2
  -4  10  -7 7417.47 173.220   2
  -4  10  -8 1464.59 87.0707   2
  -4 -10  -8 1476.25 140.657   2
  -4 -10  -9 1750.11 164.982   2
  -4  10  -9 1666.25 102.809   2
  -4  10 -10 760.133 75.7328   2
  -4 -10 -10 873.965 120.339   2
  -4  10 -11 1374.62 107.756   2
  -4 -10 -11 1348.21 154.215   2
  -4 -10 -12 2285.20 200.858   2
  -4  10 -12 2147.18 140.293   2
  -4 -10 -13 933.884 144.527   2
  -4  10 -13 753.171 91.6778   2
  -4 -10 -14 63.1421 56.9640   2
   4 -12 -17-1.08846 67.3791   1
   4 -12 -17 59.2293 70.3641   2
   4  12 -16 999.085 107.239   2
   4 -12 -16 1351.13 171.356   2
   4 -12 -16 1231.67 165.229   1
   4  12 -15 54.5633 41.1795   2
   4 -12 -15 62.2056 62.6018   2
   4 -12 -15 66.5943 60.4265   1
   4 -12 -14 4548.98 283.006   1
   4  12 -14 4109.69 203.325   2
   4 -12 -14 4752.98 287.467   2
   4  12 -13 91.5961 41.6989   2
   4  12 -13 77.5011 37.0639   2
   4 -12 -13 83.8541 55.7981   1
   4 -12 -13 90.7151 60.9814   2
   4 -12 -12 6535.25 320.015   1
   4  12 -12 6376.42 233.976   2
   4 -12 -12 7224.51 324.278   2
   4 -12 -11 867.577 122.107   1
   4 -12 -11 1162.21 131.988   2
   4  12 -11 1146.63 94.8892   2
   4 -12 -10 533.200 96.6265   1
   4 -12 -10 544.115 86.2437   2
   4  12 -10 595.074 66.0156   2
   4 -12  -9 296.591 74.5828   1
   4  12  -9 169.153 43.0147   2
   4 -12  -9 262.050 70.4659   2
   4 -12  -8 10015.0 358.312   1
   4 -12  -8 9717.84 308.869   2
   4  12  -8 9798.14 240.614   2
   4 -12  -7 93.9220 58.3978   1
   4  12  -7 46.2080 25.9333   2
   4 -12  -7 88.5938 45.9036   2
   4 -12  -6 3800.57 213.852   1
  -4 -12   6 3692.64 146.520   2
   4 -12  -6 3617.18 169.682   2
   4  12  -6 3654.31 140.384   2
   4 -12  -5 1968.58 118.074   2
  -4 -12   5 2110.06 108.072   2
   4 -12  -5 2029.97 156.293   1
   4  12  -5 1982.59 102.447   2
   4  12  -4 21719.8 341.251   2
   4 -12  -4 20652.8 463.455   1
  -4 -12   4 21643.9 335.559   2
   4 -12  -4 21375.4 354.210   2
   4  12  -3 8510.74 215.866   2
   4 -12  -3 8886.27 202.859   2
  -4 -12   3 8950.65 218.781   2
   4 -12  -3 8163.38 198.700   2
   4 -12  -3 6847.63 269.392   1
   4  12  -2 13833.4 286.616   2
   4 -12  -2 13044.1 222.936   2
   4 -12  -2 12888.0 220.009   2
  -4 -12   2 14292.8 288.878   2
   4 -12  -1 1778.99 68.3463   2
   4  12  -1 2086.44 116.495   2
  -4 -12   1 2162.89 118.067   2
   4 -12  -1 1894.45 69.9376   2
   4  12   0 33067.7 473.174   1
   4  12   0 30855.8 469.891   2
  -4 -12   0 31797.8 471.774   2
   4  12   1 73.6109 34.9464   2
  -4 -12  -1 54.4004 38.6692   2
   4  12   1 120.050 40.0005   1
   4  12   2 13597.1 339.642   2
   4  12   2 13457.6 332.801   1
  -4 -12  -2 13440.0 335.925   2
  -4 -12  -3 1276.59 113.007   2
   4  12   3 925.879 91.4174   1
   4  12   3 1179.87 107.546   2
  -4 -12  -4 17698.2 426.142   2
   4  12   4 17468.5 415.877   1
   4  12   4 17627.8 426.263   2
  -4 -12  -5 3503.82 201.945   2
   4  12   5 3307.39 188.361   1
   4  12   5 3505.12 197.738   2
  -4 -12  -6 18296.7 468.929   2
  -4 -12  -7 3759.89 224.296   2
  -4  12  -7 2771.18 80.2948   2
  -4  12  -7 2638.73 75.7831   2
  -4 -12  -8 1648.49 158.454   2
  -4  12  -8 1490.92 70.5377   2
  -4  12  -8 1485.64 71.3243   2
  -4 -12  -9 1297.08 148.856   2
  -4  12  -9 1056.11 69.4916   2
  -4 -12 -10 3549.51 245.767   2
  -4  12 -10 2951.13 125.979   2
  -4 -12 -11 8.97175 53.3485   2
  -4 -12 -12 6427.56 350.642   2
  -4 -12 -13 127.945 77.0775   2
  -4 -12 -14 2955.32 255.177   2
   4 -14 -16 283.414 112.166   2
   4 -14 -15 4171.79 292.029   1
   4 -14 -15 4353.92 292.470   2
   4 -14 -14 1852.94 193.672   1
   4 -14 -14 1914.56 188.282   2
   4  14 -13 39.0052 35.6074   2
   4 -14 -13 129.299 78.8538   1
   4 -14 -13 9.67230 56.5491   2
   4 -14 -12 147.154 72.7776   1
   4  14 -12 163.278 42.0727   2
   4 -14 -12 268.107 84.4817   2
   4 -14 -11 3550.85 250.676   1
   4 -14 -11 3354.50 223.329   2
   4 -14 -10-13.7564 51.2314   1
   4 -14 -10 13.9130 43.7609   2
   4  14 -10 26.8455 30.6024   2
   4 -14  -9 9618.13 336.044   2
   4  14  -9 9194.49 233.504   2
   4 -14  -9 9034.88 371.610   1
   4 -14  -8 83.8435 70.9946   1
   4 -14  -8 113.508 52.4208   2
   4  14  -8 83.3580 33.3525   2
   4  14  -7 23.6718 23.5925   2
   4 -14  -7-1.19117 49.7065   1
   4 -14  -7 61.0662 46.8856   2
  -4 -14   6 4033.42 152.271   2
   4 -14  -6 3367.80 209.454   1
   4  14  -6 3767.64 140.801   2
   4 -14  -6 3902.07 183.290   2
   4  14  -5 14961.7 285.232   2
   4 -14  -5 15520.9 442.257   1
   4 -14  -5 15251.1 341.080   2
  -4 -14   5 15541.3 295.290   2
   4  14  -4 764.005 68.8022   2
  -4 -14   4 822.837 71.1569   2
   4 -14  -4 938.275 113.312   1
   4 -14  -4 750.073 70.8521   2
   4 -14  -3 26989.2 576.075   1
   4  14  -3 26999.9 401.167   2
   4 -14  -3 27806.7 380.345   2
   4 -14  -3 28146.1 381.705   2
  -4 -14   3 27797.4 401.512   2
   4 -14  -2 90.2849 20.5907   2
   4  14  -2 148.713 36.2164   2
   4 -14  -2 4.74260 47.2490   1
  -4 -14   2 201.534 44.3305   2
   4 -14  -2 113.810 26.2498   2
  -4 -14   1 1227.27 96.6898   2
   4 -14  -1 896.846 44.8683   2
   4  14  -1 1131.51 92.0243   2
   4 -14  -1 965.492 47.6583   2
   4  14   0 3785.17 170.587   2
  -4 -14   0 4021.39 177.221   2
  -4 -14  -1 81.6471 44.0478   2
   4  14   1 120.533 49.5648   1
   4  14   1 60.2136 34.7778   2
   4  14   2 2579.06 165.033   1
   4  14   2 2052.17 141.913   2
  -4 -14  -2 2050.27 143.564   2
   4  14   3 44216.9 683.615   1
  -4 -14  -3 46677.3 692.430   2
   4  14   3 46606.8 700.114   2
  -4 -14  -4 507.478 81.7882   2
   4  14   4 491.682 77.5377   2
   4  14   4 340.600 67.2027   1
  -4 -14  -5 165.148 65.3717   2
  -4 -14  -6 24.4263 45.1792   2
  -4 -14  -7 265.663 71.5321   2
  -4 -14  -8 3340.36 227.599   2
  -4 -14  -9 6750.60 332.732   2
  -4 -14 -10 326.722 83.5879   2
  -4 -14 -11 2750.11 228.577   2
  -4 -14 -12 77.6596 59.9653   2
  -4 -14 -13 1135.95 169.941   2
   4 -16 -15 219.567 77.6274   2
   4 -16 -14 1705.77 195.926   1
   4 -16 -14 1754.70 188.566   2
   4 -16 -13-45.6260 60.7729   1
   4 -16 -13 24.5093 64.4086   2
   4 -16 -12 7421.12 346.983   2
   4 -16 -12 6978.93 371.617   1
   4 -16 -11 1553.87 152.821   2
   4 -16 -11 1521.61 176.714   1
   4 -16 -10 1356.89 159.676   1
   4 -16 -10 1305.42 137.702   2
   4 -16  -9 2426.53 176.748   2
   4 -16  -9 2140.76 196.514   1
   4 -16  -8 6979.73 338.815   1
   4 -16  -8 6754.77 280.325   2
   4  16  -7 1021.88 72.3185   2
   4 -16  -7 1333.28 122.773   2
   4 -16  -7 1138.22 138.026   1
   4  16  -6 6257.56 178.654   2
   4 -16  -6 6922.43 256.143   2
   4 -16  -6 6514.93 314.779   1
  -4 -16   6 7072.70 197.494   2
   4 -16  -5 123.102 66.9305   1
   4 -16  -5 241.188 53.5338   2
  -4 -16   5 358.849 49.2652   2
   4  16  -5 200.018 34.7450   2
  -4 -16   4 60.8208 33.5126   2
   4 -16  -4 76.4079 56.9922   1
   4 -16  -4 43.5983 31.6541   2
   4 -16  -4 37.9195 34.1735   2
   4  16  -4 25.5822 28.3702   2
   4 -16  -3 12460.1 254.067   2
   4 -16  -3 13644.0 273.018   2
  -4 -16   3 12773.8 279.557   2
   4  16  -3 11735.6 269.135   2
   4 -16  -3 10835.8 379.496   1
   4 -16  -2 3106.06 204.999   1
   4 -16  -2 2491.19 95.0439   2
   4 -16  -2 2810.40 106.105   2
   4  16  -2 3072.08 146.503   2
  -4 -16   2 3324.94 151.838   2
   4 -16  -1 145.097 62.6872   1
   4  16  -1 149.384 46.4740   2
  -4 -16   1 103.779 44.9011   2
   4  16   0 14151.7 347.656   2
  -4 -16   0 15180.0 357.066   2
   4  16   1 68.9166 44.2007   2
  -4 -16  -1 140.424 49.1540   2
  -4 -16  -2-30.9190 50.6221   2
   4  16   2 22.8022 36.5532   2
   4  16   3 2816.72 176.714   2
   4  16   3 2127.02 161.991   1
  -4 -16  -3 3117.23 188.560   2
  -4 -16  -4 1233.19 129.087   2
  -4 -16  -5 935.654 117.002   2
  -4 -16  -6 10757.8 398.773   2
  -4 -16  -7 202.491 73.4611   2
  -4 -16  -8 2540.45 208.531   2
  -4 -16  -9 2366.79 209.377   2
  -4 -16 -10 866.007 141.715   2
  -4 -16 -11-29.1902 64.8175   2
  -4 -16 -12 1695.97 195.000   2
   4 -18 -14 311.182 137.167   2
   4 -18 -13 2602.46 220.306   2
   4 -18 -12 397.391 105.559   2
   4 -18 -12 209.132 79.9542   1
   4 -18 -11 6894.44 341.089   2
   4 -18 -11 6653.58 371.431   1
   4 -18 -10 671.664 126.833   1
   4 -18 -10 771.526 113.608   2
   4 -18  -9 10379.2 379.868   2
   4 -18  -9 9834.47 431.164   1
   4 -18  -8 16.0140 50.4191   2
   4 -18  -8 80.3679 61.7874   1
   4 -18  -7 241.731 63.5665   2
   4 -18  -7 232.531 87.8728   1
   4 -18  -6 2146.51 149.135   2
   4 -18  -6 1603.88 162.853   1
   4 -18  -5 4031.21 185.818   2
  -4 -18   5 3939.62 152.083   2
   4 -18  -5 3980.81 259.183   1
   4 -18  -4-67.0262 36.3455   2
  -4 -18   4 11.3172 26.4602   2
   4 -18  -4-36.2197 71.1235   1
   4 -18  -3 5060.90 161.680   2
  -4 -18   3 5500.44 188.905   2
   4 -18  -3 5367.80 287.534   1
   4 -18  -2 30.8886 16.0737   2
  -4 -18   2 73.9854 38.9505   2
   4 -18  -2 168.686 73.4970   1
   4  18  -2-21.7389 29.2348   2
   4 -18  -1 2529.49 187.817   1
   4  18  -1 2640.71 146.658   2
  -4 -18   1 2809.47 150.182   2
   4  18   0 67.5566 40.7442   2
   4 -18   0 103.391 56.3900   1
  -4 -18   0 79.4117 39.3068   2
   4  18   1 7268.33 269.892   2
  -4 -18  -1 7764.78 280.765   2
   4 -18   1 5893.06 286.069   1
   4  18   2 265.031 69.1408   2
  -4 -18  -2 269.934 63.2918   2
  -4 -18  -3 6194.77 277.844   2
  -4 -18  -4 65.8358 56.0634   2
  -4 -18  -5 2819.36 204.654   2
  -4 -18  -6-37.5454 49.8390   2
  -4 -18  -7 498.894 107.077   2
  -4 -18  -8 436.656 112.093   2
  -4 -18  -9 4252.22 295.219   2
  -4 -18 -10 310.099 101.597   2
  -4 -18 -11 1220.61 183.607   2
   4 -20 -14 1826.01 200.759   2
   4 -20 -13 162.592 82.4394   2
   4 -20 -12 1786.77 188.885   2
   4 -20 -11 140.447 76.1477   2
   4 -20 -11 99.5248 79.0117   1
   4 -20 -10 134.369 82.8748   1
   4 -20 -10 70.6255 57.1064   2
   4 -20  -9 1165.51 160.601   1
   4 -20  -9 1503.53 148.782   2
   4 -20  -8 702.638 134.574   1
   4 -20  -8 869.117 118.622   2
   4 -20  -7 30.0799 59.4299   1
   4 -20  -6 8423.21 394.142   1
   4 -20  -5 567.433 109.879   1
   4 -20  -4 382.415 91.5093   1
   4 -20  -3 7075.83 337.833   1
   4 -20  -2 1921.91 178.727   1
   4 -20  -1 357.001 87.1692   1
  -4 -20   1 513.112 71.0027   2
  -4 -20   0 5590.51 228.680   2
   4 -20   0 4588.68 265.369   1
   4 -20   1 263.055 75.5686   1
  -4 -20  -1 330.317 71.8435   2
  -4 -20  -2 693.325 97.9984   2
   4 -20   2 475.468 94.2725   1
   4 -20   3 297.028 74.4300   1
  -4 -20  -3 646.854 99.2500   2
  -4 -20  -4 1972.78 168.403   2
  -4 -20  -5 3772.55 244.426   2
  -4 -20  -6 4551.81 283.061   2
  -4 -20  -7 596.216 111.230   2
  -4 -20  -8 628.651 126.796   2
  -4 -20  -9 427.728 107.473   2
  -4 -20 -10 260.103 96.7538   2
   4 -22  -9 2328.63 244.278   1
   4 -22  -8 80.3896 66.4381   1
   4 -22  -7 274.204 91.4862   1
   4 -22  -6 1081.79 142.676   1
   4 -22  -5 258.796 91.0669   1
   4 -22  -4 362.915 103.850   1
   4 -22  -3 3813.89 267.451   1
   4 -22  -2 166.731 72.5718   1
   4 -22  -1 5870.48 315.221   1
   4 -22   0 1271.45 145.770   1
   4 -22   1 647.065 107.772   1
   4 -22   2-79.1527 56.0259   1
   4 -24  -6 2766.98 253.632   1
   4 -24  -5 209.176 91.4792   1
   4 -24  -4 877.056 145.741   1
   4 -24  -3 155.250 74.8830   1
   4 -24  -2 1236.20 161.976   1
   5  -1 -20 422.421 109.602   2
   5   1 -20 422.673 112.373   2
   5  -1 -19 3649.16 274.882   2
   5   1 -19 3060.69 248.983   2
   5  -1 -18-35.2722 59.7904   2
   5   1 -18-51.0889 59.8683   2
   5   1 -17 3154.05 227.638   2
   5  -1 -17 3435.50 252.445   2
   5   1 -16 6555.26 316.517   2
   5  -1 -16 6986.52 333.800   2
  -5  -1  15 1527.21 142.679   1
   5  -1 -15 1342.49 144.033   2
   5   1 -15 1270.67 148.097   2
   5  -1 -14 4313.73 248.051   2
   5   1 -14 4004.26 235.723   2
  -5   1  14 3917.65 221.638   1
   5  -1 -14 4629.22 232.786   1
  -5  -1  14 4091.00 216.463   1
  -5   1  13 9225.92 322.305   1
   5   1 -13 9907.53 309.273   1
   5  -1 -13 9534.27 317.591   1
  -5  -1  13 9454.00 308.268   1
  -5   1  12 622.719 83.8760   1
   5   1 -12 685.664 82.0253   1
   5  -1 -12 769.618 90.4361   1
  -5  -1  12 592.429 78.3961   1
  -5  -1  11 8520.21 261.439   1
  -5   1  11 8558.65 283.103   1
   5  -1 -11 8847.11 277.232   1
   5   1 -11 8985.47 262.385   1
   5   1 -11 9011.10 294.585   2
  -5  -1  10 9448.11 260.005   1
   5   1 -10 9256.29 282.845   2
   5   1 -10 9376.98 250.463   1
  -5   1  10 9087.53 272.848   1
   5  -1 -10 9252.50 268.126   1
  -5  -1   9 24.1251 27.2800   1
   5  -1  -9 8.27468 33.3946   1
  -5   1   9-12.8739 30.3947   1
   5   1  -9-6.71753 29.9087   2
   5  -1  -8 183.491 44.6735   1
   5  -1  -8 122.723 42.8501   2
   5   1  -8 127.049 36.8834   1
   5   1  -8 159.634 43.0576   2
   5  -1  -7 640.132 67.6828   1
   5   1  -7 616.210 57.6164   1
   5   1  -7 662.040 68.9920   2
   5  -1  -7 680.703 72.8244   2
   5   1  -6 11971.7 219.695   1
   5  -1  -6 12372.1 267.496   2
   5   1  -6 12445.7 263.118   2
   5  -1  -6 12288.6 256.173   1
  -5   1   5 42546.7 463.914   2
   5  -1  -5 42722.3 464.019   2
  -5  -1   5 44061.3 474.208   2
   5   1  -5 42639.6 455.208   2
  -5   1   4 6702.09 177.471   2
   5   1  -4 6300.83 170.687   2
  -5  -1   4 6332.18 173.011   2
   5  -1  -4 6508.93 174.277   2
  -5   1   3 173871. 831.586   2
  -5  -1   3 176667. 854.000   2
   5  -1  -3 173932. 837.081   2
   5   1  -3 178136. 849.930   2
   5  -1  -2 122235. 664.524   2
  -5   1   2 119224. 662.474   2
   5   1  -2 122622. 694.255   2
  -5  -1   2 121067. 687.163   2
  -5   1   1 28443.0 320.350   2
  -5  -1   1 28774.2 345.419   2
   5  -1  -1 28994.1 326.920   2
   5   1  -1 28517.1 347.553   2
   5   1   0 272.151 41.5109   2
  -5   1   0 366.808 46.4100   2
   5  -1   0 325.342 45.7389   2
  -5  -1   0 321.827 50.6045   2
   5  -1   1 35226.7 387.905   2
  -5  -1  -1 34415.5 407.097   2
   5   1   1 35048.8 409.360   2
  -5   1  -1 34937.4 385.448   2
   5  -1   2 13153.6 248.564   2
   5   1   2 13160.5 271.297   2
  -5   1  -2 12778.8 246.427   2
  -5  -1  -2 12348.4 260.576   2
  -5  -1  -3 15306.9 304.792   2
  -5   1  -3 15009.4 284.698   2
   5  -1   3 14574.6 277.934   2
   5   1   3 15312.8 299.112   2
  -5   1  -4 25498.5 393.643   2
  -5  -1  -4 24872.2 412.740   2
   5   1   4 24910.4 400.852   2
   5  -1   4 24893.9 384.668   2
  -5   1  -5 7965.55 237.976   2
  -5  -1  -5 8363.91 250.979   2
   5  -1   5 8144.41 234.796   2
   5   1   5 8364.88 246.110   2
  -5   1  -6 1719.18 118.357   2
  -5  -1  -6 1932.46 130.783   2
   5   1   6 1890.39 127.032   2
   5  -1   6 1661.81 116.284   2
  -5   1  -7 5229.15 215.467   2
  -5  -1  -7 5163.14 224.027   2
   5  -1   7 5180.37 213.321   2
   5   1   7 5285.95 222.802   2
   5   1   8 28531.0 536.629   2
  -5   1  -8 28440.5 528.643   2
  -5  -1  -8 28474.5 544.308   2
   5  -1   8 28805.0 530.628   2
   5   1   9 359.493 75.0587   2
  -5  -1  -9 369.949 76.0592   2
  -5   1  -9 353.382 75.5026   2
   5  -1   9 324.834 64.6140   2
  -5   1 -10 9622.10 346.195   2
  -5  -1 -10 9499.87 348.747   2
  -5   1 -11 6627.90 295.032   2
  -5  -1 -11 6626.98 303.225   2
  -5   1 -12 40.4239 49.7711   2
  -5  -1 -12 87.1109 56.6380   2
  -5   1 -13 10376.9 404.723   2
  -5  -1 -13 10713.6 421.625   2
  -5   1 -14 2594.76 214.719   2
  -5  -1 -14 2714.35 223.465   2
  -5   1 -15-48.6129 56.6049   2
  -5  -1 -15 109.730 70.2524   2
  -5   1 -16 3828.44 277.943   2
  -5  -1 -16 4136.81 298.192   2
  -5  -1 -17 372.396 116.887   2
  -5   1 -17 125.722 81.2057   2
   5   3 -20 262.376 93.4317   2
   5  -3 -19 1877.03 211.131   2
   5   3 -19 1533.13 175.770   2
   5  -3 -18 115.597 82.0286   2
   5   3 -18 50.9116 63.8555   2
   5   3 -17 2724.07 214.525   2
   5  -3 -17 3247.27 244.056   2
   5  -3 -16 3889.97 244.044   1
  -5  -3  16 3616.67 212.457   1
   5  -3 -16 3765.45 257.894   2
   5   3 -16 3443.87 230.580   2
   5  -3 -15 233.290 73.1556   2
   5   3 -15 224.572 68.4101   2
  -5  -3  15 336.404 69.6971   1
   5  -3 -15 301.478 82.0790   1
   5  -3 -14 2183.80 167.138   1
  -5  -3  14 2059.33 145.997   1
   5  -3 -14 2302.33 183.123   2
  -5   3  13 7727.12 313.416   1
  -5  -3  13 7916.66 264.950   1
   5  -3 -13 7689.49 295.377   1
   5   3 -13 7333.44 292.793   2
   5  -3 -13 7931.23 325.458   2
  -5   3  12 5946.93 262.747   1
   5   3 -12 5715.17 249.117   2
  -5  -3  12 5579.34 209.522   1
   5  -3 -12 5726.11 247.433   1
  -5  -3  11 12158.1 285.490   1
   5   3 -11 13875.6 361.467   2
   5  -3 -11 12628.1 348.474   1
  -5   3  11 12596.4 359.539   1
   5   3 -10 11057.1 250.547   1
   5   3 -10 11125.7 306.847   2
  -5  -3  10 11006.6 255.808   1
   5  -3 -10 10454.4 302.657   1
  -5   3  10 10493.8 311.366   1
  -5  -3   9 159.139 36.1028   1
   5   3  -9 130.442 36.8241   2
   5   3  -9 220.614 37.2407   1
   5  -3  -9 135.869 48.3885   1
   5   3  -8 14298.5 237.654   1
   5  -3  -8 13808.4 315.583   1
   5   3  -8 15215.1 320.228   2
   5  -3  -7 50.8190 34.9558   1
   5  -3  -7 100.239 36.6691   2
   5   3  -7 86.6652 25.7227   1
   5   3  -7 147.498 46.1102   2
   5  -3  -6 1499.82 93.8891   2
   5   3  -6 1473.81 91.0462   2
   5   3  -6 1161.89 57.7262   1
   5  -3  -6 1063.48 90.7739   1
  -5  -3   6 1408.40 90.5232   2
  -5  -3   5 13645.8 263.464   2
   5  -3  -5 13757.0 270.236   2
   5   3  -5 13580.8 258.186   2
   5  -3  -4 51023.1 485.430   2
  -5   3   4 50133.2 483.268   2
   5   3  -4 51401.0 480.857   2
  -5  -3   4 50802.2 485.830   2
  -5   3   3 753.649 68.7826   2
  -5  -3   3 594.020 61.9843   2
   5  -3  -3 649.413 55.9695   2
   5   3  -3 594.789 58.5815   2
  -5   3   2 4838.27 131.326   2
   5  -3  -2 4810.94 131.744   2
  -5  -3   2 4473.70 142.264   2
   5   3  -2 4545.09 140.088   2
   5   3  -1 257.562 39.8140   2
  -5  -3   1 303.221 50.5638   2
   5  -3  -1 261.091 36.3311   2
  -5   3   1 268.057 38.1452   2
   5   3   0 40.8415 31.2644   2
  -5   3   0 53.5302 27.1247   2
  -5  -3   0 58.6895 37.7594   2
   5  -3   0 7.78769 22.5534   2
   5   3   1 26800.6 376.850   2
  -5   3  -1 26914.2 315.539   2
  -5  -3  -1 26206.1 370.513   2
   5  -3   1 26711.7 316.442   2
   5  -3   2 26318.8 330.455   2
   5   3   2 27238.2 396.648   2
  -5  -3  -2 26298.6 391.950   2
  -5  -3  -3 4335.03 171.062   2
   5  -3   3 4045.83 142.611   2
   5   3   3 4115.03 165.518   2
  -5   3  -3 4081.95 142.732   2
  -5   3  -4 13242.4 272.102   2
  -5  -3  -4 12892.5 312.353   2
   5   3   4 13229.0 305.063   2
   5  -3   4 13177.3 266.949   2
  -5   3  -5 8239.65 229.457   2
   5  -3   5 8138.87 228.466   2
   5   3   5 8278.29 255.186   2
  -5  -3  -5 7742.15 254.975   2
  -5   3  -6 208.246 46.0114   2
  -5  -3  -6 221.303 53.1583   2
   5   3   6 286.790 63.8918   2
   5  -3   6 188.152 45.0914   2
  -5   3  -7 7831.50 256.959   2
  -5  -3  -7 7874.46 281.735   2
   5   3   7 8204.13 291.684   1
   5   3   7 7780.08 278.643   2
   5  -3   7 8407.37 261.692   2
  -5   3  -8 5753.32 232.031   2
  -5  -3  -8 5442.91 247.967   2
   5   3   8 6101.41 265.741   1
   5   3   8 5657.40 243.971   2
   5  -3   8 5817.94 233.487   2
  -5   3  -9 9322.89 308.419   2
  -5  -3  -9 9110.74 331.349   2
   5  -3   9 9449.97 311.446   2
  -5   3 -10 2619.08 174.121   2
  -5  -3 -10 2698.86 193.560   2
   5  -3  10 2696.41 177.855   2
  -5   3 -11 22564.7 528.917   2
  -5  -3 -11 23165.9 575.398   2
  -5   3 -12 723.981 103.644   2
  -5  -3 -12 708.561 117.611   2
  -5   3 -13 8062.08 347.713   2
  -5  -3 -13 7973.97 369.280   2
  -5   3 -14 6315.60 320.738   2
  -5  -3 -14 6769.47 357.240   2
  -5  -3 -15 203.805 81.7660   2
  -5   3 -15 161.051 72.5485   2
  -5   3 -16 4306.07 283.101   2
  -5  -3 -16 4420.45 309.804   2
  -5   3 -17 474.165 123.074   2
   5   5 -21 234.624 94.8426   2
   5   5 -20 97.2360 78.2059   2
   5   5 -19 389.497 93.6179   2
   5  -5 -19 626.713 135.174   2
   5   5 -18 273.427 81.9064   2
   5  -5 -18 446.377 110.437   2
   5  -5 -17 2186.29 198.264   1
   5  -5 -17 2191.68 213.101   2
   5   5 -17 1867.16 175.417   2
   5  -5 -16 3212.23 227.933   1
   5   5 -16 2804.33 206.022   2
  -5  -5  16 3149.37 186.922   1
   5  -5 -16 3640.92 255.374   2
   5  -5 -15 1128.79 141.271   2
   5   5 -15 781.193 114.171   2
  -5  -5  15 1144.28 107.496   1
   5  -5 -15 1006.25 132.049   1
   5  -5 -14 16252.8 491.574   2
   5  -5 -14 15155.0 449.419   1
  -5  -5  14 15169.3 362.345   1
   5   5 -13 18267.8 458.335   2
  -5  -5  13 17461.8 364.631   1
   5  -5 -13 17031.6 459.733   1
   5  -5 -13 18671.3 502.353   2
  -5   5  12 304.167 72.4881   1
   5  -5 -12 277.139 72.9821   1
   5  -5 -12 278.259 68.3846   2
   5   5 -12 185.977 49.0968   2
  -5  -5  12 398.988 59.0367   1
  -5   5  11 8337.38 309.960   1
  -5  -5  11 9055.53 224.093   1
   5  -5 -11 9846.26 338.579   2
   5   5 -11 9742.94 298.375   2
   5  -5 -11 8980.93 309.423   1
   5   5 -10 9810.97 287.601   2
  -5  -5  10 9537.01 213.733   1
   5  -5 -10 9129.46 298.882   1
   5  -5  -9 30.5211 37.3577   1
   5   5  -9 48.2692 30.0446   2
   5  -5  -8 15007.4 353.133   1
   5   5  -8 15104.3 312.590   2
   5   5  -7 45841.7 300.985   1
   5   5  -7 50079.1 539.521   2
   5  -5  -7 48514.0 612.458   1
  -5  -5   6 2463.50 118.891   2
   5   5  -6 1631.28 48.1996   1
   5  -5  -6 1781.01 122.458   1
   5   5  -6 2492.02 114.633   2
   5  -5  -6 2535.67 122.431   2
   5   5  -5 4355.87 148.241   2
   5  -5  -5 4608.90 156.191   2
  -5  -5   5 4325.01 148.791   2
   5   5  -4 427.956 50.0829   2
   5  -5  -4 395.300 49.4443   2
  -5  -5   4 485.850 58.6943   2
   5  -5  -3 1478.89 78.7869   2
  -5  -5   3 1559.00 85.5852   2
   5   5  -3 1486.68 86.2842   2
  -5   5   2 20454.9 275.651   2
   5  -5  -2 20164.3 268.255   2
  -5  -5   2 20183.2 307.614   2
   5   5  -2 20109.2 313.720   2
  -5   5   1 26476.5 288.189   2
   5   5  -1 25945.7 363.626   2
   5  -5  -1 26090.8 284.855   2
  -5  -5   1 26136.1 361.486   2
   5   5   0 981.397 79.9879   2
  -5   5   0 1044.73 57.4503   2
   5  -5   0 980.206 58.4666   2
  -5  -5   0 961.549 77.5165   2
   5  -5   1 1189.19 63.7973   2
   5   5   1 1085.39 84.0672   2
  -5   5  -1 1182.29 61.6236   2
  -5  -5  -1 1083.03 82.4815   2
   5  -5   2 4854.10 136.136   2
   5   5   2 4942.69 182.850   2
  -5  -5  -2 4850.46 182.437   2
  -5   5  -2 5087.65 134.910   2
  -5  -5  -3 12269.1 302.667   2
   5  -5   3 12392.6 226.607   2
   5   5   3 12480.2 297.288   2
  -5   5  -3 12538.6 227.634   2
  -5   5  -4 10913.7 227.003   2
   5  -5   4 10905.4 230.749   2
  -5  -5  -4 11108.3 300.482   2
   5   5   4 10991.6 293.554   1
   5   5   4 11373.4 298.594   2
  -5  -5  -5-6.66127 38.1433   2
  -5   5  -5 74.7861 32.7173   2
   5   5   5 64.6891 38.1535   1
   5   5   5 22.6149 30.3653   2
   5  -5   5 54.0916 28.7501   2
  -5   5  -6 732.556 71.8922   2
   5   5   6 1180.44 152.402   1
  -5  -5  -6 670.147 89.7467   2
   5  -5   6 758.543 75.3615   2
   5   5   6 711.492 87.4773   2
  -5   5  -7 18167.2 364.128   2
  -5  -5  -7 18160.7 448.056   2
   5   5   7 18708.7 443.431   1
   5   5   7 18639.3 438.960   2
   5  -5   7 18964.4 381.781   2
  -5  -5  -8 4118.45 220.871   2
  -5   5  -8 3961.27 184.347   2
   5  -5   8 4352.67 194.481   2
   5  -5   9 13.1869 35.0742   2
  -5  -5  -9 13.7836 45.6035   2
  -5   5  -9 39.0728 42.4395   2
   5  -5  10 7761.46 293.351   2
  -5   5 -10 7759.94 289.698   2
  -5  -5 -10 7540.95 327.296   2
  -5   5 -11 7286.20 293.873   2
  -5  -5 -11 7245.60 329.901   2
  -5   5 -12 327.787 83.1251   2
  -5  -5 -12 351.045 92.4486   2
  -5   5 -13 10228.1 380.017   2
  -5  -5 -13 10564.2 435.369   2
  -5   5 -14 7345.96 338.365   2
  -5  -5 -14 7694.06 382.947   2
  -5  -5 -15 140.157 84.7399   2
  -5   5 -15 132.494 70.8811   2
  -5   5 -16 2687.65 219.548   2
  -5   5 -17 1082.23 144.896   2
  -5   5 -18-35.7476 70.3535   2
   5   7 -21 109.392 65.5762   2
   5   7 -20 164.893 70.6677   2
   5   7 -19 391.003 90.8771   2
   5  -7 -19 584.824 130.060   2
   5   7 -18 198.094 76.9081   2
   5  -7 -18 215.977 95.0316   2
   5  -7 -17 1836.48 190.365   1
   5  -7 -17 1703.98 187.844   2
   5   7 -17 1496.24 154.290   2
   5  -7 -16 378.035 95.8036   2
   5   7 -16 329.873 90.3942   2
   5  -7 -16 319.247 90.6415   1
   5   7 -15 1893.46 158.740   2
   5  -7 -15 2102.40 185.051   1
   5  -7 -15 2300.16 204.829   2
  -5  -7  15 2293.63 141.795   1
   5  -7 -14 8784.48 358.674   1
   5  -7 -14 9662.62 384.503   2
  -5  -7  14 8782.13 255.712   1
   5   7 -13 8605.05 310.955   2
   5  -7 -13 8743.84 344.434   1
   5  -7 -13 8719.49 350.234   2
  -5  -7  13 9046.90 240.278   1
  -5  -7  12 5222.85 164.981   1
   5   7 -12 4875.16 220.904   2
   5  -7 -12 4928.78 251.170   1
   5  -7 -12 5195.15 262.984   2
  -5  -7  11 5375.23 152.823   1
   5   7 -11 5432.58 218.720   2
   5  -7 -11 5270.68 250.799   1
   5  -7 -11 5823.63 261.516   2
   5  -7 -10 9031.66 315.310   2
   5   7 -10 9055.65 269.624   2
   5  -7 -10 8399.51 304.245   1
   5  -7  -9 396.552 74.7687   1
   5   7  -9 563.031 64.6359   2
   5   7  -8 808.016 73.2217   2
   5  -7  -8 658.557 85.6782   1
   5   7  -7 9933.53 244.106   2
   5  -7  -7 10281.4 308.957   1
  -5  -7   7 9953.34 252.234   2
   5  -7  -6 1308.48 112.692   1
  -5  -7   6 1085.04 83.6701   2
   5   7  -6 1061.58 80.7500   2
   5  -7  -5 18320.9 399.034   1
  -5  -7   5 17062.4 301.409   2
   5  -7  -5 17461.0 313.708   2
   5   7  -5 17108.7 301.090   2
  -5  -7   4 43698.3 470.172   2
   5  -7  -4 44384.9 467.167   2
   5   7  -4 43702.8 473.541   2
   5   7  -3 40.1999 14.7435   1
  -5  -7   3 40.9764 32.0597   2
   5  -7  -3 27.4848 25.8024   2
   5   7  -3 28.9101 24.3605   2
   5  -7  -2 17214.5 248.646   2
   5   7  -2 16637.1 217.361   1
  -5  -7   2 16773.9 297.559   2
   5   7  -2 16902.2 302.348   2
   5   7  -1 5104.39 176.214   2
  -5   7   1 4852.88 128.079   2
   5  -7  -1 5116.38 123.227   2
  -5  -7   1 5089.45 172.837   2
   5   7  -1 5116.36 140.703   1
   5   7   0 826.870 63.4871   1
  -5   7   0 1000.97 55.6632   2
  -5  -7   0 831.696 77.6004   2
   5  -7   0 924.365 51.5954   2
   5   7   0 782.413 70.5105   2
   5  -7   1 1336.34 62.1138   2
   5   7   1 1293.31 94.0465   2
   5   7   1 1193.36 81.6023   1
  -5   7  -1 1332.22 61.0325   2
  -5  -7  -1 1174.49 93.0230   2
   5  -7   2 6649.80 140.131   2
   5   7   2 6911.22 208.652   1
  -5   7  -2 7211.06 139.900   2
   5   7   2 7068.62 223.742   2
  -5  -7  -2 6988.04 221.934   2
  -5  -7  -3 8929.38 270.371   2
   5   7   3 8984.17 254.261   1
   5  -7   3 8777.06 175.689   2
   5   7   3 8863.55 265.453   2
  -5   7  -3 9092.19 174.716   2
  -5  -7  -4 8222.33 274.279   2
   5  -7   4 8673.22 191.282   2
   5   7   4 8262.35 260.827   1
   5   7   4 8219.61 267.686   2
  -5   7  -4 8471.58 184.617   2
  -5  -7  -5 584.722 85.1804   2
   5   7   5 954.092 177.060   2
   5  -7   5 643.172 63.5019   2
   5   7   5 695.268 87.3805   1
  -5   7  -5 652.809 61.2233   2
  -5   7  -6 1389.12 93.3901   2
  -5  -7  -6 1266.11 118.838   2
   5   7   6 1095.88 108.722   1
   5   7   6 1169.32 114.265   2
   5  -7   6 1424.30 93.4141   2
  -5   7  -7 11916.4 280.369   2
  -5  -7  -7 12023.5 370.600   2
   5  -7   7 12889.8 296.648   2
   5   7   7 11708.0 367.526   2
   5   7   7 12309.8 374.481   1
   5  -7   8 112.130 42.0337   2
  -5   7  -8 100.634 40.0847   2
  -5  -7  -8 148.160 67.3872   2
  -5   7  -9-37.6061 39.9822   2
  -5  -7  -9 28.8782 44.9439   2
  -5   7 -10 16979.8 398.645   2
  -5  -7 -10 17524.8 503.301   2
  -5   7 -11 3607.86 199.615   2
  -5  -7 -11 3768.66 248.576   2
  -5   7 -12 154.773 57.2231   2
  -5  -7 -12 134.916 71.5762   2
  -5   7 -13 11586.0 384.765   2
  -5  -7 -13 12346.0 479.776   2
  -5   7 -14 1816.87 160.275   2
  -5  -7 -14 2021.79 202.358   2
  -5  -7 -15 237.163 105.349   2
  -5   7 -15 199.320 70.7483   2
  -5   7 -16 516.051 101.866   2
   5   9 -20 340.619 101.571   2
   5   9 -19 1509.89 160.842   2
   5   9 -18 323.696 75.1599   2
   5  -9 -18 410.745 104.129   2
   5  -9 -18 342.131 111.577   1
   5  -9 -17 1558.78 176.229   1
   5  -9 -17 1738.92 195.081   2
   5   9 -17 1283.71 139.913   2
   5   9 -16 939.877 119.006   2
   5  -9 -16 1122.36 150.251   1
   5  -9 -16 1215.10 156.339   2
   5   9 -15 4026.18 218.764   2
   5  -9 -15 4974.66 296.964   2
   5  -9 -15 4783.30 285.273   1
  -5  -9  14 2323.83 115.178   1
   5  -9 -14 2530.34 202.320   1
   5   9 -14 2502.49 167.060   2
   5  -9 -14 2593.37 212.425   2
  -5  -9  13 350.469 44.4136   1
   5  -9 -13 499.900 96.2048   2
   5  -9 -13 745.561 120.469   1
   5   9 -13 549.447 76.3080   2
   5  -9 -12 14.4562 47.7516   2
   5  -9 -12-72.0770 60.8265   1
   5   9 -12 103.240 45.3269   2
  -5  -9  12 21.9435 20.5929   1
   5   9 -11 11929.8 322.189   2
   5  -9 -11 11020.0 379.439   1
   5  -9 -11 11785.4 373.738   2
   5   9 -10 10887.6 296.931   2
   5  -9 -10 11829.8 365.506   2
   5  -9 -10 11439.8 372.560   1
   5  -9  -9 6062.92 267.282   1
   5   9  -9 6449.22 217.378   2
   5  -9  -9 6015.64 246.840   2
   5  -9  -8 559.856 80.9925   2
   5  -9  -8 544.700 86.4569   1
   5   9  -8 474.694 57.6413   2
   5  -9  -7 8808.01 267.359   2
  -5  -9   7 8753.76 239.415   2
   5   9  -7 8563.34 228.760   2
   5  -9  -7 8733.41 300.998   1
   5  -9  -6 1092.76 109.521   1
   5   9  -6 1205.90 84.4864   2
  -5  -9   6 1304.78 90.8976   2
  -5  -9   5 4731.80 162.645   2
   5  -9  -5 4714.61 167.714   2
   5  -9  -5 4713.14 216.001   1
   5   9  -5 4628.19 162.586   2
  -5  -9   4 2631.37 123.081   2
   5  -9  -4 2644.56 122.294   2
   5   9  -4 2657.36 123.896   2
   5   9  -3 1489.44 95.5089   2
   5  -9  -3 1359.90 84.8140   2
  -5  -9   3 1590.16 98.1500   2
   5   9  -3 1578.68 66.0540   1
   5   9  -2 21888.3 364.185   2
   5   9  -2 22878.2 282.946   1
  -5  -9   2 22111.2 358.652   2
   5  -9  -2 21737.0 282.839   2
   5   9  -1 40663.9 503.989   2
   5   9  -1 40344.7 421.499   1
   5  -9  -1 38378.2 330.708   2
  -5  -9   1 40511.0 501.780   2
   5   9   0 598.188 58.6325   1
   5   9   0 586.573 65.4368   2
   5  -9   0 632.477 38.4926   2
  -5  -9   0 659.837 69.8875   2
   5  -9   1 1661.81 58.8812   2
  -5   9  -1 1714.03 61.6178   2
   5   9   1 1834.08 116.161   2
   5   9   1 1827.75 105.130   1
  -5  -9  -1 1970.53 121.539   2
   5   9   2 9874.28 282.391   2
  -5   9  -2 8545.24 133.635   2
   5  -9   2 7804.46 128.557   2
   5   9   2 9929.11 267.610   1
  -5  -9  -2 9519.31 276.029   2
  -5  -9  -3 739.956 86.4374   2
   5   9   3 647.063 75.2621   1
  -5   9  -3 527.100 36.1459   2
   5  -9   3 511.023 37.5574   2
   5   9   3 703.794 82.9167   2
   5  -9   4 63.8697 20.0772   2
   5   9   4 116.701 47.6776   1
  -5  -9  -4 198.334 63.5147   2
   5   9   4 108.456 49.9244   2
  -5   9  -4 60.0364 19.7246   2
  -5  -9  -5 18991.3 445.971   2
   5   9   5 18893.4 440.901   2
   5   9   5 18249.2 429.838   1
  -5   9  -5 18334.7 258.189   2
   5  -9   5 18400.3 271.490   2
  -5   9  -6 52.8786 22.7801   2
   5   9   6-12.5412 44.0474   1
  -5  -9  -6 8.74983 43.6079   2
   5   9   6 31.5343 40.0533   2
  -5  -9  -7 18597.2 482.132   2
  -5   9  -7 18080.3 309.461   2
  -5   9  -8 4282.95 165.159   2
  -5  -9  -8 4212.98 235.980   2
  -5   9  -9 911.567 86.5614   2
  -5  -9  -9 966.030 123.460   2
  -5   9 -10 4271.54 191.078   2
  -5  -9 -10 4669.04 273.468   2
  -5   9 -11 7515.16 266.805   2
  -5  -9 -11 7941.30 369.608   2
  -5   9 -12 1094.56 109.686   2
  -5  -9 -12 1392.66 170.031   2
  -5   9 -13 2773.53 179.917   2
  -5  -9 -13 3206.73 253.285   2
  -5   9 -14 1272.99 127.671   2
  -5  -9 -14 1451.20 180.976   2
   5  11 -18 29.0891 51.8614   2
   5 -11 -17 1935.23 200.032   1
   5 -11 -17 2263.46 225.190   2
   5  11 -17 1457.86 138.193   2
   5 -11 -16 3695.54 272.225   1
   5  11 -16 3071.90 196.600   2
   5 -11 -16 4225.86 289.716   2
   5  11 -15 9.63303 44.5172   2
   5 -11 -15 42.2744 55.6480   1
   5 -11 -14 1436.76 157.797   2
   5  11 -14 1124.69 107.839   2
   5 -11 -14 1186.57 151.096   1
   5  11 -13 4164.23 205.037   2
   5 -11 -13 4423.81 266.643   1
   5 -11 -13 4677.51 268.357   2
   5  11 -12 3630.68 184.263   2
   5 -11 -12 3341.97 225.946   1
   5 -11 -12 3607.52 230.763   2
   5 -11 -11 138.513 63.1806   2
   5 -11 -11 209.786 75.1504   1
   5  11 -11 225.823 50.7770   2
   5  11 -10 3073.41 156.294   2
   5 -11 -10 3250.54 197.568   2
   5 -11 -10 3039.87 207.091   1
   5 -11  -9 36.7120 47.8668   1
   5 -11  -9 105.376 50.8880   2
   5  11  -9-3.10919 26.5775   2
   5 -11  -8 163.122 52.3012   2
   5 -11  -8 96.7780 50.9903   1
   5  11  -8 172.117 41.6258   2
   5 -11  -7 61.3506 58.5117   1
   5 -11  -7 52.6264 36.5594   2
  -5 -11   7 63.1814 33.5115   2
   5  11  -7 96.6928 37.4688   2
   5 -11  -6 153.854 45.5106   2
  -5 -11   6 188.393 42.4798   2
   5 -11  -6 97.9867 53.5610   1
   5  11  -6 125.866 30.1842   2
   5 -11  -5 16349.0 320.338   2
   5  11  -5 16652.5 318.019   2
   5 -11  -5 17190.9 447.005   1
  -5 -11   5 16498.4 313.444   2
   5 -11  -5 16277.4 325.501   2
  -5 -11   4 12600.5 272.424   2
   5 -11  -4 11967.3 262.363   2
   5 -11  -4 11386.7 255.086   2
   5  11  -4 12475.7 274.541   2
   5 -11  -4 12283.7 370.584   1
   5  11  -3 6418.71 202.661   2
   5 -11  -3 6626.25 182.424   2
  -5 -11   3 6623.47 203.850   2
   5 -11  -3 5976.60 167.354   2
   5  11  -2 23128.2 385.499   2
   5  11  -2 23018.8 324.234   1
   5 -11  -2 23064.1 292.376   2
  -5 -11   2 24439.2 394.664   2
   5 -11  -2 22186.6 290.222   2
   5  11  -1 15844.1 334.554   2
   5 -11  -1 14308.6 194.217   2
   5  11  -1 18190.8 314.157   1
  -5 -11   1 15964.6 334.602   2
   5 -11  -1 13835.6 198.096   2
   5  11   0 983.554 90.3202   2
   5  11   0 975.600 80.6775   1
  -5 -11   0 1061.47 91.8065   2
   5 -11   0 635.596 34.2815   2
   5 -11   0 621.684 34.1330   2
   5  11   1 6491.43 218.286   1
   5  11   1 6022.46 224.655   2
  -5 -11  -1 5798.34 222.885   2
   5  11   2 24118.4 446.608   1
   5  11   2 24049.8 460.561   2
  -5 -11  -2 24561.1 463.648   2
   5  11   3 1498.11 124.166   2
   5  11   3 1366.00 110.115   1
  -5 -11  -3 1468.83 123.074   2
  -5 -11  -4 21608.0 480.831   2
   5  11   4 21376.5 473.597   2
   5  11   4 20715.5 447.285   1
  -5 -11  -5 2747.63 184.368   2
  -5  11  -5 2203.54 68.1252   2
   5  11   5 2799.09 184.031   2
   5  11   5 3065.67 184.981   1
  -5 -11  -6 298.466 82.8145   2
  -5  11  -6 236.239 29.6490   2
  -5 -11  -7 4104.85 236.506   2
  -5  11  -7 3918.06 123.784   2
  -5  11  -8 105.255 34.4070   2
  -5 -11  -8 106.047 71.3869   2
  -5  11  -9 3.54897 28.8123   2
  -5 -11  -9-15.4037 48.5545   2
  -5 -11 -10 3643.85 246.030   2
  -5  11 -10 3468.64 152.596   2
  -5 -11 -11 2213.17 199.506   2
  -5  11 -11 1995.45 126.069   2
  -5 -11 -12-8.66827 58.4333   2
  -5 -11 -13 2414.36 228.277   2
   5 -13 -17 1419.16 186.322   2
   5 -13 -16 1166.92 170.372   1
   5 -13 -16 1003.83 152.106   2
   5 -13 -15 1762.19 196.391   1
   5 -13 -15 2141.69 205.601   2
   5  13 -15 1646.42 138.280   2
   5  13 -14 50.5428 49.2309   2
   5 -13 -14 37.8933 64.0530   2
   5 -13 -14 84.2956 78.0056   1
   5 -13 -13 4399.16 282.870   1
   5 -13 -13 4809.67 281.125   2
   5 -13 -12 183.666 71.2233   1
   5  13 -12 33.1001 33.6220   2
   5 -13 -12 60.2795 55.1284   2
   5 -13 -11 2455.57 185.165   2
   5  13 -11 2555.36 143.671   2
   5 -13 -11 2267.21 198.037   1
   5 -13 -10 3359.23 228.951   1
   5  13 -10 3238.62 157.383   2
   5 -13 -10 3355.96 207.640   2
   5  13  -9 109.935 35.6744   2
   5 -13  -9 98.3131 59.7620   1
   5 -13  -9 87.8725 48.6719   2
   5 -13  -8 41.7105 51.9119   1
   5  13  -8 115.559 32.0427   2
   5 -13  -8 198.419 59.5765   2
   5 -13  -7 3785.14 232.160   1
  -5 -13   7 3870.43 165.008   2
   5 -13  -7 3682.78 186.050   2
   5  13  -7 3798.65 157.614   2
   5 -13  -6 293.136 57.9986   2
   5  13  -6 308.313 48.1454   2
  -5 -13   6 253.479 47.9459   2
   5 -13  -6 276.012 70.4284   1
  -5 -13   5 5445.39 184.313   2
   5 -13  -5 5464.79 191.666   2
   5 -13  -5 5275.04 193.278   2
   5 -13  -5 4516.82 240.254   1
   5  13  -5 5341.69 183.872   2
   5  13  -4 4844.48 180.824   2
   5 -13  -4 4625.31 171.656   2
  -5 -13   4 4815.82 177.469   2
   5 -13  -4 6285.67 286.100   1
   5 -13  -4 4647.15 171.120   2
   5  13  -3 145.850 41.4096   2
   5 -13  -3 83.7244 28.9804   2
   5 -13  -3 55.5487 24.9640   2
  -5 -13   3 155.100 44.0713   2
   5 -13  -3 118.358 59.0223   1
   5  13  -2 336.810 50.5312   2
   5 -13  -2 339.156 38.6240   2
  -5 -13   2 364.590 55.5125   2
   5 -13  -2 374.084 41.8722   2
   5  13  -1 7928.35 249.454   2
   5 -13  -1 6167.35 116.795   2
  -5 -13   1 8549.95 258.957   2
   5  13  -1 8025.89 231.993   1
   5 -13  -1 5945.96 120.215   2
   5  13   0 4145.19 175.851   1
   5  13   0 4035.46 187.703   2
  -5 -13   0 3980.54 183.081   2
   5  13   1 13278.1 330.332   1
  -5 -13  -1 14842.5 365.504   2
   5  13   1 14367.2 360.657   2
   5  13   2 14651.8 380.091   2
   5  13   2 15605.5 381.354   1
  -5 -13  -2 14870.6 383.701   2
   5  13   3 1002.68 106.233   2
   5  13   3 916.587 99.1564   1
  -5 -13  -3 1055.06 109.939   2
  -5 -13  -4 2505.46 174.773   2
   5  13   4 2772.19 179.639   1
   5  13   4 2403.15 172.453   2
  -5 -13  -5 20210.5 507.776   2
  -5 -13  -6 115.868 60.0717   2
  -5 -13  -7 2079.85 174.391   2
  -5 -13  -8 470.784 96.0723   2
  -5  13  -8 315.708 29.8502   2
  -5 -13  -9 211.005 75.9163   2
  -5 -13 -10 5264.11 313.316   2
  -5 -13 -11 1334.99 166.922   2
  -5 -13 -12 433.555 114.390   2
  -5 -13 -13 4576.12 313.503   2
   5 -15 -16 1728.30 196.450   2
   5 -15 -15-45.8199 77.4496   2
   5 -15 -15-67.4412 68.7890   1
   5 -15 -14 1475.24 168.609   2
   5 -15 -14 1489.87 177.530   1
   5 -15 -13 2486.44 223.032   1
   5 -15 -13 2731.03 215.206   2
   5 -15 -12 2874.96 238.486   1
   5 -15 -12 2787.98 215.329   2
   5 -15 -11 1111.28 143.592   1
   5 -15 -11 1135.56 130.907   2
   5 -15 -10 4983.41 298.260   1
   5 -15 -10 5233.06 266.545   2
   5 -15  -9 259.685 67.7477   2
   5 -15  -9 101.886 60.1819   1
   5  15  -9 184.157 37.8621   2
   5 -15  -8 3058.54 184.474   2
   5 -15  -8 2849.18 218.578   1
   5  15  -8 2853.41 133.946   2
   5  15  -7 67.7168 32.8962   2
  -5 -15   7 25.0921 33.0611   2
   5 -15  -7 53.3979 39.6946   2
   5 -15  -7 105.657 64.0619   1
  -5 -15   6 2703.20 136.813   2
   5  15  -6 2659.29 131.719   2
   5 -15  -6 2640.41 197.080   1
   5 -15  -6 2555.75 152.587   2
   5  15  -5 2507.18 128.478   2
  -5 -15   5 2645.36 133.843   2
   5 -15  -5 2716.11 142.694   2
   5 -15  -5 2720.21 147.308   2
   5 -15  -5 2642.30 195.626   1
   5 -15  -4 24758.8 579.808   1
   5 -15  -4 25873.3 407.006   2
   5  15  -4 24712.5 411.789   2
  -5 -15   4 26169.0 419.467   2
   5 -15  -4 25234.6 401.835   2
   5 -15  -3 152.838 32.9081   2
   5  15  -3 150.359 46.2464   2
   5 -15  -3 156.182 39.9066   2
  -5 -15   3 148.718 41.3904   2
   5 -15  -3 178.594 67.8253   1
   5 -15  -2 5850.35 281.962   1
  -5 -15   2 7263.05 234.998   2
   5 -15  -2 6313.74 148.051   2
   5  15  -2 6674.48 228.529   2
   5 -15  -2 6636.22 150.829   2
   5  15  -1 6373.04 232.750   2
  -5 -15   1 6626.83 239.133   2
   5  15   0 1026.16 98.6470   2
  -5 -15   0 1125.30 106.230   2
   5  15   1 45.0466 37.4429   1
   5  15   1 126.101 47.3833   2
  -5 -15  -1 129.896 44.7313   2
   5  15   2 11950.5 360.876   1
   5  15   2 12158.1 364.082   2
  -5 -15  -2 12594.5 370.474   2
  -5 -15  -3 616.270 95.3359   2
   5  15   3 529.005 90.8093   1
   5  15   3 526.913 85.0652   2
  -5 -15  -4 1384.37 131.971   2
  -5 -15  -5 1534.23 151.480   2
  -5 -15  -6 1311.41 145.571   2
  -5 -15  -7 1301.51 149.929   2
  -5 -15  -8 7071.51 347.437   2
  -5 -15  -9-83.0120 72.2579   2
  -5 -15 -10 4855.11 307.270   2
  -5 -15 -11 1154.74 164.092   2
  -5 -15 -12 301.883 98.5173   2
   5 -17 -15-33.2921 65.0790   2
   5 -17 -14 273.617 91.9709   2
   5 -17 -13 5770.70 327.763   2
   5 -17 -13 5361.97 342.725   1
   5 -17 -12 22.6012 68.7410   1
   5 -17 -12 123.753 73.7966   2
   5 -17 -11 3075.95 218.843   2
   5 -17 -11 2898.66 242.310   1
   5 -17 -10 1420.80 179.057   1
   5 -17 -10 1407.26 150.294   2
   5 -17  -9 292.463 85.2919   1
   5 -17  -9 332.605 82.3301   2
   5 -17  -8 1128.73 119.329   2
   5 -17  -8 1203.93 155.699   1
   5 -17  -7 13317.1 479.618   1
   5 -17  -7 14346.6 391.326   2
  -5 -17   6 445.540 62.1048   2
   5 -17  -6 574.677 83.8196   2
   5 -17  -6 395.458 97.0265   1
   5 -17  -6 366.808 67.4808   2
   5  17  -5 1513.89 99.4100   2
  -5 -17   5 1772.57 111.043   2
   5 -17  -5 1543.04 157.251   1
   5 -17  -5 2052.59 130.870   2
   5 -17  -5 2103.61 130.102   2
   5  17  -4 127.671 41.3871   2
   5 -17  -4 59.5602 49.2148   1
   5 -17  -4 83.0769 40.2677   2
  -5 -17   4 20.8150 29.6693   2
   5 -17  -4 6.35763 31.1907   2
   5 -17  -3 527.076 55.9420   2
   5 -17  -3 502.497 53.7852   2
   5  17  -3 411.774 59.3418   2
  -5 -17   3 499.145 67.6296   2
   5 -17  -3 469.202 102.008   1
  -5 -17   2 1255.60 107.590   2
   5 -17  -2 827.078 47.2562   2
   5  17  -2 1044.38 96.8499   2
   5 -17  -2 1502.22 153.830   1
   5 -17  -2 934.421 51.3789   2
   5  17  -1 3640.32 181.117   2
  -5 -17   1 4043.49 190.463   2
   5 -17  -1 2931.88 209.439   1
   5  17   0-25.4091 36.4532   2
  -5 -17   0 94.1499 51.2524   2
   5  17   1 2810.47 175.057   2
  -5 -17  -1 3193.88 185.465   2
   5  17   2 1990.16 157.540   2
  -5 -17  -2 2310.06 170.882   2
  -5 -17  -3 386.101 88.4542   2
  -5 -17  -4 515.557 95.0191   2
  -5 -17  -5 1528.74 155.867   2
  -5 -17  -6-24.7029 50.9655   2
  -5 -17  -7 4708.12 284.201   2
  -5 -17  -8 679.521 124.638   2
  -5 -17  -9 160.004 78.6840   2
  -5 -17 -10 761.790 141.023   2
  -5 -17 -11 464.199 123.116   2
   5 -19 -14 184.183 83.9466   2
   5 -19 -13 356.387 100.249   2
   5 -19 -12 239.451 95.4679   2
   5 -19 -11 304.614 98.0767   1
   5 -19 -11 438.284 107.591   2
   5 -19 -10 5194.09 285.972   2
   5 -19 -10 4809.16 322.419   1
   5 -19  -9 1321.36 168.719   1
   5 -19  -9 1494.69 148.488   2
   5 -19  -8 1225.90 164.274   1
   5 -19  -8 1525.78 145.081   2
   5 -19  -7 40.4687 48.5139   2
   5 -19  -7 229.997 91.7347   1
   5 -19  -6 289.197 86.4566   1
   5 -19  -6 291.528 61.5079   2
   5 -19  -5 1582.34 115.676   2
   5 -19  -5 1628.84 169.022   1
  -5 -19   4 15069.6 332.372   2
   5 -19  -4 13922.2 486.440   1
  -5 -19   3 70.4420 39.2517   2
   5 -19  -3 208.558 80.7899   1
  -5 -19   2 7301.58 250.974   2
   5 -19  -2 5857.37 309.904   1
   5 -19  -1 1468.26 159.787   1
  -5 -19   1 1455.31 119.956   2
   5 -19   0 543.009 104.427   1
  -5 -19   0 724.031 91.4800   2
   5 -19   1 24.1692 51.6746   1
  -5 -19  -1-34.8743 52.5275   2
  -5 -19  -2 4735.50 245.563   2
  -5 -19  -3 1105.48 128.814   2
  -5 -19  -4 10008.9 391.940   2
  -5 -19  -5 74.0787 66.6131   2
  -5 -19  -6 172.214 64.8282   2
  -5 -19  -7 878.565 135.874   2
  -5 -19  -8 2573.86 228.744   2
  -5 -19  -9 257.542 99.4395   2
  -5 -19 -10 2905.97 266.181   2
   5 -21  -9-0.46256 77.0726   1
   5 -21  -8 680.470 130.466   1
   5 -21  -7 3534.14 271.816   1
   5 -21  -6 108.478 81.6225   1
   5 -21  -5 1578.97 187.643   1
   5 -21  -4 293.371 97.2410   1
   5 -21  -3 165.828 77.3924   1
   5 -21  -2 863.790 136.505   1
   5 -21  -1 3660.64 253.062   1
   5 -21   0-37.7373 64.2150   1
   5 -21   1 4664.15 281.331   1
  -5 -21  -2 1308.77 137.628   2
   5 -21   2 984.566 134.483   1
   5 -21   3 106.561 57.8814   1
  -5 -21  -3 186.051 68.8936   2
  -5 -21  -4 110.015 62.1617   2
  -5 -21  -5 4694.72 285.592   2
  -5 -21  -6 35.4123 61.7361   2
  -5 -21  -7 3860.57 280.596   2
  -5 -21  -8-50.9915 69.7854   2
   5 -23  -7 30.5387 69.2709   1
   5 -23  -6 56.6523 65.8340   1
   5 -23  -5 31.7682 70.8513   1
   5 -23  -4 2913.66 248.324   1
   5 -23  -3 192.578 81.4388   1
   5 -23  -2 4359.45 285.709   1
   5 -23  -1 70.9035 63.1565   1
   5 -23   0 133.396 80.5394   1
   6   0 -20 2907.58 251.370   2
   6   0 -19-98.4305 77.1709   2
   6   0 -18 9391.06 413.348   2
   6   0 -17 31.2355 58.0838   2
   6   0 -16 333.990 89.7280   2
  -6   0  15 171.484 63.9178   1
   6   0 -15 62.2595 61.8805   2
   6   0 -15-6.91758 44.6143   1
   6   0 -14 25705.4 531.936   1
  -6   0  14 23673.2 526.225   1
   6   0 -13-18.9770 39.3056   1
  -6   0  13 21.9174 40.6137   1
  -6   0  12 18999.9 424.467   1
   6   0 -12 20742.2 476.775   2
   6   0 -12 21292.4 439.087   1
   6   0 -11 27.8607 38.4365   1
   6   0 -11-3.06074 41.4457   2
   6   0 -10 13971.6 350.248   2
   6   0 -10 12747.1 304.963   1
   6   0  -9-4.01147 34.0946   2
   6   0  -9-6.96074 33.5894   1
   6   0  -8 2841.39 143.190   2
   6   0  -8 2569.69 126.591   1
   6   0  -7 1.54458 32.7412   1
   6   0  -7 37.2744 32.2818   2
  -6   0   6 3429.04 149.689   2
   6   0  -6 3353.98 142.929   2
  -6   0   5-13.0854 37.7503   2
   6   0  -5-45.3713 33.7479   2
  -6   0   4 116810. 759.953   2
   6   0  -4 116717. 773.028   2
  -6   0   3 39.2641 33.2440   2
   6   0  -3-1.83971 25.4068   2
  -6   0   2 6192.64 170.996   2
   6   0  -2 6237.45 171.846   2
  -6   0   1-1.10939 31.4390   2
   6   0  -1-5.39462 26.6873   2
   6   0   0 28132.0 377.175   2
  -6   0   0 27504.5 377.456   2
   6   0   1-10.5708 29.6608   2
  -6   0  -1 12.0158 32.5371   2
  -6   0  -2 10521.4 250.975   2
   6   0   2 10711.5 248.854   2
  -6   0  -3 46.1224 41.8908   2
   6   0   3 46.3341 38.4097   2
  -6   0  -4 14844.9 330.367   2
   6   0   4 15012.3 326.642   2
  -6   0  -5 2.02306 33.2369   2
   6   0   5-53.6734 40.6014   2
  -6   0  -6 35529.0 562.063   2
   6   0   6 36092.4 560.814   2
  -6   0  -7 56.1852 46.6292   2
   6   0   7 27.4061 35.6838   2
  -6   0  -8 2653.49 172.826   2
   6   0   8 2395.67 160.947   2
  -6   0  -9 85.8069 63.5686   2
  -6   0 -10 10085.4 365.374   2
  -6   0 -11-98.8044 64.6981   2
  -6   0 -12 22520.8 598.423   2
  -6   0 -13-82.2737 74.1729   2
  -6   0 -14 3296.99 248.816   2
  -6   0 -15 10.1092 64.2514   2
  -6   0 -16 28.0185 68.9317   2
   6  -2 -20-100.217 90.1862   2
   6   2 -20 0.10615 72.1182   2
   6  -2 -19 355.191 102.603   2
   6   2 -19 369.888 94.6630   2
   6  -2 -18 292.951 86.9130   2
   6   2 -18 243.893 83.5374   2
   6  -2 -17 7863.84 378.889   2
   6   2 -17 6996.98 348.083   2
   6  -2 -16 340.774 97.6723   2
   6   2 -16 188.326 75.6498   2
   6  -2 -16 168.518 60.8814   1
  -6  -2  16 243.176 66.2443   1
   6  -2 -15 14286.7 476.021   2
   6  -2 -15 14405.0 435.188   1
  -6  -2  15 13227.0 390.581   1
  -6   2  14 1018.85 119.079   1
  -6  -2  14 1047.19 107.650   1
   6  -2 -14 968.915 115.824   1
   6   2 -13 289.771 56.8839   1
  -6  -2  13 174.786 51.5929   1
  -6   2  13 183.582 54.8500   1
   6  -2 -13 231.556 66.0982   1
   6   2 -12 2068.32 154.806   2
   6  -2 -12 2089.05 149.156   1
   6   2 -12 2205.51 134.407   1
  -6  -2  12 2076.66 131.189   1
   6   2 -11 18923.4 429.258   2
   6   2 -11 18818.0 360.435   1
   6  -2 -11 18367.7 433.096   2
   6  -2 -11 17871.6 405.940   1
   6  -2 -10 721.508 85.1157   2
   6   2 -10 704.758 82.5291   2
   6   2 -10 716.756 69.8279   1
   6  -2 -10 668.017 80.6703   1
   6  -2  -9 12529.0 308.324   1
   6   2  -9 13022.0 320.263   2
   6  -2  -9 13273.3 334.360   2
   6   2  -9 13143.6 268.332   1
   6   2  -8 432.204 50.4430   1
   6  -2  -8 392.810 58.8946   2
   6   2  -8 417.138 58.3823   2
   6  -2  -8 474.829 64.6197   1
  -6  -2   7 10162.9 259.697   2
   6  -2  -7 9968.07 261.393   2
   6   2  -7 10268.2 254.853   2
   6  -2  -7 10103.7 265.649   1
   6   2  -7 9883.89 208.915   1
  -6  -2   6 1341.73 94.9618   2
   6  -2  -6 1366.90 94.9334   2
   6   2  -6 1432.11 93.0860   2
  -6   2   5 3007.53 133.965   2
   6  -2  -5 3229.41 134.285   2
  -6  -2   5 3181.46 134.824   2
   6   2  -5 3160.16 134.903   2
   6  -2  -4 8071.47 199.466   2
  -6   2   4 7832.31 197.457   2
  -6  -2   4 7734.89 201.245   2
   6   2  -4 7861.16 204.215   2
  -6  -2   3 91230.0 667.369   2
  -6   2   3 92929.0 649.342   2
   6  -2  -3 94215.3 664.007   2
   6   2  -3 90819.4 680.418   2
  -6   2   2 4052.88 136.412   2
  -6  -2   2 4093.22 144.868   2
   6  -2  -2 4199.04 134.114   2
   6   2  -2 4110.95 145.076   2
  -6   2   1 9272.83 198.814   2
  -6  -2   1 8393.04 210.672   2
   6  -2  -1 8590.59 197.348   2
   6   2  -1 8957.85 214.765   2
   6  -2   0 9.55339 25.1389   2
   6   2   0 3.32693 26.3280   2
  -6   2   0 28.7376 27.3196   2
  -6  -2   0-6.07146 33.5718   2
   6  -2   1 26819.9 365.085   2
  -6   2  -1 26450.3 358.327   2
   6   2   1 27184.6 404.072   2
  -6  -2  -1 25927.9 392.306   2
   6  -2   2 1599.28 95.6602   2
   6   2   2 1581.79 105.577   2
  -6   2  -2 1627.13 97.0911   2
  -6  -2  -2 1521.73 105.299   2
  -6  -2  -3 57874.6 637.974   2
   6  -2   3 58225.3 576.962   2
  -6   2  -3 57944.8 579.581   2
  -6   2  -4 51.0529 39.3902   2
  -6  -2  -4-27.1825 40.0403   2
   6   2   4 89.3646 39.7711   2
   6  -2   4 95.1675 33.6649   2
  -6   2  -5 8030.29 246.905   2
  -6  -2  -5 8058.00 265.007   2
   6   2   5 7842.66 255.743   2
   6  -2   5 7883.32 240.098   2
   6   2   6 784.795 89.7490   2
  -6   2  -6 735.432 86.3308   2
  -6  -2  -6 792.672 96.7606   2
   6  -2   6 769.015 83.9004   2
  -6   2  -7 8745.80 284.497   2
  -6  -2  -7 8668.25 302.352   2
   6  -2   7 8926.51 286.155   2
   6   2   7 9022.96 301.206   2
  -6   2  -8 3228.62 190.611   2
  -6  -2  -8 3422.91 201.984   2
   6   2   8 3207.47 190.823   2
   6  -2   8 3227.39 182.960   2
  -6   2  -9 39021.7 662.919   2
  -6  -2  -9 39297.7 703.377   2
   6  -2   9 39878.6 673.267   2
  -6   2 -10 5039.72 258.016   2
  -6  -2 -10 5304.83 271.158   2
  -6   2 -11 721.063 115.947   2
  -6  -2 -11 723.668 120.467   2
  -6   2 -12 29.0968 60.5906   2
  -6  -2 -12 5.48640 53.0133   2
  -6   2 -13 3157.40 229.818   2
  -6  -2 -13 3290.07 244.483   2
  -6   2 -14 307.045 90.8276   2
  -6  -2 -14 495.102 116.953   2
  -6   2 -15 5328.75 321.788   2
  -6  -2 -15 5557.04 341.160   2
  -6   2 -16 78.3225 74.2397   2
  -6  -2 -16 86.3361 85.5614   2
  -6   2 -17 2047.18 219.084   2
   6   4 -21-2.26432 62.6683   2
   6   4 -20 1178.68 161.635   2
   6   4 -19 431.243 103.290   2
   6  -4 -19 467.854 127.856   2
   6  -4 -18 4958.30 317.784   2
   6   4 -18 4220.23 269.265   2
   6  -4 -17 1342.77 164.232   2
   6   4 -17 1112.76 138.995   2
   6  -4 -17 1336.85 154.495   1
  -6  -4  16 185.438 61.8024   1
   6  -4 -16 268.278 87.8164   2
   6   4 -16 170.609 68.8212   2
   6  -4 -16 162.736 72.2064   1
   6  -4 -15 482.097 110.053   2
   6  -4 -15 530.381 98.2393   1
  -6  -4  15 611.156 83.0720   1
   6  -4 -14 10284.9 396.325   2
  -6  -4  14 9734.34 296.488   1
   6  -4 -14 9688.05 356.054   1
   6  -4 -13 416.831 83.8152   1
   6   4 -13 405.714 77.9821   2
  -6  -4  13 359.162 58.1234   1
   6   4 -12 19529.5 448.723   2
   6  -4 -12 18628.3 451.177   1
   6   4 -11 1127.23 82.1487   1
   6   4 -11 1066.45 102.872   2
   6  -4 -11 908.672 101.599   1
   6  -4 -10 3670.25 189.775   1
   6   4 -10 3926.46 139.332   1
   6   4 -10 4141.53 188.256   2
   6  -4  -9 194.161 52.8189   2
   6   4  -9 460.752 52.8067   1
   6   4  -9 481.925 73.2573   2
   6  -4  -9 316.732 63.7011   1
   6  -4  -8 17652.0 370.842   2
   6   4  -8 18282.1 361.744   2
   6   4  -8 18798.9 257.333   1
   6  -4  -8 18280.3 389.112   1
   6   4  -7 13317.6 198.531   1
  -6  -4   7 12718.1 295.479   2
   6  -4  -7 13188.3 303.086   2
   6  -4  -7 13781.8 333.348   1
   6   4  -7 12710.5 288.459   2
   6   4  -6 100930. 534.415   1
  -6  -4   6 101373. 778.692   2
   6   4  -6 102722. 781.010   2
   6   4  -5 433.076 53.0010   2
   6  -4  -5 465.896 58.9846   2
  -6  -4   5 411.393 53.7518   2
  -6   4   4 1215.60 82.0064   2
   6  -4  -4 1298.16 85.0345   2
  -6  -4   4 1137.05 81.3796   2
   6   4  -4 1217.21 85.1872   2
  -6   4   3 5140.73 155.925   2
  -6  -4   3 4748.62 162.055   2
   6   4  -3 5037.55 166.975   2
   6  -4  -3 5138.56 155.146   2
  -6   4   2 1975.39 94.8028   2
   6  -4  -2 1935.48 92.6428   2
  -6  -4   2 1888.40 105.977   2
   6   4  -2 1876.94 105.637   2
   6   4  -1 558.222 61.8809   2
  -6   4   1 554.586 50.5150   2
   6  -4  -1 571.721 51.6223   2
  -6  -4   1 481.557 58.8028   2
   6   4   0 6769.04 204.917   2
  -6   4   0 7038.39 168.274   2
  -6  -4   0 6738.34 202.416   2
   6  -4   0 6681.90 166.003   2
   6  -4   1 2997.56 116.474   2
   6   4   1 3034.25 141.553   2
  -6   4  -1 3214.22 118.372   2
  -6  -4  -1 3078.13 142.587   2
   6  -4   2 993.585 71.5853   2
   6   4   2 986.081 85.3389   2
  -6   4  -2 1025.23 72.7982   2
  -6  -4  -2 972.748 89.4853   2
  -6  -4  -3 960.687 94.2480   2
   6  -4   3 919.305 72.4558   2
   6   4   3 1022.42 92.1392   2
  -6   4  -3 980.916 75.6191   2
  -6  -4  -4 9837.43 291.299   2
   6  -4   4 9763.47 242.123   2
   6   4   4 10372.2 292.420   2
  -6   4  -4 9901.65 243.274   2
  -6  -4  -5 2617.21 160.905   2
   6   4   5 2580.24 158.547   2
   6  -4   5 2630.06 136.180   2
  -6   4  -5 2511.13 133.009   2
  -6   4  -6 31508.1 492.066   2
  -6  -4  -6 30208.2 560.067   2
   6   4   6 31532.5 556.665   2
   6  -4   6 32297.8 496.397   2
  -6  -4  -7 463.081 79.3353   2
  -6   4  -7 479.006 68.9049   2
   6   4   7 453.968 79.1212   1
   6   4   7 500.853 82.8989   2
   6  -4   7 588.024 76.4649   2
  -6   4  -8 2782.42 165.531   2
  -6  -4  -8 2713.06 186.433   2
   6  -4   8 2838.90 170.742   2
   6  -4   9 608.682 87.4352   2
  -6   4  -9 569.151 89.6557   2
  -6  -4  -9 582.689 102.364   2
  -6   4 -10 3025.30 191.094   2
  -6  -4 -10 3450.56 226.212   2
   6  -4  10 3197.61 199.689   2
  -6   4 -11 535.027 90.7101   2
  -6  -4 -11 662.843 107.863   2
  -6   4 -12 24087.9 581.063   2
  -6  -4 -12 25310.1 660.043   2
  -6   4 -13 1067.52 132.756   2
  -6  -4 -13 999.373 139.370   2
  -6   4 -14 1865.47 179.942   2
  -6  -4 -14 1915.59 197.457   2
  -6   4 -15 201.519 80.4676   2
  -6  -4 -15-5.02768 72.2998   2
  -6   4 -16 792.259 128.100   2
  -6   4 -17 169.160 76.4677   2
   6   6 -21 1221.32 166.640   2
   6   6 -20 69.3745 56.7920   2
   6   6 -19 580.797 118.214   2
   6  -6 -19 647.705 125.091   2
   6  -6 -18 23.8949 60.7667   2
   6   6 -18 39.5219 60.3100   2
   6  -6 -18 18.8043 63.1205   1
   6  -6 -17 791.291 131.944   2
   6   6 -17 701.708 112.673   2
   6  -6 -17 751.805 125.724   1
   6  -6 -16 72.2680 73.0922   2
   6   6 -16 50.9533 52.4136   2
   6  -6 -16-21.0848 57.0215   1
  -6  -6  16-75.6156 46.0529   1
   6  -6 -15 18720.6 531.099   1
  -6  -6  15 17190.6 383.134   1
   6  -6 -15 20131.4 576.698   2
   6  -6 -14 443.859 89.6135   1
   6  -6 -14 569.570 102.733   2
  -6  -6  14 372.281 59.0169   1
   6  -6 -13 150.214 53.1650   1
   6  -6 -13 256.577 69.3867   2
   6   6 -13 363.582 70.0069   2
   6  -6 -12 33.1122 46.4524   2
   6  -6 -12 116.848 65.1067   1
   6   6 -12 92.8626 44.9474   2
   6   6 -11 8439.33 279.511   2
   6  -6 -11 7973.90 303.731   1
   6  -6 -10 682.776 94.6374   1
   6   6 -10 776.970 81.7870   2
   6  -6  -9 18923.8 434.101   1
   6   6  -9 19378.4 385.568   2
  -6  -6   8 43.9214 34.8572   2
   6  -6  -8-50.8218 43.7514   2
   6  -6  -8-48.7427 51.5682   1
   6   6  -8 52.5321 37.1979   2
   6  -6  -7 23526.6 413.652   2
   6  -6  -7 20371.5 436.041   1
  -6  -6   7 22610.4 394.343   2
   6   6  -7 22699.6 380.108   2
   6  -6  -6 220.480 48.4982   2
  -6  -6   6 253.669 49.3335   2
   6  -6  -6 566.695 77.0835   1
   6   6  -6 510.924 83.5760   2
  -6  -6   5 88351.9 729.445   2
   6  -6  -5 88837.7 721.091   2
   6   6  -5 86826.7 710.520   2
   6  -6  -4 8.22172 25.2531   2
  -6  -6   4 63.1287 33.0414   2
   6   6  -4-11.0084 26.1308   2
   6  -6  -3 44228.3 456.457   2
   6   6  -3 43966.8 504.393   2
  -6  -6   3 43745.6 496.972   2
  -6  -6   2 3409.16 142.827   2
  -6   6   2 3551.16 123.804   2
   6  -6  -2 3449.30 121.691   2
   6   6  -2 3763.69 153.355   2
   6   6  -1 11017.1 263.068   2
  -6  -6   1 10765.4 261.094   2
  -6   6   1 11186.0 206.880   2
   6  -6  -1 11208.4 205.103   2
   6   6   0 987.863 83.1565   2
  -6   6   0 927.088 59.8952   2
  -6  -6   0 951.747 83.3792   2
   6  -6   0 891.639 60.1507   2
   6  -6   1 66762.4 512.197   2
   6   6   1 68363.1 691.324   2
  -6   6  -1 68157.2 505.644   2
  -6  -6  -1 68248.8 694.088   2
   6  -6   2 2640.59 109.862   2
   6   6   2 2657.05 144.964   2
  -6   6  -2 2727.77 107.020   2
  -6  -6  -2 2567.90 142.147   2
  -6  -6  -3 385.988 68.0651   2
   6   6   3 336.625 56.9080   1
   6  -6   3 336.491 43.1258   2
   6   6   3 396.060 64.0724   2
  -6   6  -3 361.663 44.4114   2
  -6  -6  -4 15.0589 35.5565   2
   6   6   4 75.2232 42.1273   1
   6   6   4 33.7808 36.4650   2
   6  -6   4 28.0458 24.1084   2
  -6   6  -4 56.5145 26.0048   2
  -6  -6  -5 18772.3 431.556   2
   6   6   5 18550.1 419.135   1
   6   6   5 18536.9 421.307   2
   6  -6   5 18824.9 341.429   2
  -6   6  -5 18849.7 333.702   2
  -6   6  -6 213.612 44.4149   2
  -6  -6  -6 153.354 58.5669   2
   6   6   6 228.057 66.5628   2
   6   6   6 163.916 56.9097   1
   6  -6   6 225.636 47.0943   2
   6  -6   7 469.629 67.1591   2
  -6   6  -7 429.397 62.5594   2
  -6  -6  -7 471.238 80.4251   2
   6  -6   8 59.6332 40.9510   2
  -6   6  -8 41.8916 41.2857   2
  -6  -6  -8 7.67757 43.2258   2
  -6   6  -9 13821.9 366.900   2
  -6  -6  -9 14244.1 447.067   2
   6  -6   9 14287.0 381.507   2
   6  -6  10 412.325 76.2032   2
  -6   6 -10 358.305 77.0405   2
  -6  -6 -10 418.067 94.2830   2
  -6   6 -11 8278.78 315.007   2
  -6  -6 -11 8160.02 368.145   2
  -6   6 -12 425.441 86.3932   2
  -6  -6 -12 282.565 83.7211   2
  -6   6 -13 3966.51 236.373   2
  -6  -6 -13 4497.46 294.348   2
  -6  -6 -14 551.143 111.330   2
  -6   6 -14 444.158 93.2731   2
  -6   6 -15 3330.97 233.294   2
  -6  -6 -15 3745.59 287.214   2
  -6   6 -16 164.996 76.0241   2
   6   8 -21 177.045 75.9153   2
   6   8 -20 545.134 116.537   2
   6   8 -19 245.037 76.8939   2
   6  -8 -19 364.441 113.353   1
   6  -8 -18 4481.71 309.992   1
   6  -8 -18 4902.68 327.901   2
   6   8 -18 3727.98 244.133   2
   6  -8 -17 321.072 101.821   2
   6   8 -17 286.756 80.6154   2
   6  -8 -17 141.477 60.2027   1
   6  -8 -16 910.330 139.485   2
   6   8 -16 864.847 110.934   2
   6  -8 -16 872.315 128.515   1
   6  -8 -15 236.812 82.1407   2
   6  -8 -15 222.385 79.4362   1
   6  -8 -14 1134.71 138.807   1
   6  -8 -14 1069.83 134.127   2
   6   8 -13 1650.36 136.728   2
   6  -8 -13 1530.14 153.672   1
   6  -8 -13 1646.09 158.563   2
   6  -8 -12 24980.5 577.691   1
   6   8 -12 26893.3 527.675   2
   6  -8 -12 27427.8 604.027   2
   6   8 -11 537.106 73.5259   2
   6  -8 -11 493.661 87.3532   2
   6  -8 -11 434.474 80.5224   1
   6  -8 -10 819.144 112.178   1
   6   8 -10 959.563 89.5506   2
   6  -8  -9 1329.26 128.262   1
   6   8  -9 1312.63 101.604   2
  -6  -8   8 8215.47 250.073   2
   6   8  -8 8317.00 244.928   2
   6  -8  -8 8505.63 307.120   1
   6   8  -7 1736.12 108.423   2
   6  -8  -7 1899.31 142.817   1
   6  -8  -7 1694.85 117.094   2
  -6  -8   7 1873.91 117.933   2
   6   8  -6 24789.7 397.987   2
  -6  -8   6 24558.0 397.278   2
   6  -8  -6 24587.4 409.720   2
   6  -8  -6 23392.1 488.401   1
   6  -8  -5 894.907 76.8756   2
   6   8  -5 918.639 79.2658   2
  -6  -8   5 932.277 80.3694   2
   6  -8  -4 3771.86 144.627   2
  -6  -8   4 3557.05 147.998   2
   6   8  -4 2509.41 71.1252   1
   6   8  -4 3746.81 154.072   2
   6   8  -3 108.898 36.7941   2
   6  -8  -3 153.027 34.3916   2
  -6  -8   3 134.800 39.8767   2
   6   8  -3 177.084 32.1487   1
   6  -8  -2 22915.9 309.590   2
  -6  -8   2 23869.8 393.251   2
   6   8  -2 24272.8 299.285   1
   6   8  -2 24448.0 402.925   2
  -6   8   1 168.731 31.7094   2
   6   8  -1 154.149 42.2787   2
   6   8  -1 119.961 30.2612   1
   6  -8  -1 203.202 30.3433   2
  -6  -8   1 168.604 44.4659   2
   6   8   0 26325.0 438.237   2
  -6   8   0 26212.0 297.366   2
   6   8   0 25631.4 373.652   1
  -6  -8   0 26200.7 436.908   2
   6  -8   0 25173.9 290.330   2
  -6  -8  -1 67.7026 46.3763   2
   6  -8   1 53.8743 20.1981   2
   6   8   1 80.6784 42.0538   2
  -6   8  -1 80.7627 25.1123   2
   6   8   1 56.3404 31.9676   1
  -6  -8  -2 63.0633 42.4947   2
   6  -8   2 44.0179 21.4799   2
  -6   8  -2 75.1336 28.2160   2
   6   8   2 64.7162 37.9241   2
   6   8   2 52.8262 36.0611   1
   6   8   3 4659.00 205.302   2
   6   8   3 4435.52 192.020   1
   6  -8   3 4501.16 134.685   2
  -6   8  -3 4562.24 129.972   2
  -6  -8  -3 4528.96 203.876   2
  -6  -8  -4 669.898 90.7154   2
   6  -8   4 545.966 54.4681   2
   6   8   4 655.561 87.4988   2
  -6   8  -4 590.825 53.2706   2
   6   8   4 703.562 88.2743   1
  -6  -8  -5 557.487 83.1591   2
   6  -8   5 683.065 66.4707   2
   6   8   5 539.206 80.1782   2
  -6   8  -5 659.885 61.8320   2
   6   8   5 533.653 79.6504   1
  -6  -8  -6 28228.6 578.558   2
   6   8   6 27628.8 556.264   1
   6  -8   6 28971.2 425.373   2
  -6   8  -6 27808.9 404.258   2
  -6  -8  -7 5378.05 260.053   2
   6  -8   7 5554.88 200.589   2
  -6   8  -7 5244.94 187.451   2
  -6   8  -8 41.3023 29.6805   2
   6  -8   8 74.4850 43.0616   2
  -6  -8  -8 110.971 60.6638   2
  -6   8  -9 2140.77 135.065   2
  -6  -8  -9 2233.22 190.925   2
  -6   8 -10 6798.25 257.366   2
  -6  -8 -10 7074.88 336.510   2
  -6   8 -11 275.694 63.5072   2
  -6  -8 -11 151.386 72.0605   2
  -6   8 -12 12064.9 376.056   2
  -6  -8 -12 12786.1 484.490   2
  -6   8 -13 30.8086 47.7341   2
  -6  -8 -13-75.4544 82.1338   2
  -6   8 -14 2924.70 201.531   2
  -6  -8 -14 3399.63 274.905   2
   6  10 -19-23.8219 56.6915   2
   6  10 -18 499.692 100.559   2
   6 -10 -18 694.574 140.681   2
   6 -10 -18 565.291 126.617   1
   6 -10 -17 3950.27 288.267   1
   6 -10 -17 4082.61 291.534   2
   6  10 -17 3144.30 217.058   2
   6 -10 -16 537.922 111.834   2
   6  10 -16 496.141 90.7719   2
   6 -10 -16 567.954 117.611   1
   6 -10 -15 5079.23 305.283   1
   6 -10 -15 5530.29 316.982   2
   6 -10 -14 222.932 82.8144   2
   6 -10 -14 139.993 67.8551   1
   6 -10 -13 15.4454 50.7108   2
   6 -10 -13 189.265 85.3263   1
   6  10 -13 33.5964 35.7731   2
   6 -10 -12 10.6805 45.4324   2
   6 -10 -12 42.1585 50.7658   1
   6  10 -12 50.5190 39.1818   2
   6  10 -11 3283.49 177.213   2
   6 -10 -11 3485.78 214.279   2
   6 -10 -11 3408.95 221.550   1
   6 -10 -10 208.801 74.4870   1
   6 -10 -10 152.120 54.5751   2
   6  10 -10 127.636 48.5478   2
   6 -10  -9 1153.82 123.507   1
   6  10  -9 1341.88 103.845   2
   6 -10  -9 1381.00 126.135   2
   6 -10  -8 3061.88 171.809   2
  -6 -10   8 3189.53 158.976   2
   6 -10  -8 2911.84 190.859   1
   6  10  -8 3101.37 150.899   2
   6 -10  -7 4461.94 232.657   1
  -6 -10   7 4846.61 187.466   2
   6 -10  -7 4973.25 195.028   2
   6  10  -7 4928.05 186.988   2
   6 -10  -6 163.430 45.7646   2
  -6 -10   6 74.8854 33.6209   2
   6 -10  -6 414.673 81.7236   1
   6  10  -6 140.359 42.7082   2
   6 -10  -5 1670.66 108.227   2
  -6 -10   5 1887.39 114.685   2
   6  10  -5 1947.02 116.676   2
   6  10  -4-1.43983 29.8701   2
   6 -10  -4 51.5271 30.6109   2
  -6 -10   4 66.4505 34.1765   2
   6 -10  -3 28587.7 378.699   2
   6  10  -3 31006.0 321.536   1
  -6 -10   3 30524.3 451.905   2
   6  10  -3 30075.9 456.503   2
   6  10  -2 889.224 66.6856   1
   6  10  -2 637.204 70.6834   2
   6 -10  -2 690.259 56.6799   2
  -6 -10   2 712.792 75.7733   2
   6  10  -1 8983.80 261.216   2
  -6 -10   1 9193.82 263.649   2
   6  10  -1 9196.16 221.023   1
   6 -10  -1 9077.74 171.116   2
   6 -10   0 125.490 23.4013   2
   6  10   0 53.8770 31.0639   1
   6  10   0 43.1322 28.1349   2
  -6 -10   0 42.2425 38.9887   2
   6 -10   1 9661.64 158.403   2
   6  10   1 11926.5 325.956   2
   6  10   1 12456.9 300.013   1
  -6 -10  -1 12145.8 326.227   2
  -6  10  -2 2078.66 73.6426   2
   6 -10   2 1886.90 70.6547   2
   6  10   2 2111.04 131.328   1
   6  10   2 2112.45 143.067   2
  -6 -10  -2 2170.11 145.260   2
   6  10   3 26219.4 509.580   2
  -6  10  -3 24319.6 257.498   2
   6 -10   3 23341.8 262.752   2
   6  10   3 25627.6 479.572   1
  -6 -10  -3 25389.0 500.891   2
  -6 -10  -4 2198.53 157.707   2
   6  10   4 2019.99 149.008   2
  -6  10  -4 2023.66 81.6434   2
   6  10   4 1939.20 141.879   1
   6 -10   4 1869.05 82.4531   2
  -6 -10  -5 6347.42 279.582   2
   6  10   5 6217.04 258.838   1
  -6  10  -5 6540.51 156.542   2
   6 -10   5 6613.71 167.323   2
  -6 -10  -6 2427.02 179.807   2
  -6  10  -6 2323.34 102.225   2
  -6 -10  -7 556.912 91.4717   2
  -6  10  -7 520.069 55.3036   2
  -6  10  -8 34.4857 28.1040   2
  -6 -10  -8-29.6128 62.5156   2
  -6 -10  -9 12867.1 448.968   2
  -6  10  -9 11996.8 294.476   2
  -6  10 -10 232.685 51.2258   2
  -6 -10 -10 274.975 89.5314   2
  -6 -10 -11 3342.57 245.822   2
  -6  10 -11 3196.53 171.787   2
  -6  10 -12 28.9471 37.9173   2
  -6 -10 -12 75.4928 64.1622   2
  -6 -10 -13 990.229 142.159   2
   6  12 -17-65.9375 47.8843   2
   6 -12 -17 75.8467 76.6649   1
   6 -12 -17 69.5738 70.2366   2
   6  12 -16 3.85419 46.4224   2
   6 -12 -16 12.3903 72.0947   1
   6 -12 -16-73.0709 74.7784   2
   6 -12 -15 182.848 83.6432   2
   6 -12 -15 240.572 89.6088   1
   6 -12 -14 7098.36 361.569   1
   6 -12 -14 7607.23 360.489   2
   6 -12 -13 51.3449 62.4719   2
   6 -12 -13 135.787 76.9513   1
   6  12 -13 10.0614 37.8621   2
   6  12 -12 4421.09 207.502   2
   6 -12 -12 4688.80 261.788   2
   6 -12 -12 4582.76 276.260   1
   6 -12 -11 280.325 76.6152   2
   6 -12 -11 133.689 67.2701   1
   6  12 -11 295.302 56.0737   2
   6 -12 -10 738.785 120.421   1
   6 -12 -10 707.067 96.7651   2
   6  12 -10 750.594 80.5339   2
   6 -12  -9 126.951 51.3285   2
   6 -12  -9-153.063 72.5662   1
   6  12  -9-17.6911 32.7671   2
  -6 -12   8 2105.89 132.866   2
   6 -12  -8 2388.49 189.630   1
   6  12  -8 2188.53 131.592   2
   6 -12  -8 2041.60 148.871   2
   6 -12  -7 35.6231 37.9085   2
   6 -12  -7-27.0673 36.1175   2
  -6 -12   7-19.4038 29.1187   2
   6  12  -7 7.01908 29.0906   2
   6 -12  -6 12401.8 401.052   1
   6 -12  -6 12018.2 304.833   2
  -6 -12   6 12047.1 293.531   2
   6  12  -6 12280.5 297.558   2
   6 -12  -6 11920.3 306.893   2
   6 -12  -5 2175.94 123.406   2
  -6 -12   5 2210.16 125.819   2
   6 -12  -5 2061.41 162.127   1
   6  12  -5 2189.87 125.241   2
   6 -12  -5 2126.46 123.092   2
   6  12  -4 20287.4 387.140   2
   6 -12  -4 20319.3 354.886   2
  -6 -12   4 20385.6 380.431   2
   6 -12  -4 19749.4 346.113   2
   6  12  -3 2170.02 130.987   2
   6 -12  -3 2046.28 101.789   2
  -6 -12   3 2138.94 125.469   2
   6 -12  -3 1917.25 97.9351   2
   6 -12  -2 5473.05 147.669   2
   6  12  -2 6067.79 219.991   2
   6 -12  -2 5495.62 148.317   2
  -6 -12   2 6196.61 220.742   2
   6  12  -2 6667.60 187.402   1
   6  12  -1 1426.62 110.656   2
   6  12  -1 1249.44 87.9303   1
   6 -12  -1 1403.74 63.1042   2
  -6 -12   1 1529.26 113.936   2
   6  12   0 16373.2 340.874   1
   6  12   0 15544.7 373.262   2
  -6 -12   0 16193.8 379.651   2
  -6 -12  -1 252.787 60.6422   2
   6  12   1 166.058 44.2839   1
   6  12   1 244.121 58.1970   2
   6  12   2 1900.21 130.745   1
   6  12   2 1881.65 142.485   2
  -6 -12  -2 1814.03 140.086   2
   6  12   3 3935.70 208.438   2
  -6 -12  -3 3962.82 207.438   2
   6  12   3 3704.01 190.568   1
   6  12   4 6086.44 257.176   1
  -6 -12  -4 6244.12 274.574   2
  -6 -12  -5 3094.78 201.908   2
  -6  12  -5 2176.88 62.3434   2
  -6 -12  -6 18112.6 501.584   2
  -6  12  -6 14456.2 197.490   2
  -6 -12  -7 239.883 76.8332   2
  -6  12  -7 182.315 30.7099   2
  -6 -12  -8 3601.12 242.831   2
  -6  12  -8 3509.75 125.652   2
  -6 -12  -9 764.837 126.946   2
  -6  12  -9 663.464 62.0367   2
  -6 -12 -10 2151.86 202.092   2
  -6 -12 -11 434.011 110.126   2
  -6 -12 -12 4390.91 302.780   2
   6 -14 -16 157.505 83.2461   2
   6 -14 -15 2216.58 221.961   1
   6 -14 -15 2721.93 229.769   2
   6 -14 -14 158.966 81.7068   1
   6 -14 -14 506.718 106.096   2
   6 -14 -13 228.289 83.5956   1
   6 -14 -13-97.3835 74.7355   2
   6 -14 -12 192.856 82.5716   1
   6 -14 -12 168.649 61.9686   2
   6 -14 -11 2561.85 195.568   2
   6  14 -11 2582.84 154.043   2
   6 -14 -11 2666.89 222.503   1
   6 -14 -10 104.891 58.4723   1
   6  14 -10 78.7787 39.6381   2
   6 -14 -10 164.180 64.2771   2
   6 -14  -9 3617.70 246.477   1
   6 -14  -9 3195.99 196.290   2
   6  14  -9 3134.97 159.475   2
   6 -14  -8 2453.36 155.702   2
   6 -14  -8 2297.05 188.858   1
  -6 -14   8 2611.43 146.398   2
   6 -14  -8 2499.86 165.469   2
   6  14  -8 2343.52 136.037   2
   6 -14  -7 999.004 129.544   1
   6 -14  -7 1262.50 110.076   2
  -6 -14   7 1134.55 98.0462   2
   6 -14  -7 1091.84 104.182   2
   6  14  -7 1011.46 86.5488   2
   6 -14  -6 337.840 59.9122   2
   6  14  -6 361.217 62.5875   2
   6 -14  -6 348.257 63.9103   2
  -6 -14   6 319.618 57.9193   2
   6 -14  -6 661.414 107.652   1
   6  14  -5 9299.78 268.436   2
   6 -14  -5 9818.73 382.569   1
   6 -14  -5 8623.01 252.437   2
  -6 -14   5 9182.06 264.451   2
   6 -14  -5 8995.38 260.474   2
   6  14  -4 572.007 70.7851   2
   6 -14  -4 747.466 71.7530   2
  -6 -14   4 722.634 78.6967   2
   6 -14  -4 531.368 100.841   1
   6 -14  -4 641.160 66.1389   2
   6  14  -3 5507.20 216.713   2
   6 -14  -3 5409.28 166.153   2
  -6 -14   3 5431.35 211.146   2
   6 -14  -3 5332.67 163.079   2
   6  14  -2 147.354 49.4488   2
   6 -14  -2 120.957 25.4071   2
  -6 -14   2 176.634 50.7364   2
   6 -14  -2 74.1548 24.1403   2
  -6 -14   1 90.9516 41.3901   2
   6 -14  -1 101.525 18.5579   2
   6  14  -1 47.3240 30.7896   2
   6  14  -1 120.741 43.4524   1
   6 -14  -1 111.786 18.4862   2
   6  14   0 8315.40 286.695   2
  -6 -14   0 8519.93 288.224   2
   6  14   0 8216.76 261.229   1
   6  14   1 224.423 53.3809   1
   6  14   1 245.257 54.2929   2
  -6 -14  -1 204.330 60.0894   2
  -6 -14  -2 105.026 56.7807   2
   6  14   2 60.3853 47.8001   2
   6  14   2 39.3563 38.5108   1
   6  14   3 28067.3 558.386   1
  -6 -14  -3 28668.2 587.931   2
  -6 -14  -4 527.825 95.9784   2
  -6 -14  -5 315.538 76.3833   2
  -6 -14  -6 777.709 118.308   2
  -6 -14  -7 217.784 69.6018   2
  -6 -14  -8 24.0615 58.7554   2
  -6 -14  -9 8562.35 398.500   2
  -6 -14 -10 65.9379 59.3429   2
  -6 -14 -11 1598.30 184.832   2
   6 -16 -16 297.330 96.0546   2
   6 -16 -15 590.851 120.954   2
   6 -16 -14 4819.96 326.716   1
   6 -16 -14 4605.89 298.050   2
   6 -16 -13 68.5561 73.4896   1
   6 -16 -13-33.8587 55.1280   2
   6 -16 -12 4862.60 317.501   1
   6 -16 -12 4754.38 280.206   2
   6 -16 -11 47.3969 73.0315   1
   6 -16 -11 90.0974 55.1330   2
   6 -16 -10 1292.19 135.517   2
   6 -16 -10 868.710 131.281   1
   6 -16  -9 841.353 133.926   1
   6 -16  -9 921.867 110.958   2
   6 -16  -8 4416.47 278.005   1
   6 -16  -8 3869.37 202.227   2
   6 -16  -8 4179.21 221.373   2
   6  16  -8 4021.65 174.539   2
   6  16  -7 390.073 57.3681   2
   6 -16  -7 377.374 65.4178   2
  -6 -16   7 392.110 62.7288   2
   6 -16  -7 455.030 102.011   1
   6 -16  -7 474.343 77.3096   2
   6 -16  -6 9242.86 284.931   2
  -6 -16   6 9371.84 273.424   2
   6 -16  -6 9422.70 291.656   2
   6 -16  -6 8832.71 387.224   1
   6  16  -6 8513.49 253.862   2
   6  16  -5 4320.77 183.197   2
   6 -16  -5 4542.54 192.106   2
   6 -16  -5 4485.79 187.162   2
  -6 -16   5 4739.62 195.864   2
   6 -16  -5 4172.56 257.793   1
   6  16  -4 3504.93 169.919   2
   6 -16  -4 3753.62 245.785   1
   6 -16  -4 4044.44 161.893   2
   6 -16  -4 3969.22 158.986   2
  -6 -16   4 3787.36 175.156   2
   6  16  -3 565.407 72.4431   2
   6 -16  -3 627.864 57.2779   2
   6 -16  -3 571.311 54.4743   2
   6 -16  -3 434.704 84.6820   1
  -6 -16   3 584.928 75.7957   2
   6 -16  -2 2911.62 92.2617   2
   6  16  -2 3842.30 190.822   2
  -6 -16   2 4151.87 195.255   2
   6 -16  -2 2895.83 89.2748   2
   6  16  -1 29.3079 37.4799   2
  -6 -16   1 109.866 47.1563   2
   6  16   0 14183.8 387.946   2
  -6 -16   0 15536.8 405.711   2
   6  16   1 115.682 42.4072   2
   6  16   1 151.680 53.4016   1
  -6 -16  -1 190.031 67.2209   2
   6  16   2 108.915 54.7901   1
  -6 -16  -2 86.0300 53.2252   2
  -6 -16  -3 5212.39 264.411   2
  -6 -16  -4 2431.35 188.324   2
  -6 -16  -5 620.977 110.414   2
  -6 -16  -6 7269.20 343.138   2
  -6 -16  -7 273.541 90.6583   2
  -6 -16  -8 5935.88 373.089   2
  -6 -16  -9 688.154 125.308   2
  -6 -16 -10 392.407 103.635   2
   6 -18 -15 426.158 102.266   2
   6 -18 -14 198.429 82.6943   2
   6 -18 -13 564.313 119.592   2
   6 -18 -12 425.353 111.407   1
   6 -18 -12 792.552 123.334   2
   6 -18 -11 1745.49 170.850   2
   6 -18 -11 1904.98 211.559   1
   6 -18 -10 157.772 77.0907   1
   6 -18 -10 249.810 73.8412   2
   6 -18  -9 4739.27 309.794   1
   6 -18  -9 4786.29 254.708   2
   6 -18  -8 898.442 137.878   1
   6 -18  -8 968.629 113.508   2
   6 -18  -7 634.364 126.175   1
  -6 -18   7 544.042 72.0821   2
   6 -18  -7 634.615 86.8880   2
  -6 -18   6 128.397 44.6732   2
   6 -18  -6 44.6566 37.0191   2
   6 -18  -6 138.595 80.8356   1
  -6 -18   5 7605.54 252.153   2
   6 -18  -5 7320.30 239.791   2
   6 -18  -5 7142.28 359.414   1
   6 -18  -4 1946.33 107.657   2
  -6 -18   4 1938.99 130.598   2
   6 -18  -4 1593.04 172.718   1
   6 -18  -3 7523.35 364.853   1
  -6 -18   3 7981.36 269.566   2
   6 -18  -2 296.684 97.0917   1
   6  18  -2 227.439 47.3783   2
  -6 -18   2 361.636 69.3812   2
   6 -18  -1 560.507 117.499   1
   6  18  -1 731.540 92.7831   2
  -6 -18   1 796.426 92.5531   2
  -6 -18   0 488.952 84.3170   2
  -6 -18  -1 3595.66 213.711   2
  -6 -18  -2 748.721 105.959   2
  -6 -18  -3 1852.59 172.632   2
  -6 -18  -4 1139.53 144.634   2
  -6 -18  -5 4222.04 266.327   2
  -6 -18  -6 318.267 90.4360   2
  -6 -18  -7 852.075 137.605   2
  -6 -18  -8 2016.12 206.787   2
  -6 -18  -9 1601.30 189.865   2
   6 -20 -13 287.538 104.232   2
   6 -20 -12 1335.22 162.083   2
   6 -20 -11-27.0047 57.4284   2
   6 -20 -10 363.388 122.148   1
   6 -20  -9 806.266 145.513   1
   6 -20  -8 419.557 102.950   1
   6 -20  -7 337.154 108.411   1
   6 -20  -6 4632.31 304.692   1
   6 -20  -5 610.194 130.917   1
   6 -20  -4 587.600 132.223   1
   6 -20  -3 404.797 105.405   1
  -6 -20   2 1492.38 125.884   2
   6 -20  -2 1072.58 144.045   1
   6 -20  -1 102.836 73.7482   1
  -6 -20   1 36.0874 41.4315   2
  -6 -20   0 5518.02 255.853   2
   6 -20   0 4181.91 271.725   1
  -6 -20  -1 221.926 59.6465   2
  -6 -20  -2 622.940 110.638   2
  -6 -20  -3 6322.13 311.731   2
  -6 -20  -4 472.121 101.688   2
  -6 -20  -5 371.671 95.2114   2
  -6 -20  -6 3336.66 260.038   2
  -6 -20  -7 594.724 120.065   2
  -6 -20  -8 845.540 144.289   2
   6 -22  -8 281.894 110.373   1
   6 -22  -7 942.846 153.752   1
   6 -22  -6 57.0927 75.2704   1
   6 -22  -5 1558.06 190.076   1
   6 -22  -4 190.985 91.1347   1
   6 -22  -3 2497.64 228.969   1
   6 -22  -2 496.382 113.271   1
   6 -22  -1 2085.81 206.151   1
   6 -22   0 189.493 80.3002   1
   6 -22   1 1421.64 169.938   1
   6 -22   2 243.852 90.7670   1
  -6 -22  -6 2347.57 223.116   2
   6 -24  -5 75.8167 83.2515   1
   6 -24  -4 136.332 86.0689   1
   6 -24  -3 712.274 133.797   1
   6 -24  -2 1637.70 196.713   1
   7  -1 -20 500.172 112.919   2
   7   1 -20 506.841 119.230   2
   7  -1 -19 6609.08 373.786   2
   7   1 -19 6776.39 363.395   2
   7  -1 -18 1014.60 149.179   2
   7   1 -18 1036.86 143.535   2
   7  -1 -17 21.3114 60.6016   2
   7   1 -17-49.5859 59.4145   2
   7  -1 -17 70.8661 51.4825   1
   7  -1 -16 5843.87 311.093   2
   7  -1 -16 6268.54 295.965   1
   7   1 -15 6369.32 273.576   1
   7  -1 -15 6028.16 278.531   1
   7   1 -14-47.1106 42.1818   1
   7  -1 -14 37.0204 42.6911   1
   7  -1 -13 8828.96 306.096   1
   7   1 -13 9071.41 294.225   1
   7   1 -12 759.643 95.7492   2
   7   1 -12 941.485 93.3435   1
   7  -1 -12 965.313 103.543   1
   7  -1 -12 893.138 103.384   2
   7  -1 -11 5534.74 235.829   2
   7   1 -11 5278.90 227.234   2
   7   1 -11 5139.49 200.466   1
   7  -1 -11 4675.77 206.052   1
   7   1 -10 20934.9 382.003   1
   7  -1 -10 20574.3 410.191   1
   7   1 -10 21534.9 439.860   2
   7  -1 -10 21479.0 442.093   2
   7  -1  -9 2456.71 145.587   2
   7   1  -9 2738.50 134.445   1
   7  -1  -9 2594.18 142.336   1
   7   1  -9 2457.06 143.811   2
   7  -1  -8 5950.01 209.551   1
   7  -1  -8 5660.28 209.327   2
   7   1  -8 5476.86 203.279   2
   7   1  -8 5536.60 183.555   1
  -7  -1   7 15648.5 333.197   2
   7  -1  -7 14263.2 318.263   2
   7   1  -7 15127.6 326.889   2
  -7  -1   6 2273.12 126.205   2
   7  -1  -6 2219.49 122.432   2
   7   1  -6 2253.11 124.384   2
  -7   1   6 2156.93 121.660   2
  -7   1   5 23665.7 379.489   2
  -7  -1   5 23696.9 379.611   2
   7  -1  -5 24149.8 382.384   2
   7   1  -5 24093.8 380.376   2
  -7   1   4 6490.13 191.916   2
  -7  -1   4 6304.34 191.862   2
   7  -1  -4 6896.54 199.541   2
   7   1  -4 6462.46 195.828   2
  -7   1   3 909.776 74.6312   2
  -7  -1   3 703.285 65.7278   2
   7  -1  -3 815.667 70.4186   2
   7   1  -3 782.161 70.3911   2
  -7  -1   2 102.684 39.5587   2
  -7   1   2-1.28426 35.1648   2
   7  -1  -2 77.8234 33.0368   2
   7   1  -2 83.5849 30.1351   2
  -7   1   1 4890.32 161.267   2
  -7  -1   1 4921.10 172.583   2
   7  -1  -1 5035.95 165.221   2
   7   1  -1 4930.86 171.162   2
   7  -1   0 34.1489 27.6250   2
   7   1   0-2.16191 27.4406   2
  -7   1   0 16.3346 29.1728   2
  -7  -1   0 11.4285 34.0664   2
   7  -1   1 18472.9 333.954   2
   7   1   1 18561.0 347.234   2
  -7   1  -1 18174.5 328.955   2
  -7  -1  -1 17811.4 343.449   2
   7  -1   2 26026.1 409.534   2
   7   1   2 25794.7 424.749   2
  -7   1  -2 25583.8 410.107   2
  -7  -1  -2 25153.5 426.388   2
   7  -1   3 3336.50 154.550   2
   7   1   3 3260.46 156.622   2
  -7   1  -3 3351.74 156.085   2
  -7  -1  -3 3211.20 158.514   2
   7  -1   4 16626.2 356.713   2
   7   1   4 16410.1 366.345   2
  -7   1  -4 16248.7 354.114   2
  -7  -1  -4 15994.7 367.023   2
  -7   1  -5 15495.4 364.293   2
  -7  -1  -5 15331.5 380.696   2
   7   1   5 15358.9 372.108   2
   7  -1   5 15317.6 360.091   2
  -7   1  -6 113.234 50.5485   2
  -7  -1  -6 131.625 51.6788   2
   7   1   6 220.252 58.0324   2
   7  -1   6 134.679 45.3236   2
  -7   1  -7 6076.92 252.771   2
  -7  -1  -7 6254.41 266.462   2
   7  -1   7 6091.30 251.597   2
   7   1   7 6185.03 257.773   2
  -7   1  -8 29519.5 583.291   2
  -7  -1  -8 28610.1 590.075   2
   7  -1   8 28958.0 566.346   2
  -7   1  -9 16.0806 44.6947   2
  -7  -1  -9 110.902 57.8225   2
  -7   1 -10 238.814 74.0433   2
  -7  -1 -10 212.272 75.8920   2
  -7   1 -11 6748.26 317.781   2
  -7  -1 -11 6820.83 326.708   2
  -7   1 -12 499.898 98.4739   2
  -7  -1 -12 558.619 108.200   2
  -7   1 -13 4795.76 288.923   2
  -7  -1 -13 4660.71 286.162   2
  -7   1 -14 438.877 108.750   2
  -7  -1 -14 602.284 122.622   2
  -7   1 -15 30.6322 65.1072   2
  -7  -1 -15-10.5776 62.1572   2
  -7   1 -16 4751.22 321.563   2
   7   3 -21 226.620 97.4615   2
   7  -3 -20 112.723 85.8232   2
   7   3 -20 204.759 75.3937   2
   7  -3 -19 1510.35 182.532   2
   7   3 -19 1481.86 177.147   2
   7  -3 -18-90.3764 65.8009   2
   7   3 -18-100.327 67.3692   2
   7  -3 -18 40.9265 61.1302   1
   7  -3 -17 99.3496 72.8227   2
   7   3 -17 132.844 70.1334   2
   7  -3 -17 83.9588 74.1975   1
   7  -3 -16 6710.33 341.130   2
   7  -3 -16 6592.45 314.958   1
   7  -3 -15 114.471 58.9270   1
   7  -3 -14 2253.32 171.676   1
   7   3 -13 17814.6 381.978   1
   7  -3 -13 16266.5 438.844   1
   7   3 -12 117.688 52.5661   2
   7  -3 -12 171.893 55.6814   1
   7   3 -12 174.373 43.8974   1
   7  -3 -11 3305.01 187.206   1
   7  -3 -11 3667.48 196.038   2
   7   3 -11 3470.26 184.997   2
   7   3 -11 3530.59 153.238   1
   7  -3 -10 5572.89 231.793   2
   7  -3 -10 5190.83 220.825   1
   7   3 -10 5599.68 221.787   2
   7   3 -10 5764.75 183.652   1
   7  -3  -9 283.331 63.8270   1
   7  -3  -9 106.443 44.1233   2
   7   3  -9 286.016 67.2222   2
   7   3  -9 347.691 52.9733   1
  -7  -3   8 2754.02 145.131   2
   7  -3  -8 2272.36 143.251   1
   7   3  -8 2592.87 140.850   2
   7   3  -8 2319.43 104.597   1
   7  -3  -8 2639.53 146.030   2
   7   3  -7 10442.5 269.607   2
  -7  -3   7 10795.8 281.283   2
   7  -3  -7 10505.9 279.656   2
   7   3  -7 11554.8 228.351   1
   7  -3  -6 905.072 84.0986   2
  -7  -3   6 896.849 84.1851   2
   7   3  -6 732.167 75.8523   2
  -7  -3   5 23378.4 378.844   2
   7  -3  -5 24110.8 381.620   2
  -7   3   5 24461.3 384.054   2
   7   3  -5 24098.9 385.499   2
  -7   3   4 30490.8 413.866   2
  -7  -3   4 30605.2 423.457   2
   7  -3  -4 30241.9 416.865   2
   7   3  -4 30850.8 434.918   2
  -7   3   3 111.574 37.6912   2
  -7  -3   3 100.749 38.7130   2
   7  -3  -3 64.7859 31.3012   2
   7   3  -3 104.459 38.1294   2
  -7   3   2 4166.39 145.249   2
  -7  -3   2 3986.34 155.541   2
   7  -3  -2 4279.20 147.943   2
   7   3  -2 4145.84 161.026   2
   7   3  -1 225.093 44.8712   2
  -7   3   1 214.394 40.0953   2
  -7  -3   1 188.291 46.3113   2
   7  -3  -1 249.423 41.4745   2
   7  -3   0 32.2013 29.6106   2
   7   3   0 89.9639 42.5194   2
  -7  -3   0 52.1882 36.0738   2
   7  -3   1 4882.42 168.415   2
   7   3   1 4927.68 188.951   2
  -7   3  -1 4848.29 167.347   2
  -7  -3  -1 4829.75 187.860   2
   7  -3   2 11421.7 261.076   2
   7   3   2 11863.1 304.232   2
  -7   3  -2 11633.0 264.480   2
  -7  -3  -2 11331.8 294.133   2
   7  -3   3 1466.31 98.6783   2
   7   3   3 1605.63 113.788   2
  -7   3  -3 1624.52 105.257   2
  -7  -3  -3 1546.03 116.218   2
  -7  -3  -4 9994.77 303.710   2
   7  -3   4 10050.4 271.226   2
  -7   3  -4 10082.5 269.313   2
   7   3   4 10067.2 301.864   2
  -7  -3  -5 7113.62 267.541   2
   7   3   5 7191.28 262.417   2
   7  -3   5 7034.07 236.096   2
  -7   3  -5 6904.14 235.167   2
  -7   3  -6 193.796 57.9836   2
  -7  -3  -6 142.125 49.9277   2
   7   3   6 137.323 43.9752   2
   7  -3   6 130.244 42.9860   2
  -7   3  -7 584.017 86.7659   2
  -7  -3  -7 600.090 95.7263   2
   7  -3   7 548.697 81.6366   2
  -7   3  -8 10141.4 333.876   2
  -7  -3  -8 10027.2 359.534   2
   7  -3   8 10069.8 329.338   2
  -7   3  -9 788.277 102.154   2
  -7  -3  -9 843.799 114.472   2
   7  -3   9 981.108 117.624   2
  -7   3 -10 222.057 78.9391   2
  -7  -3 -10-2.26331 48.9474   2
  -7   3 -11 15415.7 466.598   2
  -7  -3 -11 15886.3 501.602   2
  -7   3 -12 861.578 127.079   2
  -7  -3 -12 860.684 136.933   2
  -7   3 -13 919.164 133.213   2
  -7  -3 -13 969.664 147.437   2
  -7   3 -14 820.427 129.062   2
  -7  -3 -14 865.767 134.361   2
  -7   3 -15 174.000 79.1075   2
  -7  -3 -15 161.964 83.4574   2
  -7   3 -16 2474.60 228.547   2
   7   5 -21 92.9533 59.2052   2
   7   5 -20 404.214 96.1682   2
   7   5 -19 1433.98 168.109   2
   7  -5 -19 1945.33 201.058   1
   7  -5 -19 1987.87 216.546   2
   7   5 -18 1886.22 192.826   2
   7  -5 -18 2606.02 225.476   1
   7  -5 -18 2430.49 231.624   2
   7  -5 -17 984.698 147.210   2
   7  -5 -17 898.274 133.266   1
   7  -5 -16 5482.84 296.994   1
   7  -5 -16 5937.71 329.281   2
   7  -5 -15 1009.96 140.855   2
   7  -5 -15 1198.06 142.810   1
   7  -5 -14 1018.80 124.504   1
   7  -5 -13 7141.69 304.625   1
   7  -5 -12 1126.90 120.137   1
   7   5 -12 1110.84 114.960   2
   7  -5 -11 7152.97 288.407   1
   7   5 -11 7949.48 199.841   1
   7   5 -11 7102.49 263.389   2
   7  -5 -11 7353.22 284.630   2
   7  -5 -10 4641.73 215.882   2
   7   5 -10 4713.64 208.195   2
   7   5 -10 4979.21 147.693   1
   7  -5 -10 4438.58 218.816   1
   7  -5  -9 1114.70 103.613   2
   7  -5  -9 820.897 95.0047   1
   7   5  -9 1188.93 101.134   2
   7   5  -9 1043.98 62.2890   1
   7  -5  -8 67871.8 812.803   1
  -7  -5   8 66316.5 724.209   2
   7  -5  -8 67292.0 736.091   2
   7   5  -8 66615.6 703.435   2
   7   5  -8 65799.8 450.158   1
   7   5  -7 100036. 834.715   2
   7   5  -7 94804.3 524.900   1
   7  -5  -7 92895.1 938.585   1
   7  -5  -7 99748.9 853.281   2
  -7  -5   6 66850.7 667.027   2
   7   5  -6 68396.9 675.710   2
   7  -5  -6 67533.6 681.432   2
   7  -5  -5 2577.58 125.717   2
  -7  -5   5 2337.01 124.992   2
   7   5  -5 2323.84 124.617   2
  -7   5   4 16292.6 310.606   2
   7  -5  -4 15892.7 305.664   2
  -7  -5   4 15675.0 318.227   2
   7   5  -4 16034.4 322.324   2
  -7   5   3 27.4543 35.3273   2
   7  -5  -3-2.39669 27.8159   2
  -7  -5   3 57.4315 33.8460   2
   7   5  -3-5.07386 30.8660   2
  -7   5   2 11957.2 240.817   2
   7  -5  -2 11785.0 239.177   2
  -7  -5   2 11659.8 275.795   2
   7   5  -2 11877.8 280.346   2
  -7   5   1 12673.5 245.342   2
  -7  -5   1 13004.0 299.722   2
   7  -5  -1 12298.6 242.105   2
   7   5  -1 12722.2 294.202   2
   7   5   0 4766.17 190.746   2
  -7   5   0 4874.47 155.745   2
  -7  -5   0 4759.02 191.197   2
   7  -5   0 4937.44 156.680   2
   7  -5   1 7743.42 200.491   2
   7   5   1 7738.67 243.577   2
  -7   5  -1 8127.86 198.281   2
  -7  -5  -1 7415.84 241.923   2
   7  -5   2 1452.90 91.1143   2
   7   5   2 1555.16 116.731   2
  -7   5  -2 1529.39 92.6838   2
  -7  -5  -2 1507.18 115.818   2
  -7  -5  -3 13.8608 34.5566   2
   7  -5   3 41.1804 30.4771   2
   7   5   3 77.7203 43.9844   2
  -7   5  -3-5.82391 25.1938   2
  -7  -5  -4 19213.9 430.160   2
   7  -5   4 19631.3 358.216   2
   7   5   4 19680.1 434.862   2
  -7   5  -4 19470.6 355.197   2
  -7  -5  -5 9271.29 313.170   2
   7   5   5 9260.20 308.386   2
   7  -5   5 8934.75 255.635   2
  -7   5  -5 8967.50 255.760   2
  -7  -5  -6 1109.39 116.385   2
   7   5   6 1221.06 121.696   1
   7  -5   6 1079.36 97.2294   2
  -7   5  -6 1015.20 92.3690   2
  -7  -5  -7 1562.79 143.894   2
   7  -5   7 1509.21 119.276   2
  -7   5  -7 1533.83 120.864   2
  -7   5  -8 8271.80 287.128   2
  -7  -5  -8 7937.42 330.871   2
   7  -5   8 7933.18 287.418   2
   7  -5   9 42.6862 44.8517   2
  -7   5  -9 51.1802 42.0278   2
  -7   5 -10 4664.65 238.508   2
  -7  -5 -10 4577.95 269.206   2
  -7   5 -11 4043.25 233.410   2
  -7  -5 -11 3917.52 262.038   2
  -7   5 -12 754.409 114.222   2
  -7  -5 -12 774.733 127.560   2
  -7   5 -13 4638.03 269.158   2
  -7  -5 -13 4765.21 300.992   2
  -7   5 -14 783.927 126.269   2
  -7  -5 -14 816.224 143.783   2
  -7   5 -15 116.340 75.0275   2
  -7   5 -16 1668.01 178.593   2
   7   7 -21 262.881 108.878   2
   7   7 -20 565.454 108.245   2
   7  -7 -19 1023.26 165.823   2
   7   7 -19 616.412 116.659   2
   7  -7 -19 775.386 136.552   1
   7  -7 -18 369.347 113.085   2
   7   7 -18 345.619 88.8360   2
   7  -7 -18 511.218 121.554   1
   7  -7 -17 513.467 110.224   2
   7  -7 -17 307.379 90.5233   1
   7  -7 -16 194.185 83.3985   2
   7  -7 -16 193.766 78.3890   1
   7  -7 -15 416.549 92.5195   1
   7  -7 -15 427.643 102.512   2
   7  -7 -14 8776.62 380.224   2
   7  -7 -14 7790.23 343.619   1
   7  -7 -13 6725.20 317.669   2
   7   7 -13 6151.37 265.254   2
   7  -7 -13 6369.74 300.214   1
   7   7 -12 1676.00 136.679   2
   7  -7 -12 1767.19 158.123   1
   7  -7 -11 1582.62 146.260   1
   7   7 -11 1742.19 130.967   2
   7  -7 -10 4073.85 204.954   2
   7  -7 -10 4054.46 220.731   1
   7   7 -10 4367.79 197.989   2
   7  -7  -9 32.2329 32.4749   2
   7  -7  -9 2.95141 50.0782   1
   7   7  -9 59.5919 30.8634   2
   7  -7  -8 23280.5 441.441   2
   7  -7  -8 19804.9 461.600   1
  -7  -7   8 22836.1 426.795   2
   7   7  -8 23046.3 423.483   2
   7  -7  -7 20433.1 397.405   2
  -7  -7   7 20412.0 391.197   2
   7   7  -7 20191.5 385.654   2
   7  -7  -7 21094.1 474.470   1
  -7  -7   6 894.997 85.4121   2
   7  -7  -6 867.044 85.8887   2
   7   7  -6 534.449 29.8486   1
   7   7  -6 896.282 84.3610   2
   7  -7  -5 12606.2 284.897   2
  -7  -7   5 12309.0 291.615   2
   7   7  -5 12599.0 297.598   2
   7  -7  -4 8673.54 227.239   2
  -7  -7   4 8791.00 243.121   2
   7   7  -4 8918.73 248.265   2
  -7   7   3 1125.76 78.5483   2
   7  -7  -3 1047.80 76.8388   2
  -7  -7   3 928.139 82.3306   2
   7   7  -3 1014.45 85.5954   2
  -7   7   2 22024.8 329.407   2
   7  -7  -2 21621.6 318.841   2
  -7  -7   2 21528.5 386.879   2
   7   7  -2 21808.9 394.453   2
   7   7  -1 13470.9 320.453   2
  -7   7   1 13413.5 246.928   2
  -7  -7   1 13000.7 310.939   2
   7  -7  -1 12952.8 242.657   2
   7  -7   0 5928.46 163.103   2
   7   7   0 6267.94 222.965   2
  -7   7   0 5764.52 159.556   2
  -7  -7   0 6106.39 222.459   2
  -7  -7  -1 32.6084 37.1848   2
   7  -7   1 43.2617 24.7245   2
   7   7   1 34.0089 35.9020   2
  -7   7  -1 79.1613 24.6934   2
  -7  -7  -2 792.299 91.2969   2
   7  -7   2 803.767 67.2925   2
   7   7   2 852.054 88.1166   1
   7   7   2 738.069 87.0335   2
  -7   7  -2 819.891 63.1591   2
   7   7   3 2093.24 139.920   1
   7   7   3 1927.39 138.097   2
  -7   7  -3 2018.14 104.057   2
   7  -7   3 1995.70 104.754   2
  -7  -7  -3 1999.03 140.201   2
  -7  -7  -4 30025.7 554.877   2
   7   7   4 29797.7 532.707   1
   7   7   4 30068.2 550.560   2
   7  -7   4 29817.1 421.472   2
  -7   7  -4 30130.4 414.586   2
  -7  -7  -5 4794.89 235.366   2
   7  -7   5 5061.90 185.631   2
   7   7   5 4990.30 229.757   1
   7   7   5 4840.87 231.226   2
  -7   7  -5 4911.65 179.342   2
  -7  -7  -6 7534.80 302.825   2
   7  -7   6 7823.94 243.382   2
  -7   7  -6 7531.39 234.349   2
   7  -7   7 300.233 54.7544   2
  -7   7  -7 316.920 59.9727   2
  -7  -7  -7 416.499 84.7196   2
  -7  -7  -8 4997.61 268.975   2
   7  -7   8 4714.04 210.377   2
  -7   7  -8 4569.26 200.812   2
   7  -7   9 958.513 104.737   2
  -7  -7  -9 1002.95 134.096   2
  -7   7  -9 899.203 99.2024   2
  -7   7 -10 15305.3 410.449   2
   7  -7  10 15497.1 424.026   2
  -7  -7 -10 15546.4 505.463   2
  -7   7 -11 931.748 109.902   2
  -7  -7 -11 1081.92 145.194   2
  -7   7 -12 284.138 79.1673   2
  -7  -7 -12 409.248 104.353   2
  -7   7 -13 1569.71 152.683   2
  -7  -7 -13 1734.32 197.868   2
  -7   7 -14 62.1670 63.2761   2
  -7  -7 -14 96.4232 75.7312   2
  -7   7 -15 35.4125 61.5277   2
   7   9 -21-37.6135 59.8759   2
   7   9 -20 571.144 110.169   2
   7  -9 -19 2087.61 224.398   1
   7   9 -19 2032.21 186.748   2
   7  -9 -18 1509.65 191.764   2
   7   9 -18 918.019 126.808   2
   7  -9 -18 1245.42 171.652   1
   7  -9 -17 13.9918 66.0220   2
   7  -9 -17 87.9285 65.2069   1
   7  -9 -16 1067.05 153.881   2
   7  -9 -16 1016.40 141.844   1
   7  -9 -15 345.104 98.1822   2
   7  -9 -15 479.365 110.334   1
   7  -9 -14 174.149 74.7853   2
   7  -9 -14 81.6736 66.8377   1
   7   9 -13 2738.61 180.426   2
   7  -9 -13 2686.52 204.111   1
   7  -9 -13 2660.28 208.752   2
   7  -9 -12 154.309 70.9086   2
   7   9 -12 147.198 53.4697   2
   7  -9 -12 71.6985 55.4746   1
   7  -9 -11 5976.60 290.253   1
   7  -9 -11 6796.03 295.332   2
   7   9 -11 6734.34 256.654   2
   7   9 -10 9082.37 286.165   2
   7  -9 -10 8902.72 304.511   2
   7  -9 -10 8712.32 340.861   1
   7  -9  -9 1008.31 115.785   1
  -7  -9   9 987.101 96.7570   2
   7  -9  -9 881.645 99.5979   2
   7   9  -9 1000.07 98.1198   2
   7  -9  -8 8989.11 334.510   1
  -7  -9   8 8900.52 271.626   2
   7  -9  -8 8888.53 279.695   2
   7   9  -8 8753.17 264.318   2
   7   9  -7 13463.6 321.259   2
   7  -9  -7 13071.6 324.815   2
  -7  -9   7 13645.8 333.220   2
   7  -9  -7 12419.6 390.509   1
   7  -9  -6 143.457 41.8961   2
  -7  -9   6 58.7374 29.1712   2
   7   9  -6 33.6073 28.6056   2
   7  -9  -5 7545.79 224.589   2
  -7  -9   5 7702.39 236.479   2
   7   9  -5 7675.97 238.637   2
  -7  -9   4 4111.04 176.148   2
   7  -9  -4 3843.72 153.359   2
   7   9  -4 3972.34 104.982   1
   7   9  -4 4097.62 179.611   2
   7   9  -3 243.067 48.5058   2
   7  -9  -3 233.256 36.4971   2
  -7  -9   3 279.955 56.9320   2
   7   9  -3 244.717 34.0443   1
   7   9  -2 8897.59 266.821   2
   7   9  -2 9087.09 204.945   1
   7  -9  -2 8765.59 199.333   2
  -7  -9   2 8864.91 263.758   2
   7   9  -1 2575.14 148.311   2
  -7   9   1 2415.54 103.091   2
   7   9  -1 2417.29 117.141   1
   7  -9  -1 2319.71 99.3710   2
  -7  -9   1 2578.23 145.693   2
   7   9   0 1065.20 101.830   2
  -7   9   0 946.147 63.9437   2
   7   9   0 1090.45 86.2375   1
  -7  -9   0 1077.33 101.753   2
   7  -9   0 951.631 63.6903   2
   7  -9   1 8478.04 183.498   2
   7   9   1 8424.53 279.117   2
   7   9   1 8163.92 243.062   1
  -7   9  -1 8817.13 184.394   2
  -7  -9  -1 8186.19 276.258   2
   7  -9   2 2320.20 97.8009   2
   7   9   2 2353.69 153.890   2
   7   9   2 2261.17 140.355   1
  -7   9  -2 2337.33 97.8405   2
  -7  -9  -2 2320.46 154.900   2
  -7  -9  -3 457.748 75.8070   2
   7  -9   3 613.149 53.7029   2
  -7   9  -3 685.351 53.8415   2
   7   9   3 435.332 72.0582   2
   7   9   3 403.574 64.2222   1
   7   9   4 5502.26 238.121   1
   7   9   4 5294.48 246.305   2
   7  -9   4 5619.50 170.268   2
  -7   9  -4 5571.86 162.648   2
  -7  -9  -4 5290.17 246.824   2
  -7  -9  -5 24760.5 553.426   2
   7   9   5 23836.8 518.314   1
   7  -9   5 24524.9 375.880   2
  -7   9  -5 24366.6 363.367   2
   7  -9   6 225.330 44.3994   2
  -7  -9  -6 277.646 73.5014   2
  -7   9  -6 228.482 41.8968   2
  -7  -9  -7 1745.21 159.446   2
  -7   9  -7 1762.73 110.658   2
   7  -9   7 1810.64 118.156   2
  -7  -9  -8 2068.74 186.563   2
  -7   9  -8 1871.84 126.207   2
   7  -9   8 1968.08 134.801   2
  -7   9  -9 691.502 79.7660   2
  -7  -9  -9 834.916 124.074   2
  -7   9 -10 178.217 53.5473   2
  -7  -9 -10 78.3058 69.3517   2
  -7  -9 -11 4574.69 295.094   2
  -7   9 -11 3885.65 203.278   2
  -7   9 -12 401.026 73.8012   2
  -7  -9 -12 357.308 92.3858   2
  -7  -9 -13 4566.28 315.514   2
   7  11 -19 1409.01 151.168   2
   7  11 -18 349.512 86.6483   2
   7 -11 -18 568.042 125.683   2
   7  11 -17 245.599 72.4629   2
   7 -11 -17 477.708 114.990   1
   7 -11 -17 424.572 112.259   2
   7 -11 -16 3039.92 248.148   1
   7 -11 -16 3432.61 265.787   2
   7 -11 -15 3769.22 268.276   1
   7 -11 -15 3834.29 274.354   2
   7 -11 -14 2337.21 207.493   1
   7 -11 -14 2573.70 213.109   2
   7  11 -13 2774.82 174.718   2
   7 -11 -13 3059.05 232.211   1
   7 -11 -13 3285.90 228.872   2
   7 -11 -12 59.4243 52.4434   2
   7  11 -12 20.0356 38.8419   2
   7 -11 -12 24.8436 57.8766   1
   7 -11 -11 781.583 119.968   1
   7 -11 -11 652.912 99.4126   2
   7  11 -11 609.542 81.0873   2
   7 -11 -10 1331.99 146.290   1
   7  11 -10 1467.54 119.375   2
   7 -11 -10 1384.57 137.728   2
   7 -11  -9 34.4118 61.5791   1
   7 -11  -9 120.336 56.2386   2
  -7 -11   9 105.894 44.7058   2
   7 -11  -9 117.432 52.2228   2
   7  11  -9 48.0882 31.1014   2
  -7 -11   8 2297.72 142.113   2
   7 -11  -8 2040.73 137.387   2
   7  11  -8 2050.62 132.720   2
   7 -11  -8 1821.16 166.485   1
   7 -11  -7 4741.79 203.308   2
   7 -11  -7 5380.63 274.106   1
  -7 -11   7 4991.48 204.735   2
   7  11  -7 4679.57 196.855   2
   7 -11  -6 259.043 76.4151   1
  -7 -11   6 120.692 38.2252   2
   7 -11  -6 86.9917 32.5239   2
   7  11  -6 174.042 45.7071   2
   7 -11  -5 9929.61 264.581   2
  -7 -11   5 9965.16 277.790   2
   7  11  -5 10124.8 284.019   2
  -7 -11   4 7247.01 240.750   2
   7  11  -4 6561.33 142.037   1
   7 -11  -4 6712.51 205.268   2
   7  11  -4 6920.68 235.127   2
   7  11  -3 47.3633 36.2697   2
   7 -11  -3 7.12724 26.5704   2
   7  11  -3 42.2683 24.7981   1
  -7 -11   3 10.8955 33.4755   2
   7  11  -2 24764.6 460.727   2
   7 -11  -2 23296.0 317.283   2
  -7 -11   2 24997.3 456.889   2
   7  11  -2 24958.1 361.055   1
   7  11  -1 2381.71 149.673   2
  -7 -11   1 2475.52 154.054   2
   7 -11  -1 2086.64 90.3396   2
   7  11  -1 2698.27 133.339   1
   7 -11   0 231.963 31.2914   2
   7  11   0 165.568 41.9662   1
   7  11   0 198.233 51.9299   2
  -7 -11   0 151.542 49.6141   2
   7 -11   1 2773.25 93.8105   2
   7  11   1 3179.38 182.564   2
   7  11   1 3451.00 168.361   1
  -7 -11  -1 3163.56 178.719   2
  -7  11  -2 14980.7 212.202   2
   7 -11   2 14332.8 206.385   2
   7  11   2 16665.0 422.612   2
   7  11   2 16890.8 390.716   1
  -7 -11  -2 17153.8 428.927   2
  -7 -11  -3-50.8724 48.3266   2
   7  11   3 31.2040 41.9159   1
  -7  11  -3 14.2246 17.5482   2
   7 -11   3-6.06270 18.4222   2
  -7  11  -4 18730.7 252.653   2
   7  11   4 18785.1 453.063   1
   7 -11   4 18077.8 263.397   2
  -7 -11  -4 19197.1 486.469   2
  -7  11  -5 1690.07 84.5397   2
   7 -11   5 1793.71 91.5057   2
  -7 -11  -5 1819.87 163.957   2
  -7 -11  -6 392.274 87.6070   2
  -7  11  -6 455.612 48.0089   2
  -7 -11  -7 5964.95 308.147   2
  -7  11  -7 6199.47 184.555   2
  -7 -11  -8 8098.16 363.678   2
  -7  11  -8 7714.37 216.893   2
  -7 -11  -9 1870.23 182.061   2
  -7  11  -9 1828.44 114.462   2
  -7 -11 -10 11485.3 461.539   2
  -7 -11 -11 1037.57 161.665   2
  -7 -11 -12 337.225 107.288   2
   7 -13 -17 912.583 156.414   2
   7 -13 -16 1088.24 161.929   2
   7 -13 -16 951.558 157.643   1
   7 -13 -15 817.642 142.497   1
   7 -13 -15 659.057 119.926   2
   7 -13 -14 344.847 93.6394   2
   7 -13 -14 273.925 100.345   1
   7 -13 -13 2852.71 223.538   2
   7 -13 -13 2949.96 235.822   1
   7  13 -12 64.4289 41.5272   2
   7 -13 -12 58.7878 54.9262   2
   7 -13 -12 145.143 83.7570   1
   7  13 -11 1354.09 116.956   2
   7 -13 -11 1403.16 142.243   2
   7 -13 -11 1300.78 159.009   1
   7 -13 -10 951.558 115.185   2
   7 -13 -10 925.433 128.834   1
   7  13 -10 900.493 96.1498   2
   7 -13  -9 290.819 67.4584   2
   7 -13  -9 220.775 59.3376   2
  -7 -13   9 356.354 67.2915   2
   7 -13  -9 323.630 87.4009   1
   7  13  -9 205.458 50.8355   2
   7 -13  -8 429.800 73.8255   2
   7 -13  -8 408.540 91.3206   1
   7 -13  -8 409.189 70.6167   2
  -7 -13   8 383.221 69.3476   2
   7  13  -8 358.156 61.2409   2
   7 -13  -7 5255.68 281.612   1
   7 -13  -7 5221.63 218.896   2
  -7 -13   7 5917.06 227.085   2
   7  13  -7 5468.32 215.839   2
   7 -13  -7 5392.07 227.260   2
   7  13  -6 673.136 76.9226   2
   7 -13  -6 567.764 75.0867   2
   7 -13  -6 668.121 81.5847   2
  -7 -13   6 681.760 79.8832   2
   7 -13  -6 469.397 99.3049   1
   7 -13  -5 11192.3 289.035   2
  -7 -13   5 11266.7 305.158   2
   7 -13  -5 11035.0 287.199   2
   7 -13  -5 9845.63 377.340   1
   7  13  -5 10894.6 303.025   2
   7 -13  -4 3801.45 156.847   2
   7  13  -4 3789.84 182.905   2
   7 -13  -4 3579.42 152.501   2
  -7 -13   4 3762.79 179.663   2
   7 -13  -3 2155.46 109.574   2
   7  13  -3 2379.22 146.774   2
  -7 -13   3 2534.78 150.533   2
   7  13  -3 2400.84 109.350   1
   7 -13  -3 2301.07 110.415   2
   7  13  -2 827.380 93.9275   2
   7 -13  -2 740.637 55.7002   2
  -7 -13   2 876.681 94.1515   2
   7  13  -2 788.065 70.7468   1
   7  13  -1 2789.04 167.676   2
  -7 -13   1 3183.34 177.924   2
   7  13  -1 3412.68 157.787   1
   7 -13  -1 2341.59 86.6747   2
   7  13   0 14296.4 337.846   1
   7  13   0 13871.5 378.413   2
  -7 -13   0 14321.0 385.644   2
   7  13   1 13365.0 351.138   1
   7  13   1 13584.5 387.683   2
  -7 -13  -1 13876.2 391.974   2
   7  13   2 3044.47 181.940   1
  -7 -13  -2 2771.64 186.092   2
  -7 -13  -3 799.546 106.100   2
   7  13   3 655.805 84.9719   1
  -7 -13  -4 1052.58 129.526   2
  -7 -13  -5 15584.0 468.686   2
  -7 -13  -6 41.0595 54.1803   2
  -7  13  -6 7.08076 8.89530   2
  -7 -13  -7 5122.73 296.135   2
  -7 -13  -8 1492.18 165.588   2
  -7 -13  -9-32.0686 66.5635   2
  -7 -13 -10 2596.86 228.884   2
  -7 -13 -11 2699.32 241.045   2
   7 -15 -16 2163.61 221.491   2
   7 -15 -15 493.569 125.269   1
   7 -15 -15 520.918 112.929   2
   7 -15 -14 949.942 155.199   1
   7 -15 -14 896.038 136.580   2
   7 -15 -13 821.934 142.982   1
   7 -15 -13 740.112 123.731   2
   7 -15 -12-3.72801 64.9802   1
   7 -15 -12 227.129 76.4457   2
   7 -15 -11 1369.95 142.069   2
   7 -15 -11 1479.60 177.315   1
   7 -15 -10 4887.71 299.998   1
   7 -15 -10 5061.05 259.465   2
   7  15 -10 4876.23 212.633   2
   7  15  -9 21.6045 35.7737   2
   7 -15  -9 58.0138 56.4680   2
   7 -15  -9 116.801 82.1951   1
   7 -15  -8 1003.25 137.986   1
   7 -15  -8 1080.18 109.875   2
  -7 -15   8 1173.10 107.454   2
   7 -15  -8 1250.95 117.796   2
   7  15  -8 1118.27 102.239   2
   7 -15  -7 4580.35 211.900   2
  -7 -15   7 4893.63 210.836   2
   7 -15  -7 5083.09 228.823   2
   7 -15  -7 5696.88 314.230   1
   7  15  -7 4671.50 202.394   2
   7  15  -6 2698.47 156.381   2
   7 -15  -6 2749.17 213.427   1
   7 -15  -6 2537.67 153.057   2
  -7 -15   6 2957.00 162.547   2
   7 -15  -6 2575.32 152.873   2
   7 -15  -5 1511.16 162.222   1
   7  15  -5 1043.46 101.972   2
   7 -15  -5 1086.68 95.1594   2
  -7 -15   5 1065.65 100.846   2
   7 -15  -5 1229.85 99.1408   2
   7 -15  -4 4010.56 257.508   1
   7  15  -4 4698.44 207.540   2
   7 -15  -4 4641.07 172.463   2
  -7 -15   4 5035.05 212.945   2
   7 -15  -4 4519.61 171.646   2
   7  15  -3 1333.19 115.004   2
   7 -15  -3 1144.84 74.7817   2
  -7 -15   3 1388.67 118.759   2
   7 -15  -3 1189.81 78.1039   2
   7  15  -2 3732.07 193.920   2
   7 -15  -2 3229.84 110.160   2
  -7 -15   2 4023.56 198.924   2
   7 -15  -2 3341.08 106.180   2
   7  15  -1 3219.23 165.778   1
   7 -15  -1 1371.96 48.0685   2
   7  15  -1 2264.95 158.995   2
  -7 -15   1 2645.31 168.389   2
   7 -15  -1 1364.62 46.4570   2
   7  15   0 305.691 67.1126   2
   7  15   0 347.972 68.1896   1
  -7 -15   0 337.022 68.6306   2
   7  15   1 259.777 68.4709   1
  -7 -15  -1 143.265 54.3121   2
   7  15   2 25469.6 532.527   1
  -7 -15  -2 26672.5 588.262   2
  -7 -15  -3 1362.00 144.635   2
  -7 -15  -4 2570.97 200.782   2
  -7 -15  -5 2922.97 219.121   2
  -7 -15  -6 2195.50 195.586   2
  -7 -15  -7 2255.05 206.524   2
  -7 -15  -8 3344.88 255.725   2
  -7 -15  -9 49.6819 60.3289   2
  -7 -15 -10 1871.67 203.216   2
   7 -17 -15 1074.83 175.911   2
   7 -17 -14 187.964 89.4075   2
   7 -17 -13 2853.15 228.461   2
   7 -17 -13 2918.58 269.610   1
   7 -17 -12 96.6808 63.6613   1
   7 -17 -12 104.867 64.3489   2
   7 -17 -11 3138.96 224.015   2
   7 -17 -11 2764.82 245.169   1
   7 -17 -10 307.127 81.2708   2
   7 -17 -10 411.085 113.695   1
   7 -17  -9 148.517 71.6634   1
   7 -17  -9 209.958 62.2340   2
  -7 -17   8 4475.09 205.890   2
   7 -17  -8 4600.44 294.153   1
   7 -17  -8 4643.72 234.651   2
  -7 -17   7 9786.19 300.606   2
   7 -17  -7 8397.14 393.426   1
   7 -17  -7 9441.90 315.082   2
  -7 -17   6 500.730 77.4790   2
   7 -17  -6 703.157 128.324   1
   7  17  -6 471.238 74.9034   2
   7 -17  -6 529.303 77.5038   2
   7 -17  -5 6620.52 339.604   1
   7  17  -5 6260.47 238.651   2
  -7 -17   5 6731.72 250.577   2
   7 -17  -5 7281.22 239.878   2
  -7 -17   4 447.643 75.7719   2
   7  17  -4 479.715 74.7676   2
   7 -17  -4 453.198 59.9126   2
   7 -17  -4 680.896 124.083   1
   7 -17  -3 504.989 48.6389   2
   7  17  -3 579.414 81.4930   2
   7 -17  -3 541.241 110.976   1
  -7 -17   3 623.081 88.1324   2
   7  17  -2 1517.04 130.695   2
  -7 -17   2 1647.15 133.239   2
   7  17  -1 8708.93 315.112   2
  -7 -17   1 9702.83 330.465   2
  -7 -17   0 689.065 100.715   2
   7  17   1 1308.51 126.552   1
  -7 -17  -1 1571.60 142.555   2
  -7 -17  -2 577.381 100.969   2
  -7 -17  -3 1281.32 144.695   2
  -7 -17  -4 5394.44 299.568   2
  -7 -17  -5 3271.95 237.810   2
  -7 -17  -6-28.1076 63.0775   2
  -7 -17  -7 10278.0 445.945   2
  -7 -17  -8 222.109 79.6043   2
  -7 -17  -9 749.598 139.717   2
   7 -19 -15 190.245 77.6405   2
   7 -19 -14 822.867 139.512   2
   7 -19 -13 21.2748 66.4922   2
   7 -19 -12 253.264 89.1888   2
   7 -19 -11-112.523 87.5625   1
   7 -19 -11 47.3716 59.3894   2
   7 -19 -10 2495.24 198.780   2
   7 -19 -10 2416.25 241.421   1
   7 -19  -9 31.0775 80.8238   1
   7 -19  -9-111.389 70.1526   2
   7 -19  -8 1021.28 151.415   1
   7 -19  -8 1568.86 142.731   2
   7 -19  -7 578.448 135.074   1
   7 -19  -6 1068.16 158.944   1
   7 -19  -5-51.8559 73.0465   1
  -7 -19   5-23.0820 38.0647   2
   7 -19  -4 4370.74 294.078   1
  -7 -19   4 5199.90 227.931   2
   7 -19  -3 405.899 104.756   1
  -7 -19   3 680.799 89.9060   2
  -7 -19   2 2888.71 182.525   2
   7 -19  -2 1685.20 184.698   1
  -7 -19   1 4112.67 222.575   2
  -7 -19   0 862.565 114.486   2
  -7 -19  -1 20.9922 47.4992   2
  -7 -19  -2 6367.77 311.669   2
  -7 -19  -3-0.35324 67.2859   2
  -7 -19  -4 5241.56 305.841   2
  -7 -19  -5 329.757 84.8303   2
  -7 -19  -6 49.3997 62.6574   2
  -7 -19  -7 780.061 134.535   2
  -7 -19  -8 2034.84 220.147   2
   7 -21  -9-76.4375 85.5781   1
   7 -21  -8 2434.37 245.982   1
   7 -21  -7 792.392 138.029   1
   7 -21  -6 267.072 95.4688   1
   7 -21  -5 1750.70 214.807   1
   7 -21  -4 909.178 150.052   1
   7 -21  -3 41.4206 67.4610   1
   7 -21  -2 929.634 139.359   1
   7 -21  -1 1509.50 173.083   1
   7 -21   0-76.2452 69.4159   1
  -7 -21  -1 4967.98 270.065   2
  -7 -21  -2 127.211 78.1658   2
  -7 -21  -3 157.450 80.2029   2
  -7 -21  -4 2062.40 203.191   2
  -7 -21  -5 4117.63 290.659   2
  -7 -21  -6 327.161 103.880   2
  -7 -21  -7 1241.15 174.793   2
   7 -23  -6 80.4407 81.3769   1
   7 -23  -5 70.3136 86.0195   1
   7 -23  -4 2141.47 224.086   1
   7 -23  -3 15.7920 67.5211   1
   7 -23  -2 2426.18 234.614   1
   7 -23  -1 58.5951 67.3859   1
   7 -23   0 212.379 93.0135   1
   7 -23   1 820.414 143.090   1
   8   0 -20 4963.90 327.146   2
   8   0 -19 24.8929 64.6227   2
   8   0 -18 659.696 123.953   2
   8   0 -17 41.3833 56.0341   1
   8   0 -16 1359.55 142.819   1
   8   0 -15-6.59466 44.0489   1
   8   0 -14 4696.04 231.362   1
   8   0 -13-30.0128 40.0521   1
   8   0 -12 12905.3 348.750   1
   8   0 -11-29.1374 37.4190   1
   8   0 -11 107.430 40.7047   2
   8   0 -10 1726.92 128.582   2
   8   0 -10 2126.87 134.624   1
   8   0  -9 12.0506 33.7432   2
   8   0  -9-4.05423 32.9848   1
  -8   0   8 11638.2 313.555   2
   8   0  -8 11762.7 311.525   2
   8   0  -8 12349.8 304.334   1
  -8   0   7-23.1156 33.9506   2
   8   0  -7 65.4695 40.3641   2
  -8   0   6 107789. 865.267   2
   8   0  -6 110472. 876.690   2
  -8   0   5 55.8046 37.9324   2
   8   0  -5 10.1939 31.2301   2
  -8   0   4 477.458 61.9355   2
   8   0  -4 510.029 63.8170   2
  -8   0   3-7.79414 32.4395   2
   8   0  -3 21.9850 26.7373   2
  -8   0   2 134.048 44.5801   2
   8   0  -2 74.0709 35.4890   2
   8   0  -1 103.868 47.6597   2
  -8   0   1 149.396 47.9547   2
  -8   0   0 25908.0 418.302   2
   8   0   0 26466.4 419.494   2
   8   0   1 12.3489 28.1525   2
  -8   0  -1-6.20911 35.0287   2
   8   0   2 38436.7 544.434   2
  -8   0  -2 37875.9 534.418   2
  -8   0  -3 19.6765 34.5556   2
   8   0   3 26.5828 29.5259   2
   8   0   4 2498.16 153.579   2
  -8   0  -4 2501.27 152.281   2
  -8   0  -5-9.02446 37.7361   2
   8   0   5-18.5385 32.9904   2
  -8   0  -6 42810.4 674.464   2
   8   0   6 43164.8 669.255   2
  -8   0  -7 92.3841 58.9535   2
  -8   0  -8 446.555 86.3406   2
  -8   0  -9 2.85983 60.1626   2
  -8   0 -10 10640.6 401.790   2
  -8   0 -11-32.3004 62.7285   2
  -8   0 -12 7010.19 353.910   2
  -8   0 -13 5.90699 61.9885   2
  -8   0 -14 2922.86 246.930   2
  -8   0 -15-13.0454 65.6294   2
   8  -2 -20 18.2958 66.8702   2
   8   2 -20-36.4329 69.5787   2
   8  -2 -19-116.826 89.3861   2
   8   2 -19 14.2676 60.3472   2
   8  -2 -18 132.005 85.7119   2
   8   2 -18-21.5735 57.9436   2
   8  -2 -18 24.0551 56.0717   1
   8  -2 -17 7093.83 372.687   2
   8  -2 -17 7748.28 353.946   1
   8   2 -16 241.953 63.1873   1
   8  -2 -16 186.343 67.3516   1
   8   2 -15 2710.07 173.460   1
   8  -2 -15 2702.91 196.042   1
   8  -2 -14 95.4035 55.5269   1
   8   2 -14 60.1180 37.4732   1
   8   2 -13 2531.88 153.466   1
   8  -2 -13 2299.75 166.224   1
   8   2 -12 79.2168 39.3138   1
   8   2 -12 26.6677 41.7887   2
   8  -2 -12 148.741 74.4770   1
   8  -2 -11 14994.2 383.888   1
   8  -2 -11 14976.0 392.530   2
   8   2 -11 14746.3 384.196   2
   8   2 -11 15887.3 343.503   1
   8  -2 -10 442.199 69.3175   1
   8   2 -10 454.610 59.9073   1
   8  -2 -10 475.010 70.3132   2
   8   2 -10 549.517 75.1878   2
   8  -2  -9 15189.7 365.357   1
   8   2  -9 16530.9 377.679   2
   8   2  -9 16192.2 318.645   1
   8  -2  -9 16723.3 383.479   2
   8   2  -8 310.584 51.7187   1
  -8  -2   8 305.226 58.8187   2
   8  -2  -8 257.441 51.5181   2
   8   2  -8 358.327 58.0460   2
   8  -2  -8 242.707 59.1733   1
  -8   2   7 1466.37 111.270   2
   8  -2  -7 1406.06 107.360   2
   8   2  -7 1400.54 105.679   2
  -8  -2   7 1381.80 109.111   2
  -8   2   6-17.2728 38.0687   2
  -8  -2   6 35.8127 36.4355   2
   8  -2  -6-7.26718 32.5095   2
   8   2  -6-23.1391 36.9156   2
  -8   2   5 4610.90 180.492   2
  -8  -2   5 4787.93 184.887   2
   8  -2  -5 4683.71 181.802   2
   8   2  -5 4558.19 180.331   2
  -8  -2   4 1094.45 87.8915   2
   8  -2  -4 1219.61 91.7104   2
   8   2  -4 1136.54 90.0795   2
  -8   2   4 1191.48 93.3082   2
  -8   2   3 10951.8 258.460   2
  -8  -2   3 10830.9 269.349   2
   8  -2  -3 10998.2 259.310   2
   8   2  -3 10893.9 269.012   2
  -8   2   2 6649.83 199.932   2
  -8  -2   2 6516.21 208.811   2
   8  -2  -2 7039.17 206.579   2
   8   2  -2 6867.60 216.580   2
  -8   2   1 12161.6 269.194   2
  -8  -2   1 11952.9 287.424   2
   8  -2  -1 11910.8 269.083   2
   8   2  -1 11995.5 288.018   2
   8   2   0 6937.48 226.952   2
  -8   2   0 6462.14 204.945   2
  -8  -2   0 6487.33 219.478   2
   8  -2   0 6767.75 208.368   2
   8  -2   1 13195.4 299.253   2
   8   2   1 13238.8 321.837   2
  -8   2  -1 12955.7 296.674   2
  -8  -2  -1 12616.3 313.292   2
   8  -2   2 972.510 86.1817   2
   8   2   2 966.210 91.3975   2
  -8   2  -2 1029.85 90.8025   2
  -8  -2  -2 966.647 94.0736   2
   8  -2   3 18810.5 382.249   2
   8   2   3 18549.2 403.140   2
  -8   2  -3 18201.4 377.402   2
  -8  -2  -3 17549.8 396.293   2
  -8   2  -4 381.795 65.8321   2
  -8  -2  -4 441.559 73.5368   2
   8  -2   4 381.796 62.3103   2
   8   2   4 350.208 66.9126   2
  -8   2  -5 484.058 72.5954   2
  -8  -2  -5 426.354 77.1709   2
   8  -2   5 424.090 70.0977   2
   8   2   5 422.602 66.5594   2
  -8  -2  -6 2031.32 157.806   2
   8   2   6 2017.22 153.248   2
   8  -2   6 2108.86 148.382   2
  -8   2  -6 2086.64 153.349   2
  -8   2  -7 3584.06 204.843   2
  -8  -2  -7 3850.82 224.392   2
   8  -2   7 3915.34 210.878   2
  -8   2  -8 4791.04 242.537   2
  -8  -2  -8 4669.10 249.736   2
  -8   2  -9 5615.90 276.387   2
  -8  -2  -9 5623.12 285.137   2
  -8   2 -10 3979.80 243.597   2
  -8  -2 -10 3890.10 251.106   2
  -8   2 -11 1287.43 152.186   2
  -8  -2 -11 1265.94 153.277   2
  -8   2 -12 153.045 72.1538   2
  -8  -2 -12 239.074 84.9005   2
  -8   2 -13 525.351 106.936   2
  -8  -2 -13 526.074 109.138   2
  -8   2 -14 115.832 81.3364   2
  -8  -2 -14 149.222 87.1735   2
  -8   2 -15 5474.49 339.599   2
   8   4 -21-50.7809 65.1775   2
   8   4 -20 1087.62 155.266   2
   8  -4 -19 1265.27 174.539   2
   8   4 -19 897.769 139.148   2
   8  -4 -19 1520.90 183.380   1
   8  -4 -18 397.539 101.075   2
   8  -4 -18 286.813 88.9621   1
   8  -4 -17-50.5772 80.8645   2
   8  -4 -17 4.68829 56.6341   1
   8  -4 -16 38.6261 66.3422   2
   8  -4 -16 72.7208 52.5839   1
   8  -4 -15 265.382 77.9365   1
   8  -4 -14 8533.66 342.463   1
   8   4 -13 755.853 77.8405   1
   8  -4 -13 722.625 101.262   1
   8  -4 -12 9351.79 336.782   1
   8   4 -12 10216.2 261.729   1
   8   4 -12 9644.91 324.371   2
   8   4 -11 271.785 47.5332   1
   8  -4 -11 310.924 68.0831   2
   8  -4 -11 375.347 70.5812   1
   8   4 -11 318.564 64.9627   2
   8  -4 -10 6535.56 253.326   2
   8   4 -10 6718.54 248.182   2
   8  -4 -10 6036.32 254.469   1
   8   4 -10 6859.62 192.310   1
   8  -4  -9 649.447 89.5128   1
   8   4  -9 565.624 58.1870   1
  -8  -4   9 470.528 73.7574   2
   8  -4  -9 413.585 72.6420   2
   8   4  -9 419.137 71.3295   2
   8   4  -8 25441.8 344.096   1
  -8  -4   8 22382.7 437.886   2
   8  -4  -8 22871.4 436.746   2
   8   4  -8 22165.1 426.060   2
   8  -4  -8 25064.4 497.108   1
  -8  -4   7 423.792 61.2877   2
   8  -4  -7 444.301 61.3138   2
   8   4  -7 433.536 60.9753   2
  -8   4   6 77974.4 747.755   2
  -8  -4   6 77541.4 745.314   2
   8  -4  -6 79640.8 755.285   2
   8   4  -6 78616.4 748.006   2
  -8   4   5 0.44692 30.2732   2
  -8  -4   5 29.8470 34.8279   2
   8  -4  -5 80.8000 38.0063   2
   8   4  -5 32.8128 31.8706   2
  -8   4   4 3278.96 146.311   2
  -8  -4   4 3539.16 159.911   2
   8  -4  -4 3334.16 147.708   2
   8   4  -4 3639.31 163.967   2
  -8   4   3 4845.16 170.282   2
  -8  -4   3 4933.52 186.202   2
   8  -4  -3 5027.81 172.484   2
   8   4  -3 5225.30 191.996   2
  -8   4   2 6339.94 194.229   2
  -8  -4   2 6186.88 213.559   2
   8  -4  -2 6336.16 195.401   2
   8   4  -2 6520.49 220.017   2
  -8   4   1 1714.50 99.5697   2
  -8  -4   1 1761.05 116.193   2
   8  -4  -1 1772.06 104.124   2
   8   4  -1 1770.11 117.231   2
   8   4   0 10386.3 287.239   2
  -8   4   0 10378.9 242.795   2
  -8  -4   0 9665.09 277.786   2
   8  -4   0 10333.8 246.757   2
   8  -4   1 9762.85 251.245   2
   8   4   1 9949.66 286.454   2
  -8   4  -1 9753.10 243.329   2
  -8  -4  -1 9512.57 285.346   2
   8  -4   2 31430.8 455.132   2
   8   4   2 32255.6 536.647   2
  -8   4  -2 32390.1 461.937   2
  -8  -4  -2 30862.9 524.602   2
  -8  -4  -3 4.34276 37.3660   2
   8  -4   3 10.4727 27.7999   2
   8   4   3 19.5777 36.3823   2
  -8   4  -3 77.1735 40.9745   2
   8  -4   4 5574.70 209.693   2
   8   4   4 5406.91 236.965   2
  -8   4  -4 5402.99 207.675   2
  -8  -4  -4 5355.84 234.468   2
   8   4   5 4047.47 210.743   2
   8  -4   5 4157.58 188.633   2
  -8   4  -5 4238.35 192.337   2
  -8  -4  -5 4057.39 212.662   2
  -8  -4  -6 8259.88 318.330   2
   8  -4   6 7903.67 275.462   2
  -8   4  -6 7778.86 269.201   2
  -8   4  -7 129.977 49.2902   2
  -8  -4  -7 115.518 55.8627   2
   8  -4   7 92.7691 48.0708   2
  -8  -4  -8 1927.10 169.850   2
   8  -4   8 2116.92 158.758   2
  -8   4  -8 2032.99 155.106   2
  -8   4  -9 43.2485 51.8487   2
  -8  -4  -9-4.54053 54.4960   2
  -8   4 -10 1961.83 165.048   2
  -8  -4 -10 2028.04 189.951   2
  -8   4 -11 1002.60 126.792   2
  -8  -4 -11 1025.06 142.997   2
  -8   4 -12 7254.68 341.909   2
  -8  -4 -12 7620.63 381.810   2
  -8   4 -13 205.301 76.6588   2
  -8  -4 -13 137.187 73.3590   2
  -8   4 -14 1575.12 174.207   2
  -8  -4 -14 1502.28 191.129   2
  -8   4 -15 150.721 76.8359   2
  -8   4 -16 761.690 135.039   2
   8   6 -21 767.380 138.996   2
   8   6 -20-8.43826 70.4776   2
   8  -6 -20 44.6502 70.6820   1
   8  -6 -19 577.465 137.583   2
   8   6 -19 367.262 89.4970   2
   8  -6 -19 518.427 129.620   1
   8  -6 -18 84.3677 82.6967   2
   8  -6 -18 95.1164 79.0653   1
   8  -6 -17 723.679 127.787   2
   8  -6 -17 667.783 118.038   1
   8  -6 -16 670.515 112.020   1
   8  -6 -16 603.930 120.802   2
   8  -6 -15 7792.33 370.411   2
   8  -6 -15 7336.22 343.368   1
   8  -6 -14 62.4499 54.6227   1
   8  -6 -13 297.557 77.9808   1
   8  -6 -12-59.2283 59.0400   1
   8   6 -12 95.4024 43.3585   2
   8   6 -11 576.443 53.4925   1
   8   6 -11 573.141 88.4304   2
   8  -6 -11 442.696 80.6597   1
   8  -6 -10 299.646 74.2875   1
   8  -6 -10 229.537 59.6598   2
   8   6 -10 197.525 56.6930   2
   8   6 -10 192.613 30.8871   1
   8  -6  -9 54501.0 780.084   1
  -8  -6   9 56424.6 709.491   2
   8  -6  -9 56031.3 716.606   2
   8   6  -9 56784.4 701.083   2
   8   6  -9 52966.4 406.857   1
   8  -6  -8 567.733 83.1629   1
   8   6  -8 762.724 49.4844   1
  -8  -6   8 924.381 91.4421   2
   8  -6  -8 922.151 95.6254   2
   8   6  -8 1043.11 94.0331   2
  -8  -6   7 463.676 68.0444   2
   8  -6  -7 387.896 68.0257   2
   8   6  -7 476.910 71.8081   2
   8  -6  -6 2875.90 146.060   2
  -8  -6   6 2758.39 147.728   2
   8   6  -6 2808.18 146.975   2
   8  -6  -5 18763.1 362.264   2
  -8  -6   5 18388.3 369.045   2
   8   6  -5 19161.2 379.695   2
  -8   6   4 435.284 59.9859   2
   8  -6  -4 500.067 61.0188   2
  -8  -6   4 466.377 65.4423   2
   8   6  -4 447.551 62.4663   2
   8  -6  -3 33561.8 442.598   2
  -8   6   3 33730.2 446.860   2
  -8  -6   3 34163.7 502.393   2
   8   6  -3 34116.5 508.393   2
   8   6  -2 165.326 46.5860   2
  -8   6   2 202.126 40.8397   2
  -8  -6   2 125.658 43.6892   2
   8  -6  -2 141.463 34.5262   2
   8   6  -1 584.782 68.8944   2
  -8   6   1 654.363 61.2200   2
  -8  -6   1 548.600 72.8751   2
   8  -6  -1 586.646 58.8323   2
   8  -6   0 533.590 56.5765   2
   8   6   0 512.858 71.0350   2
  -8   6   0 501.638 57.3196   2
  -8  -6   0 469.213 70.7495   2
   8  -6   1 12011.7 266.992   2
   8   6   1 12344.2 333.990   2
  -8   6  -1 12521.9 263.477   2
  -8  -6  -1 11981.5 324.992   2
  -8  -6  -2 206.356 63.6069   2
   8  -6   2 107.783 30.6730   2
   8   6   2 241.615 61.4460   2
  -8   6  -2 163.321 37.0482   2
   8  -6   3 30636.4 446.176   2
   8   6   3 31127.2 558.222   2
  -8   6  -3 31445.2 451.035   2
  -8  -6  -3 30185.8 551.513   2
  -8  -6  -4 25.6628 36.9613   2
   8   6   4 77.9474 53.1642   2
   8  -6   4 40.6267 31.3123   2
  -8   6  -4 13.1474 27.0948   2
   8  -6   5 15726.7 353.250   2
  -8   6  -5 16153.4 352.847   2
  -8  -6  -5 15728.5 429.905   2
  -8   6  -6 543.288 71.7249   2
  -8  -6  -6 589.924 97.7614   2
   8  -6   6 597.706 78.8017   2
  -8  -6  -7 5467.75 278.161   2
   8  -6   7 5237.05 227.097   2
  -8   6  -7 5228.69 222.700   2
   8  -6   8 317.576 68.7101   2
  -8   6  -8 325.424 70.9875   2
  -8  -6  -8 307.105 84.9811   2
  -8  -6  -9 9708.03 396.749   2
   8  -6   9 9790.07 337.987   2
  -8   6  -9 9701.23 328.802   2
  -8   6 -10-30.4374 54.0288   2
  -8  -6 -10 29.8775 61.3433   2
  -8  -6 -11 3106.27 245.120   2
  -8   6 -11 3057.17 203.237   2
  -8   6 -12 236.234 71.0579   2
  -8  -6 -12 313.714 94.5101   2
  -8   6 -13-6.01673 48.8321   2
  -8  -6 -13-92.9797 81.9872   2
  -8   6 -14 132.033 78.7828   2
  -8   6 -15 4034.14 271.474   2
   8   8 -21 82.1429 58.5310   2
   8   8 -20 1312.93 165.714   2
   8   8 -19 42.5502 62.3086   2
   8  -8 -19-4.91419 71.7328   1
   8  -8 -18 1616.10 193.047   1
   8  -8 -18 2005.60 221.659   2
   8  -8 -17-53.8280 61.0565   2
   8  -8 -17 12.0958 58.1400   1
   8  -8 -16 48.2992 67.1631   1
   8  -8 -16 95.0581 63.2072   2
   8  -8 -15 134.966 66.9943   2
   8  -8 -15 100.780 72.4878   1
   8  -8 -14 570.877 110.460   2
   8  -8 -14 523.607 109.490   1
   8  -8 -13 1887.49 172.230   1
   8  -8 -12 10559.9 392.662   1
   8   8 -12 11066.9 349.635   2
   8  -8 -11 106.252 61.9447   1
   8   8 -11 14.7841 38.0398   2
   8  -8 -10 629.865 101.585   1
   8  -8 -10 767.603 95.7779   2
   8   8 -10 735.946 88.5092   2
  -8  -8   9 155.941 53.7590   2
   8  -8  -9 135.062 49.6572   2
   8   8  -9 152.298 48.7416   2
   8  -8  -9 96.4638 60.5251   1
  -8  -8   8 22992.5 446.358   2
   8  -8  -8 22602.6 447.576   2
   8  -8  -8 23722.3 547.578   1
   8   8  -8 23172.7 446.758   2
   8  -8  -7 1253.44 103.485   2
  -8  -8   7 1184.62 102.498   2
   8   8  -7 1267.95 102.913   2
   8  -8  -6 18939.7 382.768   2
  -8  -8   6 18936.7 389.429   2
   8   8  -6 18890.6 395.087   2
   8  -8  -5 423.609 60.3842   2
  -8  -8   5 338.626 58.4341   2
   8   8  -5 405.258 61.5928   2
   8  -8  -4 7722.13 224.250   2
  -8  -8   4 7744.68 250.890   2
   8   8  -4 7694.87 248.463   2
   8   8  -3 400.574 62.6747   2
  -8   8   3 349.134 50.0666   2
   8  -8  -3 427.433 55.8453   2
  -8  -8   3 389.407 61.4413   2
   8   8  -2 3730.15 177.659   2
  -8   8   2 3543.18 146.161   2
  -8  -8   2 3662.74 177.843   2
   8  -8  -2 3614.05 141.283   2
   8   8  -1 91.6867 42.3805   2
  -8   8   1 95.3097 31.5083   2
  -8  -8   1 55.7395 36.2099   2
   8  -8  -1 82.1271 29.7978   2
   8   8   0 12431.4 338.336   2
  -8   8   0 12856.3 256.201   2
  -8  -8   0 12353.1 332.929   2
   8  -8   0 12273.2 249.575   2
   8  -8   1 25.3044 21.6254   2
   8   8   1 4.76266 37.6490   2
   8   8   1 17.8033 28.7573   1
  -8   8  -1 25.6999 27.5789   2
  -8  -8  -1 10.4197 37.9287   2
   8  -8   2 13809.6 274.601   2
   8   8   2 12982.1 336.304   1
   8   8   2 13673.0 372.697   2
  -8   8  -2 13991.1 273.258   2
  -8  -8  -2 13292.3 374.590   2
   8   8   3 2297.44 149.676   1
   8  -8   3 2367.53 117.908   2
   8   8   3 2458.16 168.913   2
  -8   8  -3 2502.24 117.932   2
  -8  -8  -3 2354.76 161.860   2
   8   8   4 8669.37 305.402   1
   8  -8   4 8141.54 231.660   2
  -8   8  -4 8401.21 228.353   2
  -8  -8  -4 8649.25 318.900   2
   8  -8   5 4033.56 170.919   2
  -8   8  -5 3792.85 161.021   2
  -8  -8  -5 3963.11 226.133   2
  -8  -8  -6 3533.64 226.244   2
  -8   8  -6 3259.87 157.797   2
   8  -8   6 3355.22 166.233   2
   8  -8   7 218.780 57.6086   2
  -8  -8  -7 76.3986 64.0901   2
  -8   8  -7 45.8919 30.0451   2
  -8  -8  -8 2004.05 178.916   2
   8  -8   8 2288.35 152.343   2
  -8   8  -8 2174.87 144.109   2
  -8  -8  -9 12370.4 456.046   2
  -8   8  -9 12025.0 347.558   2
   8  -8   9 12355.5 367.015   2
  -8   8 -10 696.363 96.9584   2
  -8  -8 -10 717.297 130.766   2
  -8   8 -11 141.388 53.3565   2
  -8  -8 -11 214.403 84.0004   2
  -8  -8 -12 3855.70 284.061   2
  -8   8 -12 3544.07 218.382   2
  -8   8 -13 79.7835 42.8079   2
   8  10 -20 215.107 78.7751   2
   8  10 -19-39.1015 56.4428   2
   8 -10 -18 974.167 160.262   2
   8 -10 -18 805.073 147.829   1
   8 -10 -17 2466.60 238.371   1
   8 -10 -17 2705.93 244.976   2
   8 -10 -16 280.672 95.4586   2
   8 -10 -16 233.319 87.2739   1
   8 -10 -15 3752.38 266.467   1
   8 -10 -15 3828.73 267.142   2
   8 -10 -14 633.081 117.888   2
   8 -10 -14 535.092 108.724   1
   8 -10 -13 602.455 113.347   2
   8 -10 -13 577.223 107.333   1
   8 -10 -12 547.815 102.699   1
   8 -10 -12 812.925 119.163   2
   8  10 -12 739.573 94.9979   2
   8 -10 -11 7430.24 335.235   1
   8  10 -11 7364.82 281.627   2
   8 -10 -10 256.265 70.9365   1
   8  10 -10 276.665 59.0315   2
  -8 -10   9 7754.41 273.832   2
   8  10  -9 7563.81 267.227   2
   8 -10  -9 7408.67 273.558   2
   8 -10  -9 7415.31 326.485   1
   8 -10  -8 1060.80 101.876   2
  -8 -10   8 1107.92 105.602   2
   8 -10  -8 1150.69 129.981   1
   8  10  -8 1092.31 103.732   2
   8 -10  -7 2158.98 141.429   2
  -8 -10   7 2210.66 138.553   2
   8  10  -7 2143.50 138.172   2
   8 -10  -7 1780.08 159.856   1
   8 -10  -6 406.259 61.1263   2
  -8 -10   6 366.986 62.4108   2
   8  10  -6 383.470 62.2182   2
   8  10  -5 2586.81 79.5343   1
   8 -10  -5 2862.34 146.683   2
  -8 -10   5 3225.08 165.643   2
   8  10  -5 3330.29 170.926   2
   8  10  -4 140.268 47.5439   2
   8  10  -4 147.684 26.2461   1
   8 -10  -4 196.802 40.5827   2
  -8 -10   4 236.924 50.2494   2
   8  10  -3 28338.5 357.454   1
   8 -10  -3 27297.2 400.918   2
  -8 -10   3 27852.1 486.633   2
   8  10  -3 28075.6 500.367   2
   8  10  -2 600.306 85.9934   2
   8  10  -2 624.342 63.4632   1
  -8 -10   2 579.197 76.3095   2
   8 -10  -2 579.729 57.0828   2
   8  10  -1 7004.02 256.199   2
  -8  10   1 7503.84 193.799   2
   8  10  -1 6975.42 211.302   1
  -8 -10   1 7305.94 262.873   2
   8 -10  -1 7327.37 187.400   2
   8 -10   0 57.4136 22.6904   2
   8  10   0 93.9166 50.0241   2
  -8  10   0 72.2734 28.9865   2
   8  10   0 98.1797 39.3333   1
  -8 -10   0 114.118 53.7568   2
   8 -10   1 2558.02 108.119   2
   8  10   1 2894.64 179.063   2
   8  10   1 2850.26 155.755   1
  -8  10  -1 2679.68 110.040   2
  -8 -10  -1 2915.01 182.558   2
  -8 -10  -2 387.628 68.9427   2
   8 -10   2 400.434 45.5672   2
   8  10   2 353.446 71.4801   2
  -8  10  -2 471.064 48.6153   2
   8  10   2 372.456 64.4239   1
   8 -10   3 28390.4 374.645   2
   8  10   3 28200.8 534.048   1
  -8  10  -3 27758.8 362.200   2
  -8 -10  -3 28620.4 580.713   2
   8  10   4 1253.64 125.688   1
   8 -10   4 1302.59 87.0089   2
  -8  10  -4 1188.01 77.5097   2
  -8 -10  -4 1269.64 130.831   2
  -8  10  -5 13894.3 277.371   2
   8 -10   5 14218.1 295.759   2
  -8 -10  -5 13500.0 426.341   2
   8 -10   6 170.749 48.4884   2
  -8 -10  -6 130.278 65.9227   2
  -8  10  -6 110.380 37.3956   2
  -8 -10  -7 9812.44 393.675   2
  -8  10  -7 9125.84 252.491   2
   8 -10   7 9752.28 276.417   2
   8 -10   8 1414.69 114.748   2
  -8 -10  -8 1488.57 163.921   2
  -8  10  -8 1423.47 105.775   2
  -8 -10  -9 13056.8 489.337   2
  -8  10  -9 12188.4 325.272   2
  -8 -10 -10 458.443 96.8973   2
  -8  10 -10 454.924 69.1760   2
  -8 -10 -11 1861.17 193.760   2
  -8 -10 -12 983.711 160.231   2
   8  12 -18 751.229 119.043   2
   8 -12 -17 613.978 134.681   2
   8 -12 -17 450.013 114.814   1
   8 -12 -16 289.133 87.4634   2
   8 -12 -16 148.183 76.1152   1
   8 -12 -15 48.0547 58.4461   2
   8 -12 -15 106.479 64.5022   1
   8 -12 -14 3419.43 259.856   1
   8 -12 -14 3220.70 240.913   2
   8 -12 -13 266.515 79.3130   2
   8 -12 -13 277.256 85.4264   1
   8 -12 -12 6605.28 343.901   1
   8  12 -12 6225.97 263.294   2
   8 -12 -12 6680.75 314.731   2
   8 -12 -11 9.52905 47.8680   2
   8 -12 -11 54.1891 56.1041   1
   8  12 -11-23.6897 40.1033   2
   8 -12 -10 687.872 103.108   2
   8  12 -10 847.000 97.5884   2
   8 -12 -10 631.257 117.666   1
   8 -12  -9 689.489 95.4537   2
  -8 -12   9 705.538 91.7389   2
   8 -12  -9 546.672 83.0008   2
   8 -12  -9 533.217 101.272   1
   8  12  -9 748.259 91.8639   2
   8 -12  -8 8793.48 369.213   1
  -8 -12   8 8735.90 288.035   2
   8 -12  -8 8074.43 281.484   2
   8  12  -8 8815.01 288.422   2
   8 -12  -7 23.6454 45.9025   2
  -8 -12   7 8.95915 36.7963   2
   8  12  -7-11.1748 31.8222   2
   8 -12  -7 19.6590 56.4454   1
   8 -12  -6 15841.0 366.077   2
  -8 -12   6 16460.6 385.796   2
   8  12  -6 16274.7 388.845   2
   8  12  -5 176.518 48.8569   2
   8 -12  -5 197.587 45.3320   2
  -8 -12   5 174.586 52.4880   2
   8  12  -4 62.8035 36.0735   2
   8  12  -4 99.1642 24.4533   1
   8 -12  -4 108.368 33.6382   2
  -8 -12   4 81.1842 41.7150   2
   8  12  -3 1980.19 140.570   2
   8  12  -3 2041.28 100.052   1
   8 -12  -3 1865.34 103.529   2
  -8 -12   3 2007.62 138.273   2
   8  12  -2 986.780 102.764   2
  -8 -12   2 1009.11 104.127   2
   8 -12  -2 978.031 71.7934   2
   8  12  -2 889.937 73.3675   1
   8  12  -1 5669.21 248.726   2
  -8 -12   1 5544.36 241.224   2
   8 -12  -1 4973.88 145.144   2
   8  12  -1 6104.29 211.818   1
   8 -12   0 23838.8 300.256   2
   8  12   0 26674.6 539.224   2
   8  12   0 27315.1 472.918   1
  -8 -12   0 26767.6 539.908   2
   8 -12   1 900.755 55.3767   2
   8  12   1 1078.49 101.054   1
  -8 -12  -1 1070.84 119.082   2
  -8  12  -2 8906.87 172.896   2
   8 -12   2 8578.89 169.179   2
   8  12   2 9226.10 305.695   1
  -8 -12  -2 9551.07 339.740   2
  -8  12  -3 3372.77 105.201   2
   8 -12   3 3198.89 107.719   2
   8  12   3 3461.65 195.102   1
  -8 -12  -3 3968.11 227.240   2
  -8  12  -4 6332.37 150.609   2
   8 -12   4 6369.52 160.108   2
  -8 -12  -4 7506.49 324.261   2
  -8  12  -5 1772.04 82.6433   2
   8 -12   5 1741.15 89.6308   2
  -8 -12  -5 1800.06 162.227   2
  -8  12  -6 5862.91 164.530   2
  -8 -12  -6 6415.74 321.507   2
  -8  12  -7 3761.44 138.092   2
  -8 -12  -7 3958.59 256.792   2
  -8 -12  -8 690.003 119.293   2
  -8 -12  -9 763.355 130.382   2
  -8 -12 -10 3348.53 261.760   2
  -8 -12 -11 852.982 146.352   2
   8 -14 -17 761.140 149.122   2
   8 -14 -16 461.591 109.972   2
   8 -14 -15 3529.39 279.344   1
   8 -14 -15 3573.11 267.832   2
   8 -14 -14 247.708 73.1921   2
   8 -14 -14 248.544 98.7082   1
   8 -14 -13 1794.51 172.980   2
   8 -14 -13 1569.90 187.865   1
   8 -14 -12 159.987 72.0938   2
   8 -14 -12 26.6149 62.1805   1
   8 -14 -11 3766.25 270.074   1
   8  14 -11 3736.16 203.341   2
   8 -14 -11 3789.72 236.559   2
   8 -14 -10 176.340 60.1001   2
   8 -14 -10-7.61666 63.3762   1
   8  14 -10 79.4871 40.9614   2
  -8 -14   9 5411.51 237.381   2
   8 -14  -9 4987.01 236.547   2
   8 -14  -9 5139.36 304.137   1
   8  14  -9 5158.99 229.044   2
   8 -14  -9 5225.03 252.164   2
   8  14  -8 147.619 45.2486   2
   8 -14  -8 179.550 62.8634   2
  -8 -14   8 153.842 49.9238   2
   8 -14  -8 151.175 52.4103   2
   8 -14  -8 412.066 104.402   1
   8 -14  -7 4201.50 274.373   1
   8 -14  -7 4573.01 211.619   2
  -8 -14   7 4580.36 209.930   2
   8  14  -7 4371.22 204.004   2
   8 -14  -7 4575.53 214.156   2
  -8 -14   6 3113.81 174.626   2
   8 -14  -6 2839.98 159.204   2
   8 -14  -6 2147.89 195.189   1
   8 -14  -6 2554.28 154.907   2
   8  14  -6 2812.15 162.926   2
   8  14  -5 5478.72 234.620   2
   8 -14  -5 5112.42 204.178   2
  -8 -14   5 5731.98 236.445   2
   8 -14  -5 5195.45 203.456   2
   8 -14  -4 727.372 74.5093   2
   8  14  -4 745.000 88.9184   2
   8 -14  -4 685.163 70.0147   2
  -8 -14   4 794.582 93.9609   2
   8 -14  -3 5639.21 179.436   2
   8  14  -3 5667.33 242.400   2
   8  14  -3 6359.19 188.215   1
  -8 -14   3 5937.73 247.050   2
   8 -14  -3 5472.53 170.999   2
   8  14  -2 286.814 51.6247   1
   8  14  -2 215.643 51.8292   2
  -8 -14   2 362.189 70.7890   2
   8 -14  -2 159.694 29.5941   2
   8  14  -1 1537.71 133.972   2
  -8 -14   1 1383.76 124.624   2
   8  14  -1 1446.42 107.887   1
   8 -14  -1 1291.40 65.6488   2
   8  14   0 6046.08 232.242   1
  -8 -14   0 6675.63 280.399   2
   8 -14   0 4335.48 99.4468   2
   8  14   1 1281.65 125.277   1
  -8 -14  -1 1049.70 123.825   2
   8  14   2 560.815 91.8296   1
  -8 -14  -2 544.482 99.2190   2
  -8 -14  -3 19534.2 523.034   2
  -8 -14  -4 1278.64 145.930   2
  -8 -14  -5 2396.46 198.970   2
  -8 -14  -6 910.873 130.786   2
  -8 -14  -7 1050.50 141.977   2
  -8 -14  -8 282.766 91.8059   2
  -8 -14  -9 4937.88 314.856   2
  -8 -14 -10 72.9244 76.9276   2
   8 -16 -16 1365.85 173.885   2
   8 -16 -15 1592.28 185.408   2
   8 -16 -14 1106.63 164.196   1
   8 -16 -14 1063.59 147.906   2
   8 -16 -13 330.015 108.067   1
   8 -16 -13 393.852 100.500   2
   8 -16 -12 4619.50 277.411   2
   8 -16 -12 4515.71 316.262   1
   8 -16 -11 37.5148 73.8342   1
   8 -16 -11 18.1824 56.4370   2
   8 -16 -10 2519.86 227.959   1
   8 -16 -10 2784.26 200.707   2
   8 -16  -9 161.475 63.6755   2
  -8 -16   9 41.7730 44.2346   2
   8 -16  -9 1.43220 58.5999   1
  -8 -16   8 11138.2 340.820   2
   8 -16  -8 10973.9 357.661   2
   8 -16  -8 11614.7 474.088   1
   8 -16  -8 11058.8 363.331   2
   8  16  -8 10543.1 323.289   2
   8 -16  -7 172.920 55.0476   2
   8  16  -7 182.465 48.7434   2
  -8 -16   7 196.330 54.2178   2
   8 -16  -7 121.096 56.2165   2
   8 -16  -7 207.378 96.7584   1
   8  16  -6 7623.88 279.327   2
   8 -16  -6 8255.96 392.063   1
  -8 -16   6 7952.70 284.368   2
   8 -16  -6 8037.58 276.285   2
   8 -16  -6 7931.38 271.351   2
   8 -16  -5 365.707 63.5993   2
   8  16  -5 455.659 72.0923   2
   8 -16  -5 371.069 91.6835   1
  -8 -16   5 524.709 82.5670   2
   8 -16  -5 325.386 55.6759   2
   8  16  -4 856.217 99.5817   2
   8 -16  -4 858.768 76.0859   2
  -8 -16   4 747.635 89.0066   2
   8 -16  -4 947.026 84.1873   2
   8  16  -3 837.868 94.6812   2
   8 -16  -3 841.931 65.4617   2
   8 -16  -3 878.911 69.0725   2
  -8 -16   3 1014.36 107.090   2
   8 -16  -2 2769.22 100.122   2
  -8 -16   2 3929.55 215.143   2
   8  16  -1 192.813 53.4403   1
  -8 -16   1 141.991 49.2136   2
  -8 -16   0 10754.4 373.780   2
   8  16   0 10112.6 318.146   1
   8  16   1 5370.78 244.675   1
  -8 -16  -1 6273.87 291.801   2
  -8 -16  -2 832.257 119.777   2
  -8 -16  -3 581.625 106.865   2
  -8 -16  -4 620.645 114.127   2
  -8 -16  -5 681.539 120.141   2
  -8 -16  -6 15018.1 534.824   2
  -8 -16  -7 383.959 98.8639   2
  -8 -16  -8 1887.91 203.316   2
  -8 -16  -9 467.669 111.276   2
   8 -18 -15 915.221 151.056   2
   8 -18 -14 643.314 128.600   2
   8 -18 -13 2538.90 216.934   2
   8 -18 -12 751.903 145.845   1
   8 -18 -12 981.891 144.049   2
   8 -18 -11 282.132 89.5055   2
   8 -18 -11 420.627 115.322   1
   8 -18 -10 51.7390 69.5216   1
   8 -18 -10 144.557 71.9064   2
   8 -18  -9 7965.85 412.354   1
   8 -18  -9 8113.77 335.926   2
  -8 -18   8 301.024 65.0672   2
   8 -18  -8 260.714 67.5126   2
   8 -18  -8 203.555 90.2211   1
   8 -18  -7 112.339 88.2367   1
  -8 -18   7 145.333 51.6017   2
   8 -18  -7-60.4154 44.4566   2
  -8 -18   6 4263.83 211.805   2
   8 -18  -6 4496.42 206.187   2
   8 -18  -6 3718.99 278.885   1
   8 -18  -5 2326.08 221.741   1
  -8 -18   5 2362.23 160.432   2
   8 -18  -4 437.045 115.199   1
  -8 -18   4 493.485 86.2318   2
  -8 -18   3 9240.57 326.948   2
   8 -18  -3 7623.14 382.213   1
  -8 -18   2 884.184 105.628   2
  -8 -18   1 23.2702 45.4929   2
  -8 -18   0 1287.02 137.395   2
  -8 -18  -1 1690.23 165.677   2
  -8 -18  -2 796.344 122.430   2
  -8 -18  -3 8321.75 375.306   2
  -8 -18  -4 430.927 108.354   2
  -8 -18  -5 1292.59 170.939   2
  -8 -18  -6 1090.41 163.325   2
  -8 -18  -7 1884.77 205.029   2
  -8 -18  -8 914.646 157.945   2
   8 -20  -9 429.548 126.339   1
   8 -20  -8 221.872 102.099   1
   8 -20  -7 95.3833 76.6292   1
   8 -20  -6 2248.99 245.295   1
   8 -20  -5 115.464 83.4005   1
   8 -20  -4 2872.76 262.876   1
   8 -20  -3 124.304 76.4706   1
  -8 -20   3 367.571 77.7323   2
  -8 -20   2 3431.04 210.637   2
   8 -20  -2 2616.52 232.869   1
  -8 -20   1 71.5526 49.7609   2
  -8 -20   0 6343.29 303.398   2
  -8 -20  -1 791.918 122.900   2
  -8 -20  -2 1868.41 177.386   2
  -8 -20  -3 74.9475 66.7948   2
  -8 -20  -4 1901.96 200.388   2
  -8 -20  -5 1232.78 164.121   2
  -8 -20  -6 3585.46 281.853   2
   8 -22  -6 383.027 129.590   1
   8 -22  -5 2319.56 254.920   1
   8 -22  -4 232.052 92.5306   1
   8 -22  -3 198.572 92.5346   1
   8 -22  -2 377.998 109.504   1
   8 -22  -1 1317.16 178.747   1
   8 -22   0 196.969 88.4049   1
   8 -22   1 1206.48 168.905   1
   9  -1 -20 57.8158 77.0047   2
   9   1 -20-79.9314 65.7596   2
   9  -1 -19 382.649 101.701   2
   9   1 -19 468.658 112.640   2
   9  -1 -19 675.191 119.925   1
   9  -1 -18 1061.57 133.031   1
   9   1 -17 191.806 64.4530   1
   9  -1 -17 74.1552 50.6599   1
   9  -1 -16 1623.91 159.431   1
   9   1 -16 1613.06 146.184   1
   9  -1 -15 964.101 113.665   1
   9   1 -15 946.351 109.679   1
   9   1 -14 2137.97 155.376   1
   9  -1 -14 1993.76 158.993   1
   9   1 -13 5389.84 233.601   1
   9  -1 -13 5115.82 240.760   1
   9  -1 -12 3196.45 189.000   1
   9   1 -12 3210.50 175.219   1
   9   1 -11 876.319 91.2637   1
   9  -1 -11 929.231 101.438   2
   9   1 -11 1001.61 103.506   2
   9  -1 -11 736.300 91.8156   1
   9  -1 -10 9203.66 299.825   2
   9   1 -10 9196.10 301.152   2
   9   1 -10 9116.29 271.739   1
   9  -1 -10 9313.11 298.222   1
  -9  -1   9 11019.4 318.596   2
   9  -1  -9 10637.9 314.569   2
   9   1  -9 10800.0 313.760   2
   9   1  -9 11433.2 301.359   1
   9  -1  -9 10507.7 308.883   1
  -9   1   8 375.741 67.8812   2
  -9  -1   8 421.930 70.8561   2
   9  -1  -8 335.447 62.5221   2
   9   1  -8 353.607 61.8819   2
  -9   1   7 16565.4 370.854   2
  -9  -1   7 16001.6 365.389   2
   9  -1  -7 16506.0 366.706   2
   9   1  -7 16361.5 367.573   2
  -9   1   6 45.8436 35.9908   2
  -9  -1   6 46.8725 42.2968   2
   9  -1  -6 26.8250 29.5507   2
   9   1  -6 42.0974 36.0806   2
  -9   1   5 17939.2 360.211   2
  -9  -1   5 18186.1 372.625   2
   9  -1  -5 18937.6 373.118   2
   9   1  -5 18888.7 374.755   2
  -9   1   4 8848.11 247.114   2
  -9  -1   4 8564.52 253.709   2
   9  -1  -4 9185.69 255.603   2
   9   1  -4 8763.71 257.724   2
  -9   1   3 1092.89 94.0851   2
  -9  -1   3 740.464 77.3325   2
   9  -1  -3 1047.09 93.6754   2
   9   1  -3 969.875 87.6748   2
  -9   1   2 42280.7 541.686   2
  -9  -1   2 42278.3 552.020   2
   9  -1  -2 43570.1 554.487   2
   9   1  -2 43407.2 565.258   2
  -9   1   1 12757.9 299.603   2
  -9  -1   1 12774.0 311.916   2
   9  -1  -1 12980.4 310.134   2
   9   1  -1 13327.4 318.364   2
  -9   1   0 2591.66 138.594   2
  -9  -1   0 2489.08 144.775   2
   9  -1   0 2640.85 139.189   2
   9   1   0 2619.36 145.572   2
   9  -1   1 38203.8 551.262   2
   9   1   1 38513.7 569.194   2
  -9   1  -1 37623.6 543.581   2
  -9  -1  -1 36915.1 556.190   2
   9  -1   2 6437.77 235.134   2
   9   1   2 6203.39 236.002   2
  -9   1  -2 6190.20 232.317   2
  -9  -1  -2 6153.41 235.319   2
  -9  -1  -3 118.088 49.7747   2
   9  -1   3 93.0064 41.2142   2
   9   1   3 106.864 49.2444   2
  -9   1  -3 89.9455 42.1756   2
   9  -1   4 1149.39 108.110   2
   9   1   4 1093.70 110.277   2
  -9   1  -4 1163.29 110.249   2
  -9  -1  -4 1088.34 112.560   2
   9   1   5 13209.4 378.914   2
   9  -1   5 13545.6 376.057   2
  -9   1  -5 13277.3 372.585   2
  -9  -1  -5 12853.8 377.302   2
   9  -1   6 10011.2 334.396   2
  -9   1  -6 9936.43 335.717   2
  -9  -1  -6 9705.91 341.409   2
  -9   1  -7 146.559 60.9317   2
  -9  -1  -7 191.346 66.7065   2
  -9  -1  -8 5582.12 280.760   2
  -9   1  -8 5510.71 272.821   2
  -9   1  -9 62.0230 70.3978   2
  -9  -1  -9 7.93950 50.9442   2
  -9   1 -10 477.490 94.4992   2
  -9  -1 -10 448.380 96.6967   2
  -9   1 -11 1101.45 146.623   2
  -9  -1 -11 1045.69 143.103   2
  -9   1 -12 82.1707 74.1666   2
  -9  -1 -12-78.4490 81.4645   2
  -9   1 -13 3889.83 278.444   2
  -9  -1 -13 3823.52 283.973   2
  -9   1 -14 1568.38 238.205   2
  -9  -1 -14 761.332 147.866   2
   9  -3 -20 980.993 155.026   2
   9   3 -20 794.942 133.634   2
   9  -3 -20 895.618 148.028   1
   9  -3 -19 290.813 108.944   2
   9  -3 -19 256.126 85.5674   1
   9  -3 -18 234.426 96.9021   2
   9  -3 -18 222.670 83.0823   1
   9  -3 -17 163.624 78.2757   1
   9   3 -16 4142.34 217.878   1
   9  -3 -16 3669.95 237.388   1
   9  -3 -15 80.0352 55.5794   1
   9   3 -15 14.0172 36.3145   1
   9   3 -14 2413.53 150.209   1
   9  -3 -14 2260.07 179.760   1
   9  -3 -13 8390.15 328.776   1
   9   3 -13 8760.23 271.584   1
   9   3 -12 156.029 47.6923   1
   9  -3 -12 167.608 59.2828   1
   9  -3 -11 257.373 68.0358   1
   9  -3 -11 185.035 55.2572   2
   9   3 -11 218.497 59.4382   2
   9   3 -11 202.773 47.1046   1
   9  -3 -10 13791.4 380.853   1
   9  -3 -10 13627.8 368.607   2
   9   3 -10 14154.3 306.368   1
   9   3 -10 13671.2 366.554   2
   9   3  -9 2511.07 130.846   1
  -9  -3   9 1854.83 137.555   2
   9  -3  -9 1834.17 135.678   2
   9   3  -9 1846.89 132.888   2
   9  -3  -9 2142.79 152.087   1
  -9  -3   8 4551.91 202.498   2
   9  -3  -8 4638.16 205.448   2
   9   3  -8 4720.23 203.839   2
  -9   3   7 11025.3 306.062   2
  -9  -3   7 10877.6 306.845   2
   9  -3  -7 11817.6 313.452   2
   9   3  -7 11462.4 307.750   2
  -9   3   6 14077.0 331.342   2
  -9  -3   6 13315.2 320.866   2
   9  -3  -6 13834.0 328.433   2
   9   3  -6 13602.2 324.634   2
  -9   3   5 25811.2 437.768   2
  -9  -3   5 24895.7 437.270   2
   9  -3  -5 25816.4 434.644   2
   9   3  -5 25477.8 442.216   2
  -9   3   4 26294.1 426.333   2
  -9  -3   4 26620.8 448.879   2
   9  -3  -4 27211.3 434.370   2
   9   3  -4 27774.9 462.717   2
  -9   3   3 37.2576 29.2519   2
  -9  -3   3 23.8113 36.2154   2
   9  -3  -3 61.6367 32.7615   2
   9   3  -3 21.2736 30.3008   2
  -9   3   2 9615.19 252.032   2
  -9  -3   2 9395.39 269.606   2
   9  -3  -2 9622.91 255.273   2
   9   3  -2 9570.41 277.724   2
  -9   3   1 1496.73 105.326   2
  -9  -3   1 1247.40 104.558   2
   9  -3  -1 1379.43 100.429   2
   9   3  -1 1332.70 104.362   2
   9   3   0 2735.86 157.108   2
  -9   3   0 2614.10 138.105   2
  -9  -3   0 2581.71 152.828   2
   9  -3   0 2758.61 143.014   2
   9  -3   1 41243.9 553.720   2
   9   3   1 41312.5 608.597   2
  -9   3  -1 40518.6 545.689   2
  -9  -3  -1 39727.4 596.470   2
   9  -3   2 10927.3 293.382   2
   9   3   2 11351.9 331.028   2
  -9   3  -2 10873.0 292.564   2
  -9  -3  -2 10831.2 320.469   2
   9  -3   3 2151.49 135.654   2
   9   3   3 2024.08 144.266   2
  -9   3  -3 2030.72 132.317   2
  -9  -3  -3 1901.56 141.772   2
   9  -3   4 8058.37 270.862   2
   9   3   4 8101.93 293.801   2
  -9   3  -4 8047.13 272.664   2
  -9  -3  -4 7880.77 293.039   2
  -9   3  -5 73.3764 53.3960   2
  -9  -3  -5 85.0322 55.9585   2
   9  -3   5 47.0152 37.3813   2
  -9   3  -6 326.501 68.6968   2
  -9  -3  -6 283.160 71.2099   2
   9  -3   6 274.108 70.4293   2
   9  -3   7 2139.25 161.170   2
  -9   3  -7 2254.01 165.092   2
  -9  -3  -7 2143.30 176.268   2
  -9  -3  -8 5834.00 295.611   2
  -9   3  -8 5742.94 268.426   2
  -9   3  -9 229.801 71.3727   2
  -9  -3  -9 76.1817 53.2937   2
  -9  -3 -10 6353.09 332.597   2
  -9   3 -10 6164.85 302.660   2
  -9   3 -11 1760.08 171.915   2
  -9  -3 -11 1918.47 192.061   2
  -9   3 -12 959.940 140.664   2
  -9  -3 -12 686.109 130.080   2
  -9  -3 -13 2948.27 276.215   2
  -9   3 -13 1497.33 170.329   2
  -9   3 -14 666.946 130.447   2
  -9   3 -15 604.480 122.844   2
   9   5 -21 402.446 111.792   2
   9  -5 -21 659.253 138.223   1
   9   5 -20 118.107 80.8561   2
   9  -5 -20 71.0385 73.7895   1
   9  -5 -19 257.530 109.158   2
   9  -5 -19 201.294 87.5634   1
   9  -5 -18 179.735 85.6356   2
   9  -5 -18 38.4527 62.1864   1
   9  -5 -17 3755.98 279.618   2
   9  -5 -17 3629.69 258.899   1
   9  -5 -16 336.139 85.5677   1
   9  -5 -15 1962.76 180.346   1
   9   5 -14 579.695 67.2740   1
   9  -5 -14 678.555 111.277   1
   9  -5 -13 1779.38 160.289   1
   9   5 -13 2080.29 118.348   1
   9   5 -12 875.060 75.3341   1
   9  -5 -12 652.577 99.7838   1
   9   5 -11 4216.27 210.993   2
   9   5 -11 4391.61 155.775   1
   9  -5 -11 3973.73 222.504   1
   9  -5 -10 10275.2 347.832   1
  -9  -5  10 9332.33 305.924   2
   9  -5 -10 9420.27 321.468   2
   9   5 -10 9242.14 302.921   2
   9   5 -10 10403.3 229.562   1
   9   5  -9 48.7445 28.6659   1
  -9  -5   9 35.7619 39.6292   2
   9  -5  -9 3.56412 45.9032   1
   9  -5  -9 42.1972 30.7529   2
   9   5  -9-14.8183 35.2148   2
   9  -5  -8 8521.01 277.665   2
   9   5  -8 8471.13 272.874   2
  -9  -5   8 8087.45 269.966   2
  -9  -5   7 43661.8 601.940   2
   9  -5  -7 43378.3 606.720   2
   9   5  -7 44321.3 609.794   2
  -9   5   6 19252.1 386.884   2
  -9  -5   6 19165.6 402.255   2
   9  -5  -6 19375.2 393.115   2
   9   5  -6 19519.2 403.109   2
  -9   5   5 425.719 57.4947   2
  -9  -5   5 400.151 58.3383   2
   9  -5  -5 473.729 65.2635   2
   9   5  -5 398.398 66.2516   2
  -9   5   4 453.267 67.5011   2
  -9  -5   4 354.762 62.4729   2
   9  -5  -4 425.293 60.4846   2
   9   5  -4 437.271 64.2662   2
   9   5  -3 36.0098 31.7183   2
  -9   5   3 102.739 44.5058   2
  -9  -5   3 4.73532 33.3913   2
   9  -5  -3 24.5159 32.5375   2
  -9   5   2 7709.30 222.385   2
  -9  -5   2 7213.92 246.196   2
   9  -5  -2 7674.28 224.476   2
   9   5  -2 7443.09 251.826   2
   9   5  -1 19449.8 408.750   2
  -9   5   1 18783.7 345.628   2
  -9  -5   1 18394.1 398.935   2
   9  -5  -1 18450.1 349.391   2
   9   5   0 1000.28 99.8613   2
  -9   5   0 934.233 81.5634   2
  -9  -5   0 938.987 95.2384   2
   9  -5   0 1019.10 85.7461   2
   9  -5   1 11755.4 288.562   2
   9   5   1 11875.8 336.029   2
  -9   5  -1 11802.9 282.114   2
  -9  -5  -1 11667.3 332.308   2
   9  -5   2 4993.29 195.111   2
   9   5   2 4993.24 227.366   2
  -9   5  -2 4976.38 191.607   2
  -9  -5  -2 4758.89 224.874   2
   9  -5   3 4256.35 185.021   2
   9   5   3 4193.53 214.707   2
  -9   5  -3 4265.16 184.763   2
  -9  -5  -3 4283.66 222.042   2
   9  -5   4 3794.26 180.763   2
  -9   5  -4 3866.29 182.068   2
  -9  -5  -4 3557.93 204.316   2
   9  -5   5 4511.89 206.624   2
  -9   5  -5 4457.37 202.438   2
  -9  -5  -5 4458.54 239.262   2
  -9   5  -6 60.8493 46.6849   2
  -9  -5  -6 29.4408 50.6574   2
   9  -5   6-18.4884 38.7194   2
   9  -5   7 4873.07 234.135   2
  -9   5  -7 4813.24 231.134   2
  -9  -5  -7 4976.01 274.287   2
  -9   5  -8 136.044 55.3153   2
  -9  -5  -8 158.444 69.7852   2
  -9  -5  -9 975.070 137.272   2
  -9   5  -9 1182.08 124.612   2
  -9  -5 -10 5140.82 308.573   2
  -9   5 -10 4782.89 257.844   2
  -9  -5 -11 3882.45 275.245   2
  -9   5 -11 3172.50 221.005   2
  -9   5 -12 350.320 87.2705   2
  -9  -5 -12 511.576 119.321   2
  -9  -5 -13 4354.96 318.816   2
  -9   5 -13 3878.40 257.732   2
  -9   5 -14 986.427 145.807   2
  -9   5 -15 124.540 78.7187   2
   9   7 -21 241.523 101.465   2
   9   7 -20 221.733 86.9548   2
   9  -7 -20 305.376 115.724   1
   9  -7 -19 212.208 94.0332   2
   9  -7 -19 418.916 116.065   1
   9  -7 -18 814.713 140.262   2
   9  -7 -18 836.015 135.227   1
   9  -7 -17 692.669 123.227   1
   9  -7 -17 610.236 134.765   2
   9  -7 -16 570.509 114.112   2
   9  -7 -16 782.592 132.609   1
   9  -7 -15 102.102 65.4509   1
   9  -7 -14 12611.5 448.418   1
   9  -7 -13 3274.95 227.546   1
   9  -7 -12 199.525 70.6798   1
   9   7 -11 2462.81 164.041   2
   9  -7 -11 2614.17 193.348   1
   9  -7 -10 9710.85 358.830   1
  -9  -7  10 10268.1 326.750   2
   9  -7 -10 9967.03 326.943   2
   9   7 -10 8608.52 151.468   1
   9   7 -10 10618.6 328.474   2
  -9  -7   9 1619.38 134.002   2
   9  -7  -9 1498.48 127.372   2
   9   7  -9 1509.10 124.694   2
   9  -7  -9 2012.91 163.717   1
   9   7  -9 1347.47 60.7978   1
  -9  -7   8 1481.08 120.721   2
   9  -7  -8 1622.80 124.057   2
   9   7  -8 1543.45 119.963   2
   9   7  -8 1206.77 60.2747   1
  -9  -7   7 1926.01 135.498   2
   9  -7  -7 2068.61 134.352   2
   9   7  -7 2020.73 135.275   2
  -9  -7   6 526.611 72.3355   2
   9  -7  -6 582.941 76.6570   2
   9   7  -6 647.644 83.1420   2
  -9  -7   5 11648.3 314.340   2
   9  -7  -5 12323.2 307.250   2
   9   7  -5 11899.4 324.634   2
  -9   7   4 18523.6 363.987   2
  -9  -7   4 18653.0 397.995   2
   9  -7  -4 18381.4 360.844   2
   9   7  -4 19030.7 407.065   2
  -9   7   3 1180.95 90.1133   2
  -9  -7   3 1061.35 99.9703   2
   9  -7  -3 1190.12 90.3984   2
   9   7  -3 1132.99 101.687   2
  -9   7   2 1838.67 108.093   2
  -9  -7   2 1816.51 128.834   2
   9  -7  -2 1827.16 108.102   2
   9   7  -2 1853.07 129.247   2
   9   7  -1 15250.5 383.000   2
  -9   7   1 15243.4 310.878   2
  -9  -7   1 14854.1 372.204   2
   9  -7  -1 14673.6 303.445   2
   9   7   0 12568.3 350.542   2
  -9   7   0 12219.6 274.457   2
  -9  -7   0 12000.2 345.971   2
   9  -7   0 12040.2 274.958   2
   9  -7   1 3609.42 154.727   2
   9   7   1 3606.96 198.456   2
  -9   7  -1 3624.86 154.188   2
  -9  -7  -1 3393.61 190.000   2
   9  -7   2 8889.41 247.245   2
   9   7   2 8849.03 308.865   2
  -9   7  -2 8996.55 242.533   2
  -9  -7  -2 8800.48 309.450   2
  -9  -7  -3 14.4687 44.5898   2
   9  -7   3 41.8629 33.1839   2
  -9   7  -3 17.1114 27.4511   2
   9  -7   4 18102.4 376.984   2
  -9   7  -4 18309.6 375.588   2
  -9  -7  -4 17790.7 470.986   2
   9  -7   5 2971.05 161.791   2
  -9   7  -5 2942.88 157.793   2
  -9  -7  -5 2874.18 199.426   2
  -9  -7  -6 457.993 89.1943   2
   9  -7   6 360.240 64.3083   2
  -9   7  -6 388.846 68.6893   2
  -9  -7  -7 1087.03 135.083   2
   9  -7   7 1131.79 112.559   2
  -9   7  -7 1105.17 107.180   2
  -9  -7  -8 9215.40 393.417   2
   9  -7   8 9272.65 326.432   2
  -9   7  -8 8865.00 308.115   2
  -9   7  -9 909.368 108.243   2
  -9  -7  -9 1140.47 148.348   2
  -9  -7 -10 10477.4 442.400   2
  -9   7 -10 9951.86 352.220   2
  -9   7 -11 65.8801 52.8140   2
  -9  -7 -11 105.264 70.1555   2
  -9   7 -12 239.985 75.4996   2
  -9  -7 -12 169.409 89.8887   2
  -9   7 -13 1697.70 169.572   2
   9   9 -21-79.5308 83.8775   2
   9   9 -20 102.957 81.9201   2
   9  -9 -19 2525.30 235.404   1
   9  -9 -18 554.260 136.284   2
   9  -9 -18 439.207 110.564   1
   9  -9 -17 1153.91 166.293   1
   9  -9 -17 1215.93 168.920   2
   9  -9 -16 752.922 134.836   2
   9  -9 -16 646.207 118.405   1
   9  -9 -15 922.429 144.276   2
   9  -9 -15 1101.46 145.504   1
   9  -9 -14 594.097 116.424   2
   9  -9 -14 477.420 98.4657   1
   9  -9 -13 5011.45 290.503   1
   9  -9 -12-42.0754 61.6987   1
   9   9 -11 1594.28 133.441   2
   9  -9 -11 1430.34 154.808   1
  -9  -9  10 4048.52 209.754   2
   9   9 -10 4109.65 207.515   2
   9  -9 -10 4300.55 254.552   1
  -9  -9   9 296.424 68.4699   2
   9  -9  -9 237.124 63.0178   1
   9  -9  -9 246.545 59.8107   2
   9   9  -9 287.852 61.5434   2
  -9  -9   8 410.420 73.8704   2
   9  -9  -8 391.525 65.2937   2
   9  -9  -8 398.383 85.1907   1
   9   9  -8 413.765 69.7521   2
  -9  -9   7 11814.9 332.726   2
   9  -9  -7 11872.6 325.220   2
   9   9  -7 12455.4 345.630   2
   9   9  -6 99.6846 19.3577   1
   9  -9  -6 172.807 42.8975   2
  -9  -9   6 155.781 46.2951   2
   9   9  -6 215.996 55.7374   2
   9   9  -5 5170.70 134.380   1
   9  -9  -5 5934.93 213.815   2
  -9  -9   5 5771.95 227.853   2
   9   9  -5 5763.42 231.371   2
   9   9  -4 6130.55 162.676   1
  -9  -9   4 6198.21 238.768   2
   9  -9  -4 5903.44 206.924   2
   9   9  -4 6364.78 246.519   2
   9   9  -3 246.475 61.3099   2
   9   9  -3 201.768 39.0556   1
  -9  -9   3 209.960 55.4178   2
   9  -9  -3 153.055 42.8820   2
  -9   9   3 202.508 48.9073   2
   9   9  -2 7714.62 279.157   2
   9   9  -2 7264.53 209.909   1
  -9   9   2 7719.62 223.439   2
  -9  -9   2 7267.60 265.103   2
   9  -9  -2 7586.31 215.734   2
   9   9  -1 12898.2 361.013   2
   9   9  -1 12219.2 291.562   1
  -9   9   1 12662.3 274.992   2
  -9  -9   1 12997.4 364.719   2
   9  -9  -1 12118.7 267.668   2
   9  -9   0 220.386 44.5887   2
   9   9   0 370.930 71.8179   2
  -9   9   0 203.034 38.6890   2
   9   9   0 278.986 54.1284   1
  -9  -9   0 246.584 60.2981   2
   9  -9   1 17494.8 322.645   2
   9   9   1 17353.6 441.396   2
   9   9   1 17138.5 386.608   1
  -9   9  -1 17833.7 320.507   2
  -9  -9  -1 17913.3 442.318   2
   9  -9   2 8244.86 226.741   2
   9   9   2 8466.64 286.018   1
  -9   9  -2 8364.03 222.922   2
  -9  -9  -2 8544.78 316.914   2
  -9  -9  -3 171.169 54.6429   2
   9  -9   3 225.041 45.0391   2
   9   9   3 159.809 49.4031   1
  -9   9  -3 151.921 35.1650   2
   9  -9   4 7363.93 228.511   2
  -9   9  -4 7432.82 222.396   2
  -9  -9  -4 7128.28 310.335   2
  -9  -9  -5 65.6812 53.7582   2
   9  -9   5 100.609 40.2785   2
  -9   9  -5 72.2050 35.3197   2
   9  -9   6 1315.11 109.327   2
  -9   9  -6 1295.08 104.878   2
  -9  -9  -6 1403.36 153.449   2
  -9   9  -7 13575.7 340.411   2
   9  -9   7 13772.4 360.723   2
  -9  -9  -7 13693.9 474.200   2
   9  -9   8 435.158 72.4504   2
  -9  -9  -8 384.654 100.323   2
  -9   9  -8 396.677 71.1430   2
  -9  -9  -9-6.62115 57.3510   2
  -9   9  -9 12.7340 34.9050   2
  -9  -9 -10 1887.54 201.389   2
  -9   9 -10 1750.84 141.702   2
  -9  -9 -11 3180.62 264.163   2
  -9   9 -11 2811.98 185.461   2
   9 -11 -18 979.682 162.311   2
   9 -11 -17 93.0611 88.4068   2
   9 -11 -17 184.391 96.2169   1
   9 -11 -16 1901.66 205.941   1
   9 -11 -16 1821.64 198.017   2
   9 -11 -15-4.09448 59.8821   2
   9 -11 -15-28.8047 66.9928   1
   9 -11 -14 3130.15 249.034   1
   9 -11 -14 3515.08 260.430   2
   9 -11 -13 3705.64 252.923   2
   9 -11 -13 3817.86 270.603   1
   9 -11 -12 1585.70 160.823   2
   9 -11 -12 1689.10 179.672   1
   9 -11 -11 191.566 81.6364   1
   9  11 -11 223.684 56.1795   2
  -9 -11  10 5260.44 245.131   2
   9  11 -10 5393.24 244.975   2
   9 -11 -10 5048.19 287.241   1
   9 -11  -9 4028.42 254.881   1
  -9 -11   9 3856.72 203.639   2
   9 -11  -9 3778.60 207.091   2
   9  11  -9 4043.44 211.585   2
  -9 -11   8 1695.74 133.647   2
   9 -11  -8 1699.00 132.975   2
   9 -11  -8 1561.76 160.804   1
   9  11  -8 1521.51 125.982   2
  -9 -11   7 1792.44 137.739   2
   9 -11  -7 1810.45 133.558   2
   9  11  -7 1769.33 138.834   2
   9  11  -6 26.8245 34.6490   2
   9 -11  -6 50.0956 34.9778   2
  -9 -11   6 37.6740 40.6361   2
   9  11  -5 88.8995 42.6163   2
   9 -11  -5 75.4499 40.9069   2
  -9 -11   5 80.7725 46.2269   2
   9  11  -5 71.2723 22.2176   1
  -9 -11   4 7069.90 262.297   2
   9 -11  -4 6577.41 216.320   2
   9  11  -4 7026.71 175.249   1
   9  11  -4 6699.48 262.247   2
   9  11  -3 3401.72 190.626   2
   9  11  -3 3481.86 138.605   1
  -9 -11   3 3385.49 183.868   2
   9 -11  -3 3423.90 148.177   2
   9  11  -2 7127.21 275.472   2
   9  11  -2 6553.28 204.799   1
  -9 -11   2 6894.92 268.526   2
   9 -11  -2 6584.86 193.355   2
   9  11  -1 12659.8 374.116   2
   9  11  -1 13270.0 315.819   1
  -9 -11   1 13147.4 377.714   2
   9 -11  -1 11952.8 255.824   2
   9 -11   0 19.2659 25.9738   2
  -9  11   0 31.3493 26.8474   2
  -9 -11   0 16.9336 40.5433   2
   9  11   0-6.99960 29.8183   1
   9 -11   1 7596.11 196.662   2
  -9  11  -1 8027.32 200.550   2
   9  11   1 8039.69 275.842   1
  -9 -11  -1 7726.80 310.521   2
  -9  11  -2 17203.9 291.076   2
   9  11   2 17226.6 422.131   1
   9 -11   2 16344.0 288.300   2
  -9 -11  -2 18372.3 480.045   2
   9 -11   3 868.379 70.6184   2
  -9  11  -3 927.540 71.5801   2
  -9 -11  -3 1058.06 128.462   2
  -9  11  -4 15827.9 289.859   2
   9 -11   4 16395.7 310.811   2
  -9 -11  -4 16205.1 479.661   2
  -9 -11  -5 347.696 90.1934   2
  -9  11  -5 300.925 47.2965   2
   9 -11   5 356.069 54.5591   2
  -9  11  -6 2492.15 127.021   2
  -9 -11  -6 2675.95 210.823   2
  -9  11  -7 1302.32 97.2809   2
  -9 -11  -7 1430.88 158.225   2
  -9  11  -8 6725.59 228.433   2
  -9 -11  -8 7325.36 368.819   2
  -9 -11  -9 156.814 71.9711   2
  -9 -11 -10 5256.70 330.653   2
   9 -13 -17 2034.07 217.342   2
   9 -13 -16 771.121 141.395   2
   9 -13 -16 732.010 138.190   1
   9 -13 -15 1259.93 162.484   2
   9 -13 -15 1443.32 194.763   1
   9 -13 -14 268.434 83.7035   2
   9 -13 -14 427.259 110.731   1
   9 -13 -13 4569.13 307.714   1
   9 -13 -13 4421.04 276.210   2
   9 -13 -12 362.782 86.8884   2
   9 -13 -12 544.880 120.047   1
   9 -13 -11 1310.53 167.082   1
   9 -13 -11 1275.28 142.069   2
   9 -13 -10 1935.89 168.012   2
  -9 -13  10 1768.93 144.053   2
   9 -13 -10 2084.38 197.188   1
   9  13 -10 1705.84 141.761   2
   9 -13  -9 819.796 107.381   2
  -9 -13   9 779.073 97.7683   2
   9 -13  -9 831.661 97.8476   2
   9 -13  -9 762.368 119.521   1
   9  13  -9 768.828 93.2981   2
   9 -13  -8 2941.19 232.647   1
  -9 -13   8 2453.52 168.435   2
   9 -13  -8 2430.04 163.085   2
   9  13  -8 2462.36 164.398   2
  -9 -13   7 14032.0 379.739   2
   9 -13  -7 13622.3 365.650   2
   9 -13  -7 13194.0 476.926   1
   9  13  -7 14122.5 387.857   2
   9  13  -6 126.856 50.7976   2
  -9 -13   6 111.671 47.0007   2
   9 -13  -6 137.664 51.2877   2
   9  13  -5 8798.46 306.936   2
  -9 -13   5 9429.53 310.908   2
   9 -13  -5 8658.01 265.687   2
   9  13  -4 9960.41 330.245   2
  -9 -13   4 9973.04 328.462   2
   9 -13  -4 9337.79 258.262   2
   9  13  -4 10480.2 215.911   1
   9  13  -3 368.246 52.3122   1
   9  13  -3 437.246 78.8583   2
  -9 -13   3 339.702 66.6344   2
   9 -13  -3 284.208 48.1819   2
  -9 -13   2 248.994 63.8993   2
   9  13  -2 237.076 49.9865   1
   9 -13  -2 233.333 42.4597   2
  -9 -13   1 6739.36 282.414   2
   9  13  -1 7170.85 240.913   1
   9 -13  -1 5947.74 164.817   2
   9 -13   0 6961.69 169.139   2
  -9 -13   0 8276.96 317.978   2
   9  13   0 7691.59 263.958   1
   9 -13   1 8757.02 179.349   2
   9  13   1 9661.76 310.811   1
  -9 -13  -1 10765.3 378.323   2
   9 -13   2 4476.15 127.283   2
   9  13   2 5836.51 256.362   1
  -9 -13  -2 6002.52 288.363   2
  -9  13  -3 251.277 35.2769   2
   9 -13   3 230.157 33.2455   2
  -9 -13  -3 371.818 82.6031   2
  -9 -13  -4 1102.11 139.085   2
  -9  13  -4 792.718 55.3214   2
  -9 -13  -5 7474.22 349.669   2
  -9 -13  -6 897.850 133.380   2
  -9 -13  -7 4680.27 295.299   2
  -9 -13  -8 984.788 150.417   2
  -9 -13  -9 222.223 79.2167   2
   9 -15 -16 6597.40 383.037   2
   9 -15 -15-7.14530 67.5969   2
   9 -15 -14 2512.39 225.516   2
   9 -15 -14 2729.70 252.846   1
   9 -15 -13 1068.13 147.374   2
   9 -15 -13 1132.78 166.271   1
   9 -15 -12 168.029 79.2158   2
   9 -15 -12 241.160 94.6660   1
   9 -15 -11 654.326 105.699   2
   9 -15 -11 714.318 130.558   1
  -9 -15  10 6144.90 270.592   2
   9 -15 -10 5763.26 341.570   1
   9 -15 -10 5832.35 279.850   2
  -9 -15   9 3302.43 197.692   2
   9 -15  -9 3572.45 268.275   1
   9 -15  -9 3293.41 206.546   2
   9  15  -9 3179.16 191.680   2
   9 -15  -8 3709.34 266.889   1
  -9 -15   8 4116.27 215.215   2
   9 -15  -8 3822.38 208.560   2
   9 -15  -8 3885.82 208.883   2
   9  15  -8 3693.02 200.337   2
  -9 -15   7 3603.42 200.943   2
   9 -15  -7 4366.05 287.803   1
   9 -15  -7 3465.15 193.250   2
   9 -15  -7 3708.96 200.675   2
   9  15  -7 3345.05 195.460   2
   9 -15  -6 303.901 65.6706   2
   9  15  -6 298.194 67.1328   2
   9 -15  -6 277.099 93.0441   1
  -9 -15   6 314.635 70.0657   2
   9 -15  -6 333.342 64.4695   2
   9 -15  -5 256.654 59.5032   2
   9  15  -5 259.315 64.4406   2
  -9 -15   5 199.537 59.3455   2
   9 -15  -5 304.753 58.5009   2
   9  15  -4 4192.56 221.386   2
  -9 -15   4 4670.26 228.345   2
   9 -15  -4 4083.20 168.223   2
   9 -15  -4 4521.98 183.311   2
   9 -15  -3 369.571 54.1251   2
   9  15  -3 307.481 45.5200   1
  -9 -15   3 427.961 79.0405   2
   9 -15  -3 393.403 49.8329   2
  -9 -15   2 4184.78 225.471   2
   9  15  -2 3554.66 160.333   1
   9 -15  -2 3581.67 125.779   2
   9 -15  -2 3797.24 136.278   2
   9 -15  -1 1468.43 69.7511   2
   9  15  -1 2430.75 148.798   1
  -9 -15   1 2062.02 166.506   2
   9 -15  -1 1765.81 81.6455   2
   9  15   0 1529.30 127.926   1
  -9 -15   0 1535.62 149.811   2
   9 -15   0 751.032 38.4544   2
   9  15   1 2409.60 166.112   1
  -9 -15  -1 2323.33 187.060   2
  -9 -15  -2 10558.4 400.562   2
  -9 -15  -3 171.790 72.9586   2
  -9 -15  -4 1643.28 183.588   2
  -9 -15  -5 487.413 112.535   2
  -9 -15  -6-33.0773 63.5826   2
  -9 -15  -7 439.595 109.524   2
  -9 -15  -8 2966.10 253.961   2
   9 -17 -15 93.6201 86.2207   2
   9 -17 -14 961.081 147.853   2
   9 -17 -13 2893.95 236.837   2
   9 -17 -12 37.8782 71.7271   1
   9 -17 -12 161.996 75.4156   2
   9 -17 -11 3257.77 277.146   1
   9 -17 -11 3769.98 247.285   2
   9 -17 -10 3012.03 266.552   1
   9 -17 -10 2937.88 214.233   2
   9 -17  -9 9.61177 47.6140   2
   9 -17  -9 80.2651 73.4924   1
  -9 -17   9 120.764 56.5262   2
   9 -17  -8 713.507 99.1497   2
  -9 -17   8 561.146 84.7918   2
   9 -17  -8 566.700 116.344   1
   9 -17  -7 6943.12 379.180   1
  -9 -17   7 7388.00 291.729   2
   9 -17  -7 7656.75 291.982   2
   9 -17  -6 221.247 60.8626   2
   9 -17  -6 297.446 97.1912   1
  -9 -17   6 175.825 64.3252   2
  -9 -17   5 3178.40 192.134   2
   9 -17  -5 3139.91 160.087   2
   9 -17  -5 2405.76 221.321   1
  -9 -17   4 1790.65 151.347   2
  -9 -17   3 1576.53 149.581   2
  -9 -17   2 1888.55 159.027   2
  -9 -17   1 12203.9 409.163   2
  -9 -17   0 128.915 58.3935   2
  -9 -17  -1 1294.06 146.203   2
  -9 -17  -2 559.667 103.130   2
  -9 -17  -3-18.4366 58.8767   2
  -9 -17  -4 1739.65 190.463   2
  -9 -17  -5 6835.68 376.727   2
  -9 -17  -6 386.704 110.357   2
  -9 -17  -7 3435.15 277.834   2
   9 -19 -14 1309.17 168.780   2
   9 -19 -13 1109.90 150.130   2
   9 -19 -12 56.5374 66.7636   2
   9 -19 -10 3435.17 294.962   1
   9 -19  -9 100.597 90.7997   1
   9 -19  -8 770.332 162.114   1
   9 -19  -7 3.22188 77.6306   1
  -9 -19   6 25.9161 49.0427   2
   9 -19  -6 130.521 88.6914   1
   9 -19  -5 1233.84 179.337   1
  -9 -19   5 1238.64 128.259   2
  -9 -19   4 3229.88 201.448   2
   9 -19  -4 6454.97 421.273   1
   9 -19  -3 27.7755 59.7190   1
  -9 -19   3 1.40577 46.9509   2
  -9 -19   2 933.997 120.759   2
  -9 -19   1 3567.49 228.855   2
  -9 -19   0 1007.72 134.062   2
  -9 -19  -1 505.347 104.928   2
  -9 -19  -2 3829.79 261.059   2
  -9 -19  -3 273.706 97.4679   2
  -9 -19  -4 2501.23 224.446   2
  -9 -19  -5 514.183 117.068   2
  -9 -19  -6 302.449 112.665   2
   9 -21  -7 2363.32 253.421   1
   9 -21  -6 564.111 138.436   1
   9 -21  -5 1703.73 213.650   1
   9 -21  -4 264.629 106.603   1
   9 -21  -3 79.9657 74.3486   1
   9 -21  -2 1377.77 193.279   1
   9 -21  -1 969.511 159.161   1
  -9 -21   0 348.969 85.7854   2
  -9 -21  -1 3752.47 258.825   2
  -9 -21  -2 2017.75 201.110   2
  -9 -21  -3 73.7777 76.6099   2
  -9 -21  -4 141.612 77.7933   2
  -9 -21  -5 1692.27 201.116   2
   9 -23  -2 665.696 141.921   1
   9 -23  -1 47.6053 69.6213   1
   9 -23   0 124.036 85.4437   1
  10   0 -20 63.9727 71.4854   2
  10   0 -19-25.8570 53.6816   1
  10   0 -18 3180.91 229.711   1
  10   0 -17 50.9185 53.3228   1
  10   0 -16 222.125 70.6427   1
  10   0 -15 82.2520 52.6290   1
  10   0 -14 5308.79 253.763   1
  10   0 -13 28.2725 44.5505   1
  10   0 -12 2629.10 168.210   1
  10   0 -11-70.4284 49.4457   1
  10   0 -10 6558.83 261.810   2
  10   0 -10 7437.64 269.829   1
 -10   0   9 17.2800 40.4964   2
  10   0  -9 78.5028 44.4482   2
 -10   0   8 873.354 96.7472   2
  10   0  -8 936.777 97.7094   2
 -10   0   7-16.4050 35.1142   2
  10   0  -7-48.8233 36.1906   2
 -10   0   6 7830.88 260.140   2
  10   0  -6 8261.54 266.700   2
 -10   0   5 4.20954 35.6822   2
  10   0  -5 23.3959 31.4880   2
 -10   0   4 14108.5 333.580   2
  10   0  -4 14281.6 344.568   2
 -10   0   3-14.2615 36.0515   2
  10   0  -3-27.3988 38.5995   2
 -10   0   2 15037.2 347.646   2
  10   0  -2 15202.2 356.702   2
  10   0  -1-4.72801 32.6260   2
 -10   0   1-30.0418 41.4888   2
  10   0   0 83696.9 854.905   2
 -10   0   0 82260.7 838.774   2
  10   0   1-15.2939 39.3976   2
 -10   0  -1-40.8676 43.3800   2
  10   0   2 6195.29 245.194   2
 -10   0  -2 6037.71 242.797   2
  10   0   3 34.9668 42.0339   2
 -10   0  -3-30.5408 37.4082   2
 -10   0  -4 82.2163 51.2874   2
  10   0   4 81.4759 42.8039   2
 -10   0  -5 75.7404 56.9684   2
 -10   0  -6 42050.6 727.033   2
 -10   0  -7-42.6991 57.7575   2
 -10   0  -8 5051.67 277.379   2
 -10   0  -9 40.4980 57.8620   2
 -10   0 -10 137.650 86.7267   2
 -10   0 -11 50.2235 68.4845   2
 -10   0 -12 3942.45 284.808   2
 -10   0 -13 53.2392 61.1273   2
  10  -2 -20 119.108 89.0211   2
  10  -2 -20 141.191 83.8374   1
  10  -2 -19 315.173 109.898   2
  10  -2 -19 190.704 68.3954   1
  10   2 -18 174.321 67.7647   1
  10  -2 -18 24.7811 55.1849   1
  10   2 -17 2139.71 166.089   1
  10  -2 -17 2297.32 199.267   1
  10  -2 -16 213.124 74.7390   1
  10   2 -16 242.580 61.4440   1
  10   2 -15 4988.41 238.978   1
  10  -2 -15 4858.83 262.966   1
  10   2 -14 14.9171 41.6187   1
  10  -2 -14-54.0429 61.8346   1
  10  -2 -13 451.531 84.9520   1
  10   2 -13 492.842 74.1104   1
  10   2 -12 270.657 55.6595   1
  10  -2 -12 198.162 64.4997   1
  10   2 -11 18125.5 391.105   1
  10  -2 -11 18024.3 453.268   1
  10   2 -10 177.831 49.8507   1
 -10  -2  10 157.774 52.5553   2
  10  -2 -10 204.028 59.6220   2
  10   2 -10 125.194 47.5489   2
  10  -2 -10 254.088 68.2986   1
 -10  -2   9 456.030 76.2569   2
  10  -2  -9 335.086 65.0836   2
  10   2  -9 425.986 69.7278   2
 -10   2   8 1867.06 134.300   2
 -10  -2   8 1901.90 136.245   2
  10  -2  -8 1912.44 134.247   2
  10   2  -8 1902.78 132.537   2
 -10   2   7 7759.52 266.680   2
 -10  -2   7 7332.02 260.896   2
  10  -2  -7 7755.81 263.531   2
  10   2  -7 7599.58 261.850   2
 -10   2   6 1136.94 100.670   2
 -10  -2   6 991.148 95.7556   2
  10  -2  -6 1092.76 99.6008   2
  10   2  -6 1031.98 99.3644   2
 -10   2   5 5704.07 216.768   2
 -10  -2   5 5965.78 226.216   2
  10  -2  -5 6094.73 224.050   2
  10   2  -5 6112.20 231.024   2
 -10   2   4 2884.27 153.423   2
 -10  -2   4 2704.95 152.676   2
  10  -2  -4 3070.38 158.608   2
  10   2  -4 2778.58 155.892   2
 -10   2   3 17392.1 367.664   2
 -10  -2   3 17167.1 378.004   2
  10  -2  -3 18100.2 376.052   2
  10   2  -3 17838.6 387.949   2
  10   2  -2 5.57623 28.9909   2
 -10   2   2-7.05481 30.7306   2
 -10  -2   2-7.78492 34.2923   2
  10  -2  -2 34.3227 33.3354   2
 -10   2   1 14131.1 333.394   2
 -10  -2   1 13782.4 345.492   2
  10  -2  -1 14325.9 337.523   2
  10   2  -1 14092.8 352.356   2
  10  -2   0 182.300 53.2543   2
  10   2   0 103.507 45.8755   2
 -10   2   0 75.2585 38.4838   2
 -10  -2   0 79.3205 43.0108   2
  10  -2   1 19987.8 418.874   2
  10   2   1 20541.1 446.473   2
 -10   2  -1 19439.5 411.353   2
 -10  -2  -1 19359.5 430.271   2
  10  -2   2 1072.43 103.649   2
  10   2   2 1016.69 105.743   2
 -10   2  -2 1074.94 103.512   2
 -10  -2  -2 1009.96 104.193   2
  10  -2   3 24001.8 482.417   2
  10   2   3 23353.3 501.275   2
 -10   2  -3 23162.8 473.856   2
 -10  -2  -3 22997.6 498.376   2
  10  -2   4 1696.24 135.875   2
 -10   2  -4 1803.28 141.510   2
 -10  -2  -4 1833.00 150.710   2
  10  -2   5 6975.28 280.119   2
 -10   2  -5 6989.41 281.869   2
 -10  -2  -5 7032.12 300.458   2
 -10   2  -6 245.076 61.4898   2
 -10  -2  -6 178.159 58.3503   2
 -10   2  -7-3.61568 43.7082   2
 -10  -2  -7 55.0788 52.1385   2
 -10   2  -8 5847.34 287.779   2
 -10  -2  -8 5607.58 299.041   2
 -10   2  -9 14892.3 474.623   2
 -10  -2  -9 14788.6 497.883   2
 -10   2 -10-0.82381 52.4222   2
 -10  -2 -10 36.5697 64.9902   2
 -10  -2 -11 4883.06 307.339   2
 -10   2 -11 4860.73 293.722   2
 -10  -2 -12 1172.83 162.821   2
 -10   2 -12 1406.21 170.893   2
 -10   2 -13 406.166 110.134   2
 -10  -2 -13 238.755 93.4865   2
 -10   2 -14 105.871 64.3838   2
  10  -4 -21-5.32889 71.8265   1
  10  -4 -20-55.6728 78.5637   1
  10  -4 -19 80.6691 81.2597   2
  10  -4 -19-197.021 84.4417   1
  10  -4 -18 3953.91 279.730   1
  10  -4 -17 4121.93 274.163   1
  10  -4 -16 360.346 84.9165   1
  10   4 -16 398.461 70.5446   1
  10  -4 -15 46.8016 61.0785   1
  10   4 -15 65.4732 41.0413   1
  10  -4 -14 4659.08 262.450   1
  10   4 -14 4942.07 204.825   1
  10  -4 -13 1723.89 159.147   1
  10   4 -13 1833.26 123.064   1
  10  -4 -12 2049.05 168.091   1
  10   4 -12 2171.43 128.673   1
  10   4 -11 92.9836 35.0394   1
  10  -4 -11 103.763 53.6520   1
 -10  -4  10 2162.11 154.225   2
  10  -4 -10 2257.46 154.197   2
  10   4 -10 2266.26 156.886   2
  10  -4 -10 1701.33 152.757   1
  10   4 -10 1939.21 113.615   1
 -10  -4   9 2368.66 157.758   2
  10  -4  -9 2221.60 151.526   2
  10   4  -9 2450.91 153.926   2
  10   4  -9 2027.35 118.563   1
 -10  -4   8 20641.2 442.471   2
  10  -4  -8 20578.9 444.834   2
  10   4  -8 21511.8 451.434   2
 -10   4   7 10995.6 313.457   2
 -10  -4   7 11171.7 315.909   2
  10  -4  -7 11367.9 320.668   2
  10   4  -7 11578.2 325.195   2
 -10   4   6 34248.0 540.660   2
 -10  -4   6 32975.1 539.493   2
  10  -4  -6 33313.9 536.104   2
  10   4  -6 33562.7 550.044   2
 -10   4   5 1043.96 95.6383   2
 -10  -4   5 1044.63 102.302   2
  10  -4  -5 1078.93 97.3599   2
  10   4  -5 1136.48 104.163   2
 -10   4   4 6735.56 226.115   2
 -10  -4   4 6370.41 237.228   2
  10  -4  -4 6694.87 228.377   2
  10   4  -4 6584.06 242.190   2
  10   4  -3 206.842 52.3857   2
 -10   4   3 235.002 53.1975   2
 -10  -4   3 169.206 51.2921   2
  10  -4  -3 161.874 42.0434   2
 -10   4   2 31828.3 487.251   2
 -10  -4   2 31630.5 529.096   2
  10  -4  -2 32509.0 497.099   2
  10   4  -2 33059.7 546.211   2
  10  -4  -1 66.3309 37.8368   2
  10   4  -1 67.7493 40.2008   2
 -10   4   1 68.1215 35.7625   2
 -10  -4   1 128.170 46.3323   2
  10   4   0 26238.5 508.516   2
 -10   4   0 26159.6 448.484   2
 -10  -4   0 25214.2 494.840   2
  10  -4   0 25732.3 447.323   2
  10  -4   1 192.378 49.9641   2
  10   4   1 103.889 42.3984   2
 -10   4  -1 105.751 41.0414   2
 -10  -4  -1 130.023 48.3934   2
  10  -4   2 7860.45 260.247   2
  10   4   2 7830.42 292.903   2
 -10   4  -2 7936.46 259.974   2
 -10  -4  -2 7452.80 285.085   2
 -10  -4  -3 215.422 65.8766   2
  10  -4   3 242.788 52.7783   2
 -10   4  -3 250.107 57.5556   2
 -10  -4  -4 543.981 90.0600   2
  10  -4   4 352.220 71.3905   2
 -10   4  -4 506.147 81.3056   2
  10  -4   5 2176.23 157.593   2
 -10   4  -5 2098.10 151.276   2
 -10  -4  -5 2040.91 169.044   2
  10  -4   6 5805.94 261.057   2
 -10   4  -6 5520.15 253.453   2
 -10  -4  -6 5845.75 290.313   2
 -10   4  -7 4345.66 232.323   2
 -10  -4  -7 4264.47 259.257   2
 -10   4  -8 5981.73 280.350   2
 -10  -4  -8 6045.08 312.480   2
 -10   4  -9 58.3443 53.8968   2
 -10  -4  -9-25.8834 53.1968   2
 -10  -4 -10 1246.83 161.126   2
 -10   4 -10 1236.04 144.934   2
 -10   4 -11 9.35672 59.9075   2
 -10  -4 -11 53.1500 65.0883   2
 -10  -4 -12 6120.63 368.635   2
 -10   4 -12 5875.03 321.267   2
 -10   4 -13 237.800 83.3832   2
 -10   4 -14 1100.30 152.043   2
  10  -6 -20 144.160 99.7951   1
  10  -6 -19-11.2192 68.9322   2
  10  -6 -19 68.0273 85.5714   1
  10  -6 -18-122.115 90.3596   2
  10  -6 -18 95.5854 71.0539   1
  10  -6 -17 75.8220 74.9611   1
  10  -6 -16 183.515 84.7075   1
  10  -6 -15 13366.4 473.501   1
  10  -6 -14 473.720 101.126   1
  10  -6 -13 64.6325 67.9645   1
  10   6 -13 69.9644 33.2507   1
  10  -6 -12 454.657 95.2479   1
  10   6 -12 496.445 55.2948   1
  10   6 -11 3188.12 125.074   1
  10  -6 -11 3132.15 216.341   1
  10   6 -10 77.2950 29.7281   1
 -10  -6  10 26.5189 41.2608   2
  10  -6 -10 32.9454 36.5418   2
  10  -6 -10-17.8152 50.5210   1
  10   6 -10-36.3646 41.6391   2
 -10  -6   9 18680.7 436.038   2
  10  -6  -9 18669.6 434.005   2
  10   6  -9 18812.0 434.902   2
  10   6  -9 18177.9 291.745   1
 -10  -6   8 112.723 44.4717   2
  10  -6  -8 57.5490 38.9225   2
  10   6  -8 178.929 53.3023   2
 -10  -6   7 178.168 50.6470   2
  10  -6  -7 131.053 46.1561   2
  10   6  -7 140.388 42.3311   2
 -10   6   6 166.870 50.2248   2
 -10  -6   6 290.886 61.6599   2
  10  -6  -6 234.666 49.4213   2
  10   6  -6 282.035 61.7172   2
 -10   6   5 1356.91 109.545   2
 -10  -6   5 1469.93 121.219   2
  10  -6  -5 1356.59 111.998   2
  10   6  -5 1648.37 130.063   2
 -10   6   4 52.7808 40.2105   2
 -10  -6   4-14.0055 37.2912   2
  10  -6  -4-36.1783 33.5086   2
  10   6  -4-24.5407 35.8070   2
 -10   6   3 38537.0 535.295   2
 -10  -6   3 38558.7 592.899   2
  10  -6  -3 39534.9 544.868   2
  10   6  -3 39624.0 609.967   2
  10   6  -2 250.655 62.3909   2
 -10   6   2 171.237 44.3906   2
 -10  -6   2 116.056 44.9351   2
  10  -6  -2 237.628 49.9043   2
  10  -6  -1 119.914 40.8758   2
  10   6  -1 98.7519 48.7450   2
 -10   6   1 115.890 35.0981   2
 -10  -6   1 102.129 45.1174   2
  10  -6   0 272.816 52.1955   2
  10   6   0 203.151 57.0995   2
 -10   6   0 340.748 57.5272   2
 -10  -6   0 296.540 67.8685   2
  10  -6   1 5125.66 201.594   2
  10   6   1 5198.44 239.904   2
 -10   6  -1 5219.18 199.767   2
 -10  -6  -1 4818.32 235.338   2
  10  -6   2 8152.71 258.040   2
 -10   6  -2 8213.92 254.511   2
 -10  -6  -2 7996.14 304.809   2
  10  -6   3 9826.04 290.808   2
 -10   6  -3 9709.27 287.674   2
 -10  -6  -3 9255.22 335.955   2
 -10  -6  -4-31.7622 47.6188   2
  10  -6   4 3.42255 35.6052   2
 -10   6  -4-33.3801 38.9209   2
 -10  -6  -5 829.976 116.824   2
  10  -6   5 831.057 98.1337   2
 -10   6  -5 722.497 85.8473   2
 -10  -6  -6 341.906 87.4489   2
  10  -6   6 291.972 63.9239   2
 -10   6  -6 392.085 71.1405   2
 -10  -6  -7 214.132 69.6953   2
  10  -6   7 201.224 61.2440   2
 -10   6  -7 250.022 67.7476   2
 -10  -6  -8 61.7043 74.6433   2
 -10   6  -8 60.6225 52.9398   2
 -10   6  -9 13597.9 422.858   2
 -10  -6  -9 13913.7 502.806   2
 -10   6 -10 683.914 102.160   2
 -10  -6 -10 557.295 121.450   2
 -10  -6 -11 3911.48 292.560   2
 -10   6 -11 3745.06 240.268   2
 -10   6 -12 89.8363 70.0522   2
 -10   6 -13 2172.08 194.753   2
  10  -8 -19 177.353 101.626   1
  10  -8 -18 2829.64 246.796   1
  10  -8 -18 3034.50 267.624   2
  10  -8 -17 14.7866 68.0983   2
  10  -8 -17 111.918 91.9581   1
  10  -8 -16 147.570 78.6250   2
  10  -8 -16-51.9201 61.2701   1
  10  -8 -15 595.595 112.501   1
  10  -8 -14 3246.05 243.896   1
  10  -8 -13 29.3978 53.3976   1
  10  -8 -12 6325.04 319.253   1
 -10  -8  11 347.703 73.9801   2
  10  -8 -11 319.612 85.9286   1
  10  -8 -10 300.217 77.5403   1
 -10  -8  10 342.630 72.5768   2
  10   8 -10 153.500 17.7640   1
  10   8 -10 356.935 77.2672   2
 -10  -8   9 984.696 109.701   2
  10  -8  -9 920.118 102.370   2
  10  -8  -9 725.600 114.212   1
  10   8  -9 918.907 99.2145   2
  10   8  -9 600.383 36.7281   1
 -10  -8   8 9040.40 302.559   2
  10  -8  -8 9052.79 303.290   2
  10   8  -8 7492.36 152.576   1
  10   8  -8 9352.53 310.425   2
 -10  -8   7 168.240 56.4176   2
  10  -8  -7 86.6332 46.3488   2
  10   8  -7 73.6704 45.2844   2
 -10  -8   6 17800.6 417.488   2
  10  -8  -6 17464.8 395.091   2
  10   8  -6 17930.5 425.136   2
  10  -8  -5 788.335 85.5683   2
 -10  -8   5 835.463 93.3216   2
  10   8  -5 849.237 95.0193   2
 -10   8   4 13921.5 332.609   2
 -10  -8   4 13505.8 364.181   2
  10  -8  -4 13604.1 325.003   2
  10   8  -4 13553.4 366.989   2
  10   8  -3 298.900 64.1846   2
 -10   8   3 369.546 62.1061   2
 -10  -8   3 303.401 66.9561   2
  10  -8  -3 428.223 64.4217   2
  10   8  -2 27538.0 539.043   2
 -10   8   2 26527.0 441.402   2
 -10  -8   2 26740.0 519.759   2
  10  -8  -2 25896.8 429.356   2
  10   8  -1 1413.10 128.791   2
 -10   8   1 1395.93 100.598   2
 -10  -8   1 1341.49 125.693   2
  10  -8  -1 1425.92 101.798   2
 -10   8   0 9294.53 256.152   2
 -10  -8   0 9095.83 314.978   2
  10  -8   0 8935.64 251.416   2
  10  -8   1 631.165 76.4543   2
 -10   8  -1 625.118 70.5144   2
 -10  -8  -1 589.252 90.8345   2
  10  -8   2 2668.16 144.157   2
 -10   8  -2 2678.31 139.939   2
 -10  -8  -2 2540.66 177.947   2
  10  -8   3 1228.93 102.140   2
 -10   8  -3 1343.94 101.859   2
 -10  -8  -3 1433.24 140.391   2
 -10  -8  -4 798.024 112.559   2
  10  -8   4 743.544 83.9492   2
 -10   8  -4 806.880 83.2960   2
 -10  -8  -5 273.951 72.2231   2
  10  -8   5 279.721 62.5272   2
 -10   8  -5 167.383 48.4685   2
  10  -8   6 6620.84 259.758   2
 -10   8  -6 6441.75 249.056   2
 -10  -8  -6 6411.06 320.452   2
 -10  -8  -7 293.586 86.2886   2
 -10   8  -7 282.697 65.4523   2
  10  -8   7 290.148 69.6993   2
 -10   8  -8 6243.43 264.264   2
 -10  -8  -8 5982.99 328.406   2
 -10   8  -9 2090.19 157.539   2
 -10  -8  -9 2210.98 210.660   2
 -10   8 -10 1473.67 142.170   2
 -10  -8 -10 1570.27 184.066   2
 -10  -8 -11 335.975 104.306   2
 -10   8 -11 131.753 56.7438   2
  10 -10 -18 627.507 131.842   1
  10 -10 -18 700.862 139.329   2
  10 -10 -17 1545.84 195.014   2
  10 -10 -17 1497.69 192.835   1
  10 -10 -16-23.9664 67.1685   2
  10 -10 -16-38.4840 76.0122   1
  10 -10 -15 7554.93 385.984   2
  10 -10 -15 6856.44 369.728   1
  10 -10 -14 366.423 101.213   1
  10 -10 -13-33.5418 61.5803   1
  10 -10 -12-81.7288 75.4211   1
 -10 -10  11 8615.50 325.611   2
  10 -10 -11 8527.93 378.657   1
  10 -10 -10 486.925 94.3724   1
 -10 -10  10 399.820 77.3404   2
 -10 -10   9 2853.86 178.134   2
  10 -10  -9 2728.05 175.597   2
  10 -10  -9 3001.00 231.817   1
  10  10  -9 2710.56 177.761   2
 -10 -10   8 3015.70 179.653   2
  10 -10  -8 2827.64 173.882   2
  10  10  -8 2958.48 179.757   2
 -10 -10   7 2444.62 162.128   2
  10 -10  -7 2573.45 158.901   2
  10  10  -7 2399.05 161.302   2
  10  10  -6 758.815 48.5730   1
 -10 -10   6 991.049 108.361   2
  10 -10  -6 1101.61 100.997   2
  10  10  -6 963.628 107.340   2
  10  10  -5 935.849 65.4235   1
  10 -10  -5 834.297 87.5972   2
 -10 -10   5 880.373 102.388   2
  10  10  -5 884.991 102.260   2
  10  10  -4 1874.75 99.4179   1
 -10 -10   4 1846.10 145.470   2
  10 -10  -4 1876.78 124.176   2
  10  10  -4 1976.26 148.531   2
  10  10  -3 22281.9 493.407   2
  10  10  -3 20574.8 349.913   1
 -10 -10   3 21560.5 475.648   2
  10 -10  -3 20929.5 388.180   2
  10  10  -2 759.431 98.9201   2
 -10  10   2 660.611 70.3003   2
  10  10  -2 646.229 67.1442   1
 -10 -10   2 779.411 95.7707   2
  10 -10  -2 656.275 70.2298   2
  10 -10  -1 413.073 57.5562   2
 -10  10   1 549.372 66.0440   2
  10  10  -1 414.021 64.6802   1
 -10 -10   1 431.473 81.0555   2
  10 -10   0 1290.17 93.5078   2
  10  10   0 1338.39 110.432   1
 -10  10   0 1320.66 95.0800   2
 -10 -10   0 1332.33 131.839   2
  10 -10   1 9489.55 248.758   2
 -10  10  -1 9765.46 249.897   2
  10  10   1 10303.2 319.048   1
 -10 -10  -1 9973.29 358.645   2
  10 -10   2 1543.58 104.242   2
  10  10   2 1390.22 124.325   1
 -10  10  -2 1587.17 104.700   2
 -10 -10  -2 1463.10 143.168   2
  10 -10   3 15677.2 335.953   2
 -10  10  -3 15394.8 322.006   2
 -10 -10  -3 15925.0 476.361   2
 -10 -10  -4-6.06402 51.9363   2
 -10  10  -4 0.56422 28.5531   2
  10 -10   4-0.89201 32.4095   2
  10 -10   5 2007.87 129.306   2
 -10  10  -5 1963.09 120.967   2
 -10 -10  -5 2077.17 183.469   2
 -10 -10  -6 554.297 100.993   2
 -10  10  -6 631.892 77.0207   2
 -10  10  -7 3563.61 179.212   2
 -10 -10  -7 3609.21 254.104   2
 -10 -10  -8 274.038 87.8450   2
 -10  10  -8 211.985 56.4030   2
 -10 -10  -9 6658.85 367.462   2
 -10 -10 -10 222.480 86.6889   2
  10 -12 -17 264.562 102.674   2
  10 -12 -17 378.448 113.431   1
  10 -12 -16 119.389 69.3812   2
  10 -12 -16 88.0026 71.0343   1
  10 -12 -15 612.053 113.912   2
  10 -12 -15 431.052 106.250   1
  10 -12 -14 5290.05 336.489   1
  10 -12 -14 4982.15 310.517   2
  10 -12 -13 123.532 68.8986   2
  10 -12 -13 95.2615 83.2118   1
  10 -12 -12 1031.30 152.809   1
  10 -12 -11 396.212 96.4977   1
 -10 -12  11 636.588 93.9252   2
 -10 -12  10 528.597 84.0889   2
  10 -12 -10 609.808 126.402   1
  10 -12  -9 75.6988 63.4840   1
 -10 -12   9 135.993 48.0381   2
 -10 -12   8 2554.71 171.374   2
  10 -12  -8 2430.41 167.311   2
  10  12  -8 2624.35 179.444   2
  10 -12  -8 3114.88 232.531   1
  10  12  -7-5.03569 36.9168   2
 -10 -12   7 14.4973 38.2380   2
  10 -12  -7-11.7925 37.1618   2
 -10 -12   6 4376.01 221.587   2
  10 -12  -6 4035.38 196.291   2
  10  12  -6 4125.95 218.403   2
  10  12  -5 43.5490 58.4627   2
 -10 -12   5 20.6295 44.6346   2
  10 -12  -5 13.0337 33.8467   2
  10  12  -5 15.9378 17.8089   1
  10  12  -4 217.168 40.0795   1
 -10 -12   4 163.302 58.5936   2
  10 -12  -4 164.068 42.1125   2
  10  12  -3 2678.88 131.266   1
 -10 -12   3 2743.43 178.500   2
  10 -12  -3 2421.43 132.545   2
  10  12  -2 860.905 86.0261   1
 -10 -12   2 727.649 101.922   2
  10 -12  -2 558.643 63.9500   2
  10  12  -1 1119.26 100.606   1
 -10 -12   1 1072.50 119.742   2
  10 -12  -1 928.035 76.1032   2
  10 -12   0 36832.5 458.125   2
 -10  12   0 37092.9 458.070   2
  10  12   0 37657.0 587.287   1
 -10 -12   0 39992.8 720.185   2
  10  12   1 65.2541 43.8610   1
  10 -12   1 12.8481 29.7166   2
 -10  12  -1 51.1558 32.2943   2
 -10 -12  -1 15.8852 49.1282   2
 -10  12  -2 427.089 52.7139   2
  10 -12   2 378.930 49.6852   2
 -10 -12  -2 385.430 79.2309   2
 -10  12  -3 1190.79 80.4352   2
  10 -12   3 1187.54 85.0608   2
 -10 -12  -3 1289.25 139.423   2
 -10 -12  -4 753.477 113.242   2
 -10  12  -4 693.605 64.9224   2
 -10 -12  -5 1200.07 147.982   2
 -10  12  -5 1055.93 79.4211   2
 -10 -12  -6 6850.43 354.879   2
 -10 -12  -7 743.844 129.585   2
 -10 -12  -8 2367.84 222.283   2
 -10 -12  -9 499.757 113.605   2
  10 -14 -16 377.092 106.229   2
  10 -14 -15 3660.57 271.810   2
  10 -14 -15 3322.97 284.229   1
  10 -14 -14 393.292 100.424   2
  10 -14 -14 155.597 80.7019   1
  10 -14 -13 580.073 120.681   2
  10 -14 -13 748.681 139.812   1
  10 -14 -12 268.101 83.1294   2
  10 -14 -12 353.384 107.128   1
  10 -14 -11 4650.29 314.090   1
  10 -14 -11 4291.30 266.544   2
  10 -14 -10 488.655 87.7314   2
 -10 -14  10 470.019 88.4275   2
  10 -14 -10 478.978 107.886   1
  10 -14  -9 2833.58 237.858   1
 -10 -14   9 2577.42 177.753   2
 -10 -14   8 1325.17 130.371   2
  10 -14  -8 1222.05 121.523   2
  10 -14  -8 1169.16 159.782   1
 -10 -14   7 3541.14 204.852   2
  10 -14  -7 3673.30 197.430   2
  10 -14  -7 3174.55 249.350   1
 -10 -14   6 1283.26 125.663   2
  10 -14  -6 1140.48 109.190   2
 -10 -14   5 13923.7 404.763   2
  10 -14  -5 12693.0 330.936   2
  10  14  -4 567.730 54.9152   1
 -10 -14   4 729.570 100.236   2
  10 -14  -4 652.229 77.1135   2
  10  14  -3 10624.5 260.480   1
 -10 -14   3 11144.7 369.990   2
  10 -14  -3 9704.51 250.934   2
  10 -14  -2 39.5835 28.6106   2
 -10 -14   2-30.6894 43.8486   2
  10  14  -2-2.13176 30.0554   1
  10  14  -1 853.860 86.4683   1
 -10 -14   1 835.414 115.040   2
  10 -14  -1 748.155 61.9889   2
 -10 -14   0 1957.31 167.258   2
  10  14   0 1641.20 128.322   1
 -10 -14  -1 3702.79 238.265   2
  10  14   1 3549.94 200.647   1
 -10 -14  -2 611.901 112.310   2
 -10 -14  -3 11371.2 441.333   2
 -10 -14  -4 2466.86 213.941   2
 -10 -14  -5 2732.59 231.946   2
 -10 -14  -6 948.514 144.495   2
 -10 -14  -7 1795.33 204.646   2
 -10 -14  -8 1090.40 165.628   2
  10 -16 -16 430.483 123.920   2
  10 -16 -15 190.398 92.5651   2
  10 -16 -14 1639.94 185.650   2
  10 -16 -13 310.599 86.7200   2
  10 -16 -13 384.711 112.192   1
  10 -16 -12 2969.81 266.519   1
  10 -16 -12 3000.94 229.660   2
  10 -16 -11 914.143 129.324   2
  10 -16 -11 473.697 123.443   1
  10 -16 -10 228.460 67.5522   2
  10 -16 -10 154.126 73.3136   1
 -10 -16  10 208.622 65.5433   2
  10 -16  -9 855.618 108.279   2
 -10 -16   9 1006.95 113.558   2
  10 -16  -9 755.628 132.662   1
  10 -16  -8 6373.66 361.048   1
 -10 -16   8 6612.32 289.505   2
  10 -16  -8 6480.91 283.214   2
 -10 -16   7 3177.04 200.398   2
  10 -16  -7 2650.50 235.889   1
  10 -16  -7 3276.50 193.334   2
 -10 -16   6 3818.81 216.004   2
  10 -16  -6 3852.10 201.991   2
  10 -16  -6 3688.18 273.258   1
  10 -16  -5 85.8346 50.9986   2
 -10 -16   5 120.217 67.4443   2
 -10 -16   4 852.353 110.007   2
  10 -16  -4 926.012 90.0411   2
  10 -16  -3 57.8581 32.0118   2
 -10 -16   3 8.29379 50.9601   2
 -10 -16   2 6239.08 295.997   2
 -10 -16   1 28.0184 54.6459   2
 -10 -16   0 8539.24 359.232   2
 -10 -16  -1 1722.92 168.894   2
 -10 -16  -2 104.682 66.4299   2
 -10 -16  -3 496.295 107.911   2
 -10 -16  -4 1641.92 184.649   2
 -10 -16  -5 263.700 89.7003   2
 -10 -16  -6 2897.33 261.741   2
 -10 -16  -7 167.157 79.5858   2
  10 -18 -15 1284.98 175.668   2
  10 -18 -14 160.420 94.2428   2
  10 -18 -13 82.2424 73.0593   2
  10 -18 -12 673.346 123.836   2
  10 -18 -11 2800.93 264.456   1
  10 -18 -11 2523.39 209.481   2
  10 -18 -10 162.576 82.5668   1
  10 -18 -10 155.030 56.6251   2
 -10 -18   9 4386.35 238.064   2
  10 -18  -9 4310.71 323.478   1
  10 -18  -9 4922.15 265.432   2
 -10 -18   8 430.532 83.4448   2
  10 -18  -8 329.645 95.4790   1
  10 -18  -7 914.593 146.401   1
 -10 -18   7 871.535 111.232   2
 -10 -18   6 1116.18 128.867   2
  10 -18  -6 642.052 134.428   1
  10 -18  -5 550.927 128.890   1
 -10 -18   5 470.629 89.6246   2
 -10 -18   4 71.3576 52.6844   2
 -10 -18   3 11381.7 400.145   2
 -10 -18   2 38.5179 54.5214   2
 -10 -18   1 540.763 108.285   2
 -10 -18   0 604.727 114.865   2
 -10 -18  -1 1091.62 144.602   2
 -10 -18  -2 198.259 76.4753   2
 -10 -18  -3 3617.74 266.895   2
 -10 -18  -4 404.429 104.550   2
 -10 -18  -5 231.253 90.7484   2
  10 -20  -8 914.784 178.940   1
  10 -20  -7 381.590 130.966   1
  10 -20  -6 2059.03 237.421   1
  10 -20  -5 643.432 140.960   1
  10 -20  -4 1565.19 206.438   1
 -10 -20   4 3019.85 207.712   2
  10 -20  -3 223.924 99.0472   1
 -10 -20   3 136.811 63.8832   2
 -10 -20   2 2913.81 213.198   2
 -10 -20   1 242.439 79.0407   2
 -10 -20   0 2800.90 221.280   2
 -10 -20  -1 133.569 82.0531   2
 -10 -20  -2 1193.95 161.837   2
 -10 -20  -3 215.218 85.9035   2
 -10 -20  -4 1986.73 214.607   2
  10 -22  -2 286.556 115.550   1
  10 -22  -1 649.995 141.566   1
  11  -1 -20 540.775 112.811   1
  11   1 -19 3545.86 240.408   1
  11  -1 -19 3702.68 263.722   1
  11   1 -18 86.9356 68.6484   1
  11  -1 -18 0.43178 58.0029   1
  11   1 -17 1917.10 167.272   1
  11  -1 -17 1923.12 182.139   1
  11   1 -16 4959.94 254.939   1
  11  -1 -16 4986.95 274.549   1
  11   1 -15-28.6139 58.8773   1
  11  -1 -15 39.0557 51.2434   1
  11  -1 -14 2846.89 197.779   1
  11   1 -14 2890.41 184.607   1
  11   1 -13 3016.31 184.020   1
  11  -1 -13 2904.55 192.986   1
  11   1 -12 834.487 101.255   1
  11  -1 -12 886.829 111.963   1
  11  -1 -11 142.400 63.6302   1
  11   1 -11-5.89559 43.5000   1
 -11  -1  10 441.595 84.8070   2
  11   1 -10 448.116 74.7548   1
 -11   1   9 4.48347 37.2902   2
 -11  -1   9 85.8231 42.4659   2
  11  -1  -9-32.5142 36.5189   2
  11   1  -9 42.5082 41.4589   2
 -11   1   8 2699.95 170.731   2
 -11  -1   8 2506.51 159.584   2
  11  -1  -8 2589.70 161.426   2
  11   1  -8 2688.00 164.230   2
 -11   1   7 1398.55 117.071   2
 -11  -1   7 1412.77 120.390   2
  11  -1  -7 1433.66 119.760   2
  11   1  -7 1563.37 122.606   2
 -11   1   6 80.3400 38.8827   2
 -11  -1   6 71.0072 42.7985   2
  11  -1  -6 41.4309 34.7712   2
  11   1  -6 25.3024 33.2241   2
 -11   1   5 5244.69 219.621   2
 -11  -1   5 5152.79 219.800   2
  11  -1  -5 5388.74 221.572   2
  11   1  -5 5259.13 223.918   2
 -11   1   4 2671.18 155.427   2
 -11  -1   4 2716.71 158.590   2
  11  -1  -4 2830.34 164.288   2
  11   1  -4 2837.57 163.189   2
 -11   1   3 428.011 68.3143   2
 -11  -1   3 421.185 69.0653   2
  11  -1  -3 458.861 75.1190   2
  11   1  -3 435.762 68.6235   2
 -11   1   2 10054.3 299.484   2
 -11  -1   2 9650.63 297.364   2
  11  -1  -2 10222.9 303.113   2
  11   1  -2 10618.9 317.672   2
 -11   1   1 22751.4 451.741   2
 -11  -1   1 23389.9 469.228   2
  11  -1  -1 23646.4 465.521   2
  11   1  -1 23870.3 475.039   2
  11  -1   0 295.954 59.1534   2
  11   1   0 252.304 63.2008   2
 -11   1   0 157.562 50.3237   2
 -11  -1   0 169.931 52.9076   2
  11  -1   1 7424.53 274.688   2
  11   1   1 7406.08 279.575   2
 -11   1  -1 6984.80 265.654   2
 -11  -1  -1 7182.70 275.742   2
  11  -1   2 4629.73 222.378   2
  11   1   2 4522.04 226.064   2
 -11   1  -2 4597.32 226.405   2
 -11  -1  -2 4411.76 225.059   2
  11  -1   3 1727.16 142.328   2
 -11   1  -3 1723.11 141.136   2
 -11  -1  -3 1709.89 144.031   2
 -11   1  -4 4796.36 239.901   2
 -11  -1  -4 4504.44 241.186   2
 -11   1  -5 25028.8 565.261   2
 -11  -1  -5 24594.4 572.975   2
 -11   1  -6 6740.16 302.877   2
 -11  -1  -6 6714.74 314.135   2
 -11   1  -7 976.491 131.015   2
 -11  -1  -7 1143.73 141.600   2
 -11   1  -8 23108.1 603.640   2
 -11  -1  -8 22574.4 614.593   2
 -11   1  -9 809.448 125.629   2
 -11  -1  -9 840.980 127.207   2
 -11   1 -10 7957.75 380.303   2
 -11  -1 -10 7945.47 391.735   2
 -11  -1 -11 1407.60 175.234   2
 -11   1 -11 1625.71 186.059   2
 -11   1 -12 571.844 122.237   2
 -11  -1 -12 323.555 100.011   2
 -11   1 -13 1857.71 198.972   2
  11  -3 -21 29.9842 72.2871   1
  11  -3 -20 406.250 108.923   1
  11  -3 -19 1961.28 200.663   1
  11   3 -18 1053.36 118.812   1
  11  -3 -18 1233.18 158.031   1
  11   3 -17 2288.48 164.957   1
  11  -3 -17 2382.34 212.777   1
  11   3 -16 2912.79 180.593   1
  11  -3 -16 2927.91 221.550   1
  11   3 -15 35.0601 43.2429   1
  11  -3 -15 56.0088 63.6599   1
  11  -3 -14 609.522 105.301   1
  11   3 -14 683.376 88.5080   1
  11  -3 -13 1819.70 166.688   1
  11   3 -13 1516.00 119.583   1
  11   3 -12 794.608 88.4468   1
  11  -3 -12 840.724 112.060   1
  11  -3 -11 5201.58 261.075   1
  11   3 -11 5530.97 217.740   1
  11  -3 -10 12364.5 394.198   1
 -11  -3  10 13745.2 392.478   2
  11   3 -10 13040.8 328.263   1
 -11  -3   9 3441.67 193.817   2
  11  -3  -9 3451.24 195.691   2
  11   3  -9 3457.09 191.911   2
 -11   3   8 4873.92 221.441   2
 -11  -3   8 4805.59 224.859   2
  11  -3  -8 5120.97 225.099   2
  11   3  -8 4917.98 224.484   2
 -11   3   7 8124.36 281.474   2
 -11  -3   7 7839.53 275.165   2
  11  -3  -7 8221.99 288.935   2
  11   3  -7 8183.28 283.550   2
 -11   3   6 147.973 46.3746   2
 -11  -3   6 105.100 48.9600   2
  11  -3  -6 146.626 46.2659   2
  11   3  -6 104.404 43.3334   2
 -11   3   5 4175.28 190.812   2
 -11  -3   5 3960.98 194.585   2
  11  -3  -5 4351.30 198.257   2
  11   3  -5 4027.53 195.285   2
 -11   3   4 15504.4 369.420   2
 -11  -3   4 15446.8 377.587   2
  11  -3  -4 15692.4 376.046   2
  11   3  -4 16058.0 391.782   2
 -11   3   3 7144.13 246.688   2
 -11  -3   3 7116.26 260.576   2
  11  -3  -3 7257.91 253.508   2
  11   3  -3 7264.80 267.936   2
 -11   3   2 10313.0 297.825   2
 -11  -3   2 10361.5 312.667   2
  11  -3  -2 10634.3 306.420   2
  11   3  -2 10339.7 318.546   2
 -11   3   1 7112.72 250.390   2
 -11  -3   1 6936.46 265.665   2
  11  -3  -1 7050.71 254.042   2
  11   3  -1 7276.38 272.928   2
  11  -3   0 17.7133 37.9003   2
  11   3   0 4.23689 35.8578   2
 -11   3   0 25.3563 40.8891   2
 -11  -3   0 32.9730 41.6661   2
  11  -3   1 14598.6 375.947   2
  11   3   1 14087.1 395.235   2
 -11   3  -1 14116.9 364.190   2
 -11  -3  -1 13662.4 387.899   2
  11  -3   2 20965.3 458.533   2
 -11   3  -2 20669.2 451.164   2
 -11  -3  -2 20380.8 484.166   2
  11  -3   3 15.1524 33.8704   2
 -11   3  -3 36.3155 41.3810   2
 -11  -3  -3 34.6732 48.4028   2
  11  -3   4 8168.77 300.947   2
 -11   3  -4 8003.42 300.122   2
 -11  -3  -4 8190.20 330.532   2
 -11   3  -5 10051.7 348.681   2
 -11  -3  -5 9454.13 364.223   2
 -11  -3  -6 492.854 93.3924   2
 -11   3  -6 397.613 77.9988   2
 -11   3  -7 15476.5 461.664   2
 -11  -3  -7 15482.8 504.223   2
 -11   3  -8 2831.79 207.195   2
 -11  -3  -8 2854.86 226.650   2
 -11   3  -9 121.227 60.8181   2
 -11  -3  -9 64.5753 73.8287   2
 -11   3 -10 3854.58 258.119   2
 -11  -3 -10 3930.93 279.685   2
 -11  -3 -11 1309.66 175.024   2
 -11   3 -11 1422.37 169.621   2
 -11   3 -12 666.092 118.921   2
 -11  -3 -12 666.119 134.962   2
 -11   3 -13 5515.06 340.677   2
  11  -5 -21-26.3426 88.5188   1
  11  -5 -20 366.351 114.513   1
  11  -5 -19 57.6566 81.4237   2
  11  -5 -19 134.190 74.7100   1
  11  -5 -18 1104.25 155.846   1
  11  -5 -17 2021.31 203.269   1
  11   5 -16 3980.89 185.698   1
  11  -5 -16 3913.21 263.156   1
  11  -5 -15 2833.74 221.678   1
  11   5 -15 2853.23 153.365   1
  11  -5 -14 124.487 77.1683   1
  11   5 -14 17.6287 29.2489   1
  11   5 -13 663.914 73.5775   1
  11  -5 -13 860.638 126.465   1
  11  -5 -12 119.081 62.4278   1
  11   5 -12 206.011 47.3393   1
 -11  -5  11 2398.20 173.667   2
  11  -5 -11 2257.68 185.952   1
  11   5 -11 2298.86 125.120   1
  11   5 -10 1194.63 92.8200   1
 -11  -5  10 1178.39 123.855   2
  11  -5 -10 1290.55 137.907   1
 -11  -5   9 199.748 63.1598   2
  11  -5  -9 108.760 47.9546   2
  11   5  -9 142.455 50.5957   2
 -11  -5   8 12819.7 365.280   2
  11  -5  -8 13333.1 370.417   2
  11   5  -8 13270.4 369.323   2
 -11   5   7 15385.2 381.769   2
 -11  -5   7 14701.2 380.767   2
  11  -5  -7 15287.1 385.830   2
  11   5  -7 15398.5 396.214   2
 -11   5   6 558.653 76.8215   2
 -11  -5   6 420.723 74.2611   2
  11  -5  -6 572.241 79.4325   2
  11   5  -6 534.985 81.0414   2
 -11   5   5 12089.0 327.138   2
 -11  -5   5 11983.2 339.280   2
  11  -5  -5 12480.0 333.251   2
  11   5  -5 12601.6 354.409   2
 -11   5   4 18324.8 395.479   2
 -11  -5   4 18438.6 429.961   2
  11  -5  -4 18939.1 405.500   2
  11   5  -4 18622.5 435.044   2
 -11   5   3 3918.94 182.789   2
 -11  -5   3 3933.80 199.775   2
  11  -5  -3 3649.12 177.326   2
  11   5  -3 3922.85 204.346   2
  11   5  -2 705.028 87.7401   2
 -11   5   2 903.782 91.3218   2
 -11  -5   2 737.540 92.7894   2
  11  -5  -2 799.222 84.8892   2
  11   5  -1 14197.3 398.333   2
 -11   5   1 14061.1 344.990   2
 -11  -5   1 13955.5 385.944   2
  11  -5  -1 14200.1 348.169   2
  11  -5   0 492.475 70.8360   2
 -11   5   0 498.769 70.5783   2
 -11  -5   0 520.801 87.5482   2
  11  -5   1 10809.8 313.317   2
 -11   5  -1 11111.8 312.554   2
 -11  -5  -1 10242.1 343.817   2
  11  -5   2 6431.05 250.585   2
 -11   5  -2 6476.56 246.256   2
 -11  -5  -2 5979.25 273.196   2
  11  -5   3 1233.58 116.975   2
 -11   5  -3 1164.89 109.720   2
 -11  -5  -3 1175.84 130.905   2
  11  -5   4 1587.00 132.112   2
 -11   5  -4 1730.01 140.835   2
 -11  -5  -4 1561.04 149.382   2
  11  -5   5 1292.63 123.924   2
 -11   5  -5 1306.17 123.531   2
 -11  -5  -5 1432.71 153.857   2
 -11   5  -6 6075.41 270.074   2
 -11  -5  -6 5827.48 304.575   2
 -11   5  -7 2842.57 194.156   2
 -11  -5  -7 2871.31 223.931   2
 -11   5  -8 2212.15 178.946   2
 -11  -5  -8 2232.33 206.007   2
 -11   5  -9-74.8729 67.6725   2
 -11  -5  -9 76.3667 65.0848   2
 -11   5 -10 3147.03 225.711   2
 -11  -5 -10 3451.95 268.916   2
 -11   5 -11 99.8465 57.3657   2
 -11  -5 -11 76.7522 67.4559   2
 -11   5 -12 29.4665 61.8209   2
 -11   5 -13 889.728 136.646   2
  11  -7 -20 42.2598 76.9313   1
  11  -7 -19 761.169 143.661   1
  11  -7 -18 292.083 98.0335   1
  11  -7 -18 174.369 75.7211   2
  11  -7 -17 214.759 87.6102   1
  11  -7 -16 2216.32 207.883   1
  11  -7 -15 228.617 74.2020   1
  11  -7 -14 1218.40 151.964   1
  11   7 -13 540.582 50.2054   1
  11  -7 -13 485.605 99.3321   1
  11  -7 -12 263.357 90.9091   1
  11   7 -12 100.058 27.9451   1
  11  -7 -11 6075.00 306.343   1
 -11  -7  11 5899.84 268.843   2
  11   7 -11 5427.84 150.282   1
 -11  -7  10 15370.7 424.861   2
  11   7 -10 14216.1 249.236   1
  11  -7 -10 14130.6 462.797   1
 -11  -7   9 3962.05 212.407   2
  11  -7  -9 4116.94 213.863   2
  11   7  -9 4221.21 143.154   1
 -11  -7   8 3713.94 201.019   2
  11  -7  -8 3788.65 200.318   2
  11   7  -8 3701.68 202.891   2
 -11  -7   7 3748.42 200.001   2
  11  -7  -7 3699.91 194.411   2
  11   7  -7 3893.13 209.004   2
 -11   7   6 96.3453 47.0591   2
 -11  -7   6 47.1740 43.4113   2
  11  -7  -6-13.5331 32.6912   2
  11   7  -6 9.80520 38.1397   2
 -11   7   5 21059.9 435.953   2
 -11  -7   5 19829.8 450.663   2
  11  -7  -5 20635.0 432.429   2
  11   7  -5 20470.7 468.792   2
 -11   7   4 17778.6 389.683   2
 -11  -7   4 17913.2 430.939   2
  11  -7  -4 17776.1 391.574   2
  11   7  -4 18387.5 445.986   2
 -11   7   3 5551.53 219.667   2
 -11  -7   3 5665.24 248.215   2
  11  -7  -3 5813.24 221.231   2
  11   7  -3 6069.00 256.395   2
 -11   7   2 7085.99 240.868   2
 -11  -7   2 6790.19 272.849   2
  11  -7  -2 7114.07 242.087   2
 -11   7   1 12851.9 322.676   2
 -11  -7   1 12720.9 377.649   2
  11  -7  -1 12889.1 325.464   2
 -11   7   0 928.541 88.8910   2
 -11  -7   0 1125.27 122.658   2
  11  -7   0 1002.91 94.2034   2
  11  -7   1 16688.8 380.646   2
 -11   7  -1 16980.4 377.094   2
 -11  -7  -1 16045.2 445.245   2
  11  -7   2 5434.23 226.153   2
 -11   7  -2 5407.83 219.044   2
 -11  -7  -2 5447.35 267.663   2
  11  -7   3 221.706 57.2771   2
 -11   7  -3 162.066 48.5558   2
 -11  -7  -3 164.058 66.0097   2
 -11  -7  -4 118.338 61.1329   2
  11  -7   4 100.438 46.1743   2
 -11   7  -4 193.170 61.4042   2
  11  -7   5 2752.99 172.999   2
 -11   7  -5 2761.44 172.648   2
 -11  -7  -5 2880.78 211.649   2
 -11  -7  -6 199.302 74.4416   2
  11  -7   6 100.276 38.0685   2
 -11   7  -6 217.264 62.0394   2
 -11   7  -7 3687.48 210.227   2
 -11  -7  -7 3753.44 264.043   2
 -11   7  -8 5217.82 258.376   2
 -11  -7  -8 5436.66 319.612   2
 -11  -7  -9 39.8503 68.6395   2
 -11   7  -9-3.31624 42.8404   2
 -11   7 -10 4634.85 259.248   2
 -11  -7 -10 4934.80 328.890   2
 -11   7 -11 247.795 72.9288   2
  11  -9 -18 121.917 70.2300   2
  11  -9 -18 217.499 105.313   1
  11  -9 -17 937.810 157.468   2
  11  -9 -17 777.606 129.792   1
  11  -9 -16 880.644 144.659   1
  11  -9 -15 472.273 111.403   1
  11  -9 -14-15.5591 68.3402   1
  11  -9 -13 2976.51 235.355   1
  11  -9 -12 658.427 118.497   1
 -11  -9  11 1626.36 147.837   2
  11  -9 -11 1403.12 159.039   1
  11  -9 -10 991.003 134.802   1
 -11  -9  10 890.543 108.699   2
  11   9  -9 1704.38 55.6890   1
 -11  -9   9 2869.72 188.882   2
 -11  -9   8 1359.20 128.451   2
  11  -9  -8 1367.21 125.126   2
 -11  -9   7 4729.85 231.806   2
  11  -9  -7 4448.50 215.044   2
 -11  -9   6 550.459 83.2974   2
  11  -9  -6 602.450 78.7660   2
 -11  -9   5 10070.1 333.423   2
  11  -9  -5 9406.37 290.942   2
 -11   9   4 23926.0 453.334   2
 -11  -9   4 23878.4 514.277   2
  11  -9  -4 23297.4 448.252   2
 -11   9   3 2791.18 154.787   2
 -11  -9   3 2924.31 184.710   2
  11  -9  -3 2797.91 152.954   2
 -11   9   2 6679.66 230.779   2
 -11  -9   2 6416.57 275.207   2
  11  -9  -2 6382.85 226.676   2
 -11   9   1 2481.32 141.595   2
 -11  -9   1 2716.82 184.647   2
  11  -9  -1 2306.32 135.633   2
  11  -9   0 190.149 48.3058   2
 -11   9   0 171.590 50.9834   2
 -11  -9   0 181.172 61.7954   2
  11  -9   1 5586.42 211.581   2
 -11   9  -1 5698.55 210.242   2
 -11  -9  -1 5929.01 283.335   2
  11  -9   2 1413.75 109.162   2
 -11   9  -2 1433.97 109.520   2
 -11  -9  -2 1388.69 147.150   2
  11  -9   3 14.1062 31.8380   2
 -11   9  -3-27.9479 39.5517   2
  11  -9   4 6479.87 244.735   2
 -11   9  -4 6718.37 240.741   2
 -11  -9  -4 6503.49 318.362   2
  11  -9   5 2697.13 164.147   2
 -11   9  -5 2595.53 153.176   2
 -11  -9  -5 2933.60 221.521   2
 -11  -9  -6 468.268 109.584   2
 -11   9  -6 250.651 60.1795   2
 -11   9  -7 12615.6 361.921   2
 -11  -9  -7 12823.0 492.129   2
 -11  -9  -8 635.700 128.990   2
 -11   9  -8 645.636 90.5880   2
 -11  -9  -9 509.169 116.536   2
 -11   9  -9 391.440 81.7261   2
  11 -11 -17 923.143 159.931   2
  11 -11 -17 914.000 151.006   1
  11 -11 -16 5359.50 345.223   2
  11 -11 -16 5184.25 337.776   1
  11 -11 -15 188.390 88.5219   2
  11 -11 -15 175.656 91.1208   1
  11 -11 -14 1285.94 170.300   1
  11 -11 -13 572.187 119.410   1
  11 -11 -12 1088.38 154.516   1
 -11 -11  11 406.321 82.7184   2
  11 -11 -11 344.555 98.6094   1
 -11 -11  10 3187.96 202.438   2
  11 -11 -10 3011.50 237.084   1
  11 -11  -9 16.6508 66.3989   1
 -11 -11   9 57.4326 46.9971   2
 -11 -11   8 3380.88 200.360   2
  11 -11  -8 3355.55 199.466   2
 -11 -11   7 1745.19 148.651   2
  11 -11  -7 1729.05 141.608   2
  11  11  -7 1008.40 48.4501   1
 -11 -11   6 105.544 56.4347   2
  11 -11  -6 122.430 43.6343   2
  11  11  -6 119.617 26.0228   1
  11  11  -5 901.387 66.6847   1
 -11 -11   5 1062.44 117.920   2
  11 -11  -5 1018.74 98.4391   2
 -11 -11   4 236.344 65.0765   2
  11  11  -4 232.832 42.6694   1
  11 -11  -4 166.601 46.2851   2
  11  11  -3 2925.89 141.725   1
 -11 -11   3 3053.83 191.356   2
  11 -11  -3 3009.38 153.308   2
 -11  11   2 993.269 87.6715   2
  11  11  -2 864.893 83.2929   1
 -11 -11   2 1091.45 122.929   2
  11 -11  -2 936.026 85.8329   2
 -11  11   1 10606.0 284.997   2
  11  11  -1 10864.8 309.637   1
 -11 -11   1 11365.3 384.554   2
  11 -11  -1 10391.1 274.858   2
  11 -11   0 442.841 63.3203   2
 -11  11   0 493.723 66.3087   2
  11  11   0 585.243 84.4335   1
 -11 -11   0 544.668 95.2555   2
  11 -11   1 390.016 58.9957   2
 -11  11  -1 408.857 59.5398   2
  11  11   1 397.268 69.1326   1
 -11 -11  -1 439.260 88.5536   2
  11 -11   2 8455.07 248.533   2
 -11  11  -2 8567.59 248.433   2
 -11 -11  -2 9372.52 371.775   2
 -11  11  -3 359.807 56.3107   2
  11 -11   3 375.123 60.7588   2
 -11 -11  -3 356.495 78.0914   2
 -11  11  -4 1535.00 107.940   2
 -11 -11  -4 1414.32 159.795   2
 -11 -11  -5 75.6921 66.5206   2
 -11  11  -5 102.810 36.4251   2
 -11  11  -6 1811.47 124.125   2
 -11 -11  -6 2153.53 205.002   2
 -11 -11  -7 5077.45 320.442   2
 -11 -11  -8 5817.87 350.491   2
  11 -13 -17 558.436 128.551   2
  11 -13 -16 1450.29 181.323   2
  11 -13 -15 387.755 108.788   2
  11 -13 -15 558.244 143.860   1
  11 -13 -14 381.251 106.904   1
  11 -13 -14 122.404 63.9540   2
  11 -13 -13 3854.39 264.069   2
  11 -13 -13 3956.19 300.813   1
  11 -13 -12 238.283 84.8500   1
 -11 -13  11 593.693 96.4835   2
  11 -13 -11 565.504 130.341   1
  11 -13 -10 428.028 107.097   1
 -11 -13  10 499.318 93.3216   2
 -11 -13   9 102.192 53.4765   2
  11 -13  -9 192.726 92.1484   1
  11 -13  -8 3799.80 270.381   1
 -11 -13   8 3547.49 210.195   2
  11 -13  -8 3464.45 205.401   2
 -11 -13   7 2045.47 164.288   2
  11 -13  -7 1859.54 147.936   2
 -11 -13   6 2950.80 193.933   2
  11 -13  -6 2457.50 160.276   2
  11  13  -6 1871.91 69.9221   1
  11  13  -5 1482.00 80.9561   1
 -11 -13   5 1591.69 144.129   2
  11 -13  -5 1755.04 128.523   2
 -11 -13   4 3060.69 202.738   2
  11 -13  -4 2710.20 151.266   2
  11  13  -4 2957.04 132.664   1
  11  13  -3 538.702 65.9487   1
 -11 -13   3 559.315 94.1111   2
  11 -13  -3 465.747 65.9893   2
  11 -13  -2-9.87709 33.2610   2
  11  13  -2 76.5634 38.7332   1
 -11 -13   2 20.2347 46.1088   2
  11  13  -1 8894.74 288.310   1
 -11 -13   1 9307.56 362.882   2
  11 -13  -1 8119.06 228.661   2
  11  13   0 171.156 54.1736   1
  11 -13   0 120.600 35.4247   2
 -11 -13   0 202.163 70.3504   2
 -11  13  -1 2737.63 124.151   2
 -11 -13  -1 2682.60 202.764   2
 -11  13  -2 3307.87 136.707   2
 -11 -13  -2 3660.43 249.394   2
 -11 -13  -3 273.560 78.8224   2
 -11 -13  -4 5564.81 318.660   2
 -11 -13  -5 6118.21 343.459   2
 -11 -13  -6 7.78917 63.9997   2
 -11 -13  -7 2089.12 213.490   2
  11 -15 -16 3035.37 268.787   2
  11 -15 -15 236.083 100.522   2
  11 -15 -14 1148.58 181.330   1
  11 -15 -14 1100.90 152.064   2
  11 -15 -13 335.320 95.9815   2
  11 -15 -13 310.871 98.1097   1
  11 -15 -12 318.898 105.560   2
  11 -15 -12 370.570 119.999   1
  11 -15 -11 231.747 82.2853   2
  11 -15 -11 460.697 119.823   1
 -11 -15  11 177.363 64.0343   2
  11 -15 -10 4484.87 262.116   2
 -11 -15  10 4545.55 252.888   2
  11 -15 -10 4322.11 312.149   1
  11 -15  -9 317.606 92.6054   1
  11 -15  -9 414.498 85.1559   2
 -11 -15   9 280.968 68.0498   2
 -11 -15   8 5104.58 255.731   2
  11 -15  -8 4750.37 322.677   1
 -11 -15   7 117.012 57.0026   2
  11 -15  -7 233.017 87.2739   1
 -11 -15   6 1277.25 134.147   2
 -11 -15   5 65.4180 54.8456   2
 -11 -15   4 2835.66 201.549   2
 -11 -15   3 1126.34 129.870   2
 -11 -15   2 2259.57 181.358   2
 -11 -15   1 250.544 81.8546   2
 -11 -15   0 25.2184 50.1598   2
 -11 -15  -1 128.006 72.0747   2
 -11 -15  -2 4185.61 273.300   2
 -11 -15  -3-85.5153 65.9198   2
 -11 -15  -4 1704.71 190.952   2
 -11 -15  -5 187.594 97.0906   2
 -11 -15  -6 219.362 87.5343   2
  11 -17 -15-78.5127 67.0318   2
  11 -17 -14 207.082 95.0488   2
  11 -17 -13 1327.89 165.568   2
  11 -17 -12 215.626 88.2136   2
  11 -17 -11 1274.53 149.885   2
 -11 -17  11 1385.97 145.634   2
  11 -17 -11 1242.88 186.404   1
  11 -17 -10 300.338 66.4098   2
  11 -17 -10 358.013 103.627   1
 -11 -17  10 176.046 64.4781   2
  11 -17  -9 1159.21 140.995   2
 -11 -17   9 1009.95 126.457   2
  11 -17  -9 1029.81 168.399   1
  11 -17  -8 83.3862 57.7219   2
  11 -17  -8 33.4312 67.5923   1
 -11 -17   8-43.0850 57.3810   2
 -11 -17   7 3743.38 228.164   2
  11 -17  -7 3496.52 285.067   1
  11 -17  -7 3858.15 217.005   2
  11 -17  -6 160.670 95.2513   1
 -11 -17   6 290.866 72.7234   2
 -11 -17   5 4206.09 245.576   2
 -11 -17   4 5592.56 287.867   2
 -11 -17   3 439.629 97.7618   2
 -11 -17   2 64.3381 57.2212   2
 -11 -17   1 9739.35 394.687   2
 -11 -17   0 1095.74 144.913   2
 -11 -17  -1 261.180 87.9445   2
 -11 -17  -2 406.799 107.974   2
 -11 -17  -3 61.3040 59.6974   2
 -11 -17  -4 560.058 128.223   2
 -11 -17  -5 2063.37 223.981   2
  11 -19  -8 1687.33 238.231   1
  11 -19  -7 153.000 96.4005   1
 -11 -19   7 108.723 67.2635   2
 -11 -19   6 80.8586 54.9488   2
  11 -19  -6 66.4702 98.2446   1
 -11 -19   5 3038.03 216.163   2
  11 -19  -5 1960.39 214.584   1
 -11 -19   4 4028.09 249.953   2
 -11 -19   3 1212.36 147.970   2
 -11 -19   2 1502.09 164.298   2
 -11 -19   1 32.0871 61.0335   2
 -11 -19   0 174.910 75.7398   2
 -11 -19  -1 989.436 143.003   2
 -11 -19  -2 1947.56 201.023   2
 -11 -19  -3 557.777 122.960   2
 -11 -19  -4 1551.62 193.726   2
 -11 -21   1 2200.73 206.302   2
 -11 -21   0 74.3381 74.5408   2
 -11 -21  -1 3795.97 279.977   2
 -11 -21  -2-24.1482 71.1461   2
  12   0 -21 39.4099 68.3282   1
  12   0 -20 5069.93 304.196   1
  12   0 -19 47.4823 59.5608   1
  12   0 -18 5621.22 304.843   1
  12   0 -17 47.4334 54.6909   1
  12   0 -16 169.907 72.3407   1
  12   0 -15-45.2372 62.4176   1
  12   0 -14 7678.26 320.369   1
  12   0 -13-39.7224 61.0008   1
  12   0 -12 11064.2 364.167   1
  12   0 -11 63.8365 55.0017   1
 -12   0  10 888.592 102.762   2
 -12   0   9 42.4939 50.1230   2
 -12   0   8 5624.95 246.317   2
  12   0  -8 5825.81 251.839   2
 -12   0   7-7.50624 41.9071   2
  12   0  -7 15.4667 34.2910   2
 -12   0   6 4569.39 215.628   2
  12   0  -6 4811.11 225.305   2
 -12   0   5-36.1769 40.4656   2
  12   0  -5 13.1481 32.2344   2
 -12   0   4 45.3542 36.8506   2
  12   0  -4 53.5542 43.2994   2
 -12   0   3-11.2892 42.4771   2
  12   0  -3 25.1878 36.1350   2
 -12   0   2 18226.4 430.110   2
  12   0  -2 18878.3 439.471   2
  12   0  -1-38.7278 39.5477   2
 -12   0   1-33.2311 44.6430   2
  12   0   0 12846.7 378.492   2
 -12   0   0 12589.5 368.070   2
 -12   0  -1 45.0456 38.7613   2
 -12   0  -2 4380.81 231.357   2
 -12   0  -3 11.8938 46.2510   2
 -12   0  -4 644.667 103.900   2
 -12   0  -5 37.4263 50.7399   2
 -12   0  -6 16093.5 493.715   2
 -12   0  -7 16.8066 53.4224   2
 -12   0  -8 316.027 96.6628   2
 -12   0  -9 27.2449 58.3979   2
 -12   0 -10 2121.04 213.593   2
 -12   0 -11 86.9387 81.7460   2
 -12   0 -12 6162.81 375.410   2
  12  -2 -22 319.965 112.725   1
  12  -2 -21 1448.06 180.779   1
  12  -2 -20 183.252 91.2758   1
  12   2 -19 45.2015 50.9724   1
  12  -2 -19 80.1052 61.7731   1
  12  -2 -18 201.433 84.1967   1
  12   2 -18 204.825 76.1681   1
  12   2 -17 4303.96 237.316   1
  12  -2 -17 4547.92 282.228   1
  12   2 -16-9.35880 46.3553   1
  12  -2 -16-21.7632 57.1665   1
  12  -2 -15 5217.37 291.795   1
  12   2 -15 5087.96 246.071   1
  12  -2 -14 308.386 74.9110   1
  12   2 -14 492.588 87.1179   1
  12  -2 -13 454.245 94.6429   1
  12   2 -13 459.723 77.1970   1
  12   2 -12 884.595 100.849   1
  12  -2 -12 979.013 118.274   1
 -12  -2  11 7600.35 307.880   2
  12   2 -11 8449.17 296.461   1
  12  -2 -11 8115.77 324.696   1
 -12  -2  10 603.488 90.9768   2
 -12  -2   9 18341.6 453.429   2
 -12   2   9 18444.2 452.430   2
 -12  -2   8 188.998 58.3100   2
 -12   2   8 229.143 65.5195   2
  12  -2  -8 180.883 59.1585   2
 -12   2   7 76.3124 36.1720   2
 -12  -2   7 126.358 58.2271   2
  12  -2  -7 74.6987 33.3346   2
  12   2  -7 111.327 52.1071   2
 -12   2   6 908.876 100.849   2
 -12  -2   6 861.012 98.7501   2
  12  -2  -6 893.413 97.8222   2
  12   2  -6 799.232 92.5598   2
 -12   2   5 13280.9 356.778   2
 -12  -2   5 12986.9 364.111   2
  12  -2  -5 13479.7 371.612   2
  12   2  -5 13987.4 380.851   2
 -12   2   4 1544.59 127.553   2
 -12  -2   4 1424.58 125.154   2
  12  -2  -4 1660.97 129.292   2
  12   2  -4 1597.87 129.335   2
 -12   2   3 6020.08 240.888   2
 -12  -2   3 5845.49 245.963   2
  12  -2  -3 6379.01 251.765   2
  12   2  -3 5948.27 249.441   2
  12  -2  -2 219.901 53.8526   2
  12   2  -2 241.024 62.0248   2
 -12   2   2 289.136 61.9858   2
 -12  -2   2 342.019 69.4540   2
 -12   2   1 6670.22 256.404   2
 -12  -2   1 6353.45 262.257   2
  12  -2  -1 6635.50 256.468   2
  12   2  -1 6444.04 266.340   2
  12  -2   0 772.437 94.4206   2
 -12   2   0 684.360 91.7172   2
 -12  -2   0 654.635 93.3465   2
  12  -2   1 4787.47 234.064   2
 -12   2  -1 4792.23 229.989   2
 -12  -2  -1 4677.59 239.669   2
 -12   2  -2 3087.03 188.804   2
 -12  -2  -2 2996.27 193.400   2
 -12   2  -3 23148.9 532.790   2
 -12  -2  -3 22381.4 542.186   2
 -12   2  -4 2360.20 178.049   2
 -12  -2  -4 2371.66 185.377   2
 -12   2  -5 3506.01 217.839   2
 -12  -2  -5 3513.24 232.675   2
 -12  -2  -6 57.7226 59.2179   2
 -12   2  -6 181.066 76.2955   2
 -12   2  -7 12206.5 433.343   2
 -12  -2  -7 12814.1 467.653   2
 -12   2  -8 551.538 109.027   2
 -12  -2  -8 642.546 118.901   2
 -12   2  -9 9886.60 415.333   2
 -12  -2  -9 10311.2 446.532   2
 -12   2 -10 627.765 130.472   2
 -12  -2 -10 831.939 141.869   2
 -12   2 -11 1274.12 164.313   2
 -12  -2 -11 1259.70 175.931   2
 -12   2 -12 351.235 110.125   2
  12  -4 -21 160.231 87.4037   1
  12  -4 -20 1377.41 176.299   1
  12  -4 -19 152.024 83.2138   1
  12  -4 -18 5623.51 333.997   1
  12  -4 -17 68.3908 72.4439   1
  12   4 -17 58.3854 40.9093   1
  12  -4 -16 110.575 64.4719   1
  12   4 -16 153.440 45.3279   1
  12   4 -15 663.220 85.2419   1
  12  -4 -15 566.197 112.446   1
  12   4 -14 91.9805 41.4317   1
  12  -4 -14 276.973 85.6854   1
  12  -4 -13 113.963 71.7912   1
  12   4 -13 115.973 49.4106   1
  12  -4 -12 4648.55 260.083   1
  12   4 -12 4611.36 200.840   1
  12   4 -11 822.718 87.5389   1
 -12  -4  11 928.592 113.899   2
  12  -4 -11 743.201 109.501   1
 -12  -4  10 920.624 112.205   2
 -12  -4   9 480.190 77.4895   2
 -12   4   8 11947.9 358.117   2
 -12  -4   8 11719.3 360.472   2
  12  -4  -8 12190.1 366.492   2
 -12   4   7 741.905 93.4402   2
 -12  -4   7 680.324 91.5468   2
  12  -4  -7 655.986 93.8416   2
 -12   4   6 26508.3 517.134   2
 -12  -4   6 26686.2 533.730   2
  12  -4  -6 27814.1 528.322   2
  12   4  -6 27235.9 540.161   2
 -12   4   5 70.6151 45.9228   2
 -12  -4   5 21.5103 45.8536   2
  12  -4  -5 21.5740 38.0102   2
  12   4  -5 11.1847 33.6531   2
 -12   4   4 1178.04 111.881   2
 -12  -4   4 1348.51 124.946   2
  12  -4  -4 1336.31 131.162   2
  12   4  -4 1318.46 125.235   2
 -12   4   3 864.075 97.9215   2
 -12  -4   3 971.515 110.424   2
  12  -4  -3 966.531 101.555   2
 -12   4   2 15005.6 377.674   2
 -12  -4   2 15336.2 408.539   2
  12  -4  -2 15505.6 387.552   2
 -12   4   1 1131.40 107.081   2
 -12  -4   1 895.789 105.534   2
  12  -4  -1 1022.30 102.728   2
  12  -4   0 20626.9 456.601   2
 -12   4   0 20189.3 446.723   2
 -12  -4   0 19436.7 475.658   2
  12  -4   1 2063.64 150.007   2
 -12   4  -1 1987.73 143.722   2
 -12  -4  -1 2032.42 165.819   2
  12  -4   2 2650.35 173.299   2
 -12   4  -2 2590.29 167.785   2
 -12  -4  -2 2481.87 182.047   2
  12  -4   3 1547.42 135.025   2
 -12   4  -3 1468.34 129.651   2
 -12  -4  -3 1508.60 147.455   2
 -12   4  -4 11768.3 377.705   2
 -12  -4  -4 11057.0 400.637   2
 -12   4  -5 1148.35 121.813   2
 -12  -4  -5 998.553 127.883   2
 -12   4  -6 18474.4 501.321   2
 -12  -4  -6 18649.9 559.025   2
 -12  -4  -7 173.775 80.1804   2
 -12   4  -7-58.7584 54.9875   2
 -12   4  -8 4466.91 265.270   2
 -12  -4  -8 4291.22 287.086   2
 -12  -4  -9 6.10295 59.2109   2
 -12   4  -9 83.1502 53.0063   2
 -12  -4 -10 58.7658 68.3007   2
 -12   4 -10 156.581 66.6350   2
 -12   4 -11 144.034 73.5508   2
 -12   4 -12 2734.44 236.068   2
 -12   4 -13 110.341 77.4159   2
  12  -6 -20 865.957 195.900   1
  12  -6 -19 54.5849 67.2667   1
  12  -6 -18 111.656 64.5508   1
  12  -6 -17 1127.69 160.198   1
  12  -6 -16 326.028 87.2714   1
  12  -6 -15 1578.86 177.382   1
  12   6 -15 1402.60 97.1129   1
  12  -6 -14 175.925 77.5093   1
  12   6 -14 159.022 40.4917   1
  12  -6 -13 973.367 145.277   1
  12   6 -13 959.095 78.6993   1
 -12  -6  12-32.1047 45.5882   2
  12   6 -12-5.46870 27.5551   1
  12  -6 -12-10.3268 58.4073   1
  12  -6 -11 998.001 133.860   1
 -12  -6  11 683.421 103.978   2
  12   6 -11 806.901 74.6154   1
 -12  -6  10 249.259 61.4135   2
  12   6 -10 285.089 47.9348   1
 -12  -6   9 24300.6 545.423   2
 -12  -6   8 66.0848 42.2828   2
  12  -6  -8 115.510 52.6141   2
 -12   6   7 143.913 51.5145   2
 -12  -6   7 229.741 66.8007   2
  12  -6  -7 230.522 60.2726   2
 -12   6   6 167.262 49.7114   2
 -12  -6   6 41.2822 41.6140   2
  12  -6  -6 100.785 39.9640   2
 -12   6   5 14054.6 372.325   2
 -12  -6   5 14586.2 402.648   2
  12  -6  -5 14578.9 384.710   2
 -12   6   4 138.982 44.8956   2
 -12  -6   4 244.309 62.8890   2
  12  -6  -4 237.046 56.9797   2
 -12   6   3 12670.4 341.376   2
 -12  -6   3 12612.1 376.898   2
  12  -6  -3 13066.0 351.823   2
  12  -6  -2 219.030 54.7945   2
 -12   6   2 209.742 50.7828   2
 -12  -6   2 278.501 67.2095   2
 -12   6   1 1122.76 102.573   2
 -12  -6   1 967.754 113.883   2
  12  -6  -1 951.133 92.7725   2
  12  -6   0 56.8772 39.3228   2
 -12   6   0 103.379 41.0407   2
 -12  -6   0 96.1674 54.7846   2
  12  -6   1 10715.8 329.765   2
 -12   6  -1 10439.5 319.617   2
 -12  -6  -1 10236.5 370.023   2
  12  -6   2 1919.04 147.034   2
 -12   6  -2 2035.25 144.829   2
 -12  -6  -2 1940.46 165.671   2
  12  -6   3 10370.1 336.530   2
 -12   6  -3 10582.2 332.125   2
 -12  -6  -3 10308.3 389.916   2
  12  -6   4 1020.30 112.387   2
 -12   6  -4 1124.46 118.028   2
 -12  -6  -4 987.181 128.287   2
 -12   6  -5 4264.23 227.502   2
 -12  -6  -5 3995.01 257.722   2
 -12  -6  -6 91.4594 59.4211   2
 -12   6  -6 43.1848 49.8986   2
 -12   6  -7 1859.51 159.185   2
 -12  -6  -7 2149.40 206.059   2
 -12  -6  -8 320.842 100.286   2
 -12   6  -8 241.537 80.8028   2
 -12   6  -9 7366.10 336.536   2
 -12  -6  -9 7942.56 411.284   2
 -12  -6 -10 127.267 89.1228   2
 -12   6 -10-56.3190 63.7287   2
 -12   6 -11 670.957 117.526   2
  12  -8 -19 303.334 106.776   1
  12  -8 -18 1837.82 211.424   1
  12  -8 -17 206.596 99.4772   1
  12  -8 -16-33.7533 65.3072   1
  12  -8 -15 580.675 121.835   1
  12  -8 -14 120.078 73.6245   1
  12  -8 -13-66.4208 64.0118   1
  12   8 -13 23.1502 16.9896   1
  12  -8 -12 6252.26 333.817   1
 -12  -8  12 6299.78 296.040   2
  12   8 -12 4838.26 122.605   1
 -12  -8  11 204.726 68.3478   2
  12   8 -11 82.9989 21.0054   1
  12  -8 -11 108.189 65.2493   1
  12  -8 -10 103.673 60.8717   1
  12   8 -10 256.912 36.9847   1
 -12  -8  10 251.761 77.2143   2
 -12  -8   9 2933.30 192.535   2
 -12  -8   8 683.322 102.916   2
  12  -8  -8 570.727 88.5791   2
 -12  -8   7 29.8501 46.0852   2
  12  -8  -7-25.1688 38.5133   2
 -12   8   6 15487.4 400.471   2
 -12  -8   6 15606.0 425.497   2
  12  -8  -6 15636.5 404.808   2
 -12   8   5 1337.56 118.114   2
 -12  -8   5 1308.58 129.846   2
  12  -8  -5 1379.44 121.166   2
 -12   8   4 692.926 87.5155   2
 -12  -8   4 802.321 104.017   2
  12  -8  -4 753.457 89.3164   2
 -12   8   3 69.8559 46.7931   2
 -12  -8   3 55.9694 41.5442   2
  12  -8  -3-14.4146 35.8279   2
 -12   8   2 18353.0 406.638   2
 -12  -8   2 19203.8 483.110   2
  12  -8  -2 18423.7 409.975   2
  12  -8  -1 12.2908 32.7834   2
 -12   8   1-33.5404 35.3702   2
 -12  -8   1 13.1135 47.3417   2
  12  -8   0 17585.2 404.759   2
 -12   8   0 17701.7 402.379   2
 -12  -8   0 18170.2 490.247   2
  12  -8   1 194.879 56.1322   2
 -12   8  -1 240.257 57.9322   2
 -12  -8  -1 170.592 64.8061   2
  12  -8   2 12549.4 349.639   2
 -12   8  -2 12764.2 345.290   2
 -12  -8  -2 12419.2 426.496   2
  12  -8   3 5505.06 236.997   2
 -12   8  -3 5757.75 237.997   2
 -12  -8  -3 5554.84 296.193   2
  12  -8   4 8321.43 299.066   2
 -12   8  -4 8429.97 291.753   2
 -12  -8  -4 8828.55 378.472   2
  12  -8   5 141.535 45.5631   2
 -12   8  -5 159.205 51.5098   2
 -12  -8  -5 147.324 72.9550   2
 -12   8  -6 18081.8 455.267   2
 -12  -8  -6 18635.4 580.908   2
 -12  -8  -7 76.5957 73.5521   2
 -12   8  -7 82.2965 51.7076   2
 -12   8  -8 1658.73 149.991   2
 -12  -8  -8 1723.68 190.664   2
 -12  -8  -9 219.738 102.693   2
 -12   8  -9 207.926 61.3996   2
  12 -10 -18 101.039 86.7469   1
  12 -10 -17 2457.47 243.398   2
  12 -10 -17 2664.92 252.118   1
  12 -10 -16 12.6034 73.5451   1
  12 -10 -15 2543.10 233.937   1
  12 -10 -14 858.752 148.089   1
  12 -10 -13 154.180 68.3875   1
 -12 -10  12 700.693 106.765   2
  12 -10 -12 757.098 132.467   1
 -12 -10  11 4090.27 242.299   2
  12 -10 -11 4541.10 299.303   1
  12 -10 -10-68.2838 67.8612   1
 -12 -10  10-123.217 47.9379   2
 -12 -10   9 6997.13 300.648   2
  12  10  -9 3085.17 66.8909   1
 -12 -10   8 195.527 62.3908   2
 -12 -10   7 103.172 50.0901   2
  12 -10  -7-18.6606 44.8571   2
 -12 -10   6 721.733 102.258   2
  12 -10  -6 714.913 91.1607   2
 -12 -10   5 707.101 100.484   2
  12 -10  -5 644.887 83.2048   2
 -12  10   4 61.9453 45.0798   2
 -12 -10   4-54.1456 49.1972   2
  12 -10  -4 9.28552 42.9977   2
 -12  10   3 8978.99 287.881   2
 -12 -10   3 9270.70 343.221   2
  12 -10  -3 8823.48 282.255   2
 -12  10   2 3449.01 177.648   2
 -12 -10   2 3751.72 224.438   2
  12 -10  -2 3334.22 172.898   2
  12  10  -1 2202.30 146.300   1
 -12  10   1 2516.13 149.607   2
 -12 -10   1 2336.45 182.417   2
  12 -10  -1 2346.79 142.353   2
  12 -10   0-15.7492 32.9034   2
  12  10   0 6.38003 41.4285   1
 -12  10   0 46.9775 40.0779   2
 -12 -10   0 37.2279 47.8624   2
  12 -10   1 4720.67 203.519   2
 -12  10  -1 5076.06 207.572   2
 -12 -10  -1 5248.28 281.704   2
  12 -10   2 40.5812 38.0369   2
 -12  10  -2 46.8728 29.4605   2
 -12 -10  -2 43.9677 59.4761   2
  12 -10   3 4715.03 208.916   2
 -12  10  -3 4859.65 206.496   2
 -12 -10  -3 5157.69 292.767   2
 -12  10  -4 956.496 93.7732   2
 -12 -10  -4 939.219 135.243   2
 -12  10  -5 2252.99 146.442   2
 -12 -10  -5 2377.68 215.477   2
 -12 -10  -6 164.086 86.4297   2
 -12  10  -6 234.301 62.4555   2
 -12 -10  -7 4787.11 317.063   2
 -12 -10  -8-41.5469 64.6594   2
  12 -12 -17 151.694 82.6293   2
  12 -12 -16 49.5019 64.5314   2
  12 -12 -16 1.62848 69.8981   1
  12 -12 -15 305.484 109.457   1
  12 -12 -15 249.060 91.6500   2
  12 -12 -14 4401.26 315.574   1
  12 -12 -13 94.8454 85.0773   1
 -12 -12  12 1191.70 137.749   2
  12 -12 -12 995.990 155.113   1
  12 -12 -11 282.101 101.286   1
 -12 -12  11 152.086 58.0433   2
 -12 -12  10 1198.67 127.728   2
  12 -12 -10 1248.79 170.494   1
  12 -12  -9 1408.02 176.696   1
 -12 -12   9 1944.50 165.154   2
 -12 -12   8 2832.26 196.763   2
 -12 -12   7 2257.21 174.180   2
  12 -12  -7 2004.94 151.542   2
 -12 -12   6 8239.65 331.121   2
  12  12  -6 7199.79 172.883   1
  12 -12  -6 8096.58 292.709   2
  12  12  -5 2076.30 105.945   1
 -12 -12   5 2139.82 173.536   2
  12 -12  -5 1910.72 139.714   2
 -12 -12   4 3.87690 43.9743   2
  12  12  -4 48.6333 30.5225   1
  12 -12  -4 67.5612 45.5565   2
  12  12  -3 1687.79 115.160   1
 -12 -12   3 2086.49 171.184   2
  12 -12  -3 1827.12 126.587   2
  12 -12  -2 131.483 49.7754   2
 -12 -12   2 61.5370 49.7127   2
  12  12  -2 74.2531 34.5183   1
  12 -12  -1 93.4722 39.1571   2
 -12  12   1 142.791 39.6261   2
  12  12  -1 40.3144 35.5593   1
 -12 -12   1 134.105 71.8704   2
  12 -12   0 3897.96 172.943   2
 -12  12   0 3978.34 176.334   2
  12  12   0 3835.05 205.269   1
 -12 -12   0 4435.74 260.105   2
 -12  12  -1 504.694 64.4770   2
 -12 -12  -1 554.193 108.815   2
 -12  12  -2 3356.65 159.426   2
 -12 -12  -2 3691.17 250.442   2
 -12  12  -3 123.139 41.9857   2
 -12 -12  -3 63.2449 63.2288   2
 -12 -12  -4 955.119 141.641   2
 -12 -12  -5 349.768 105.083   2
 -12 -12  -6 9831.70 451.969   2
 -12 -12  -7 4.18598 71.7924   2
  12 -14 -16-107.500 88.1570   2
  12 -14 -15 914.957 148.759   2
  12 -14 -14 253.633 80.7260   2
  12 -14 -14 204.249 93.1135   1
  12 -14 -13 152.726 72.6501   2
  12 -14 -13 179.048 83.1617   1
  12 -14 -12 381.159 116.562   1
 -12 -14  12 404.934 86.9051   2
 -12 -14  11 5196.22 278.372   2
  12 -14 -11 5520.65 352.357   1
  12 -14 -10 98.9199 81.4714   1
 -12 -14  10 194.266 66.4541   2
 -12 -14   9 8328.13 349.264   2
  12 -14  -9 8303.74 420.454   1
  12 -14  -8 104.653 78.8449   1
 -12 -14   8 131.961 62.0316   2
 -12 -14   7 447.963 87.6113   2
 -12 -14   6 274.260 73.2687   2
  12 -14  -6 120.391 47.2782   2
 -12 -14   5 2860.83 205.384   2
 -12 -14   4 156.092 68.2556   2
 -12 -14   3 1777.86 168.410   2
 -12 -14   2 803.809 117.987   2
 -12 -14   1 2779.66 209.748   2
 -12 -14   0 756.476 116.339   2
 -12 -14  -1 1477.68 168.671   2
 -12 -14  -2 555.414 108.174   2
 -12 -14  -3 2262.96 211.215   2
 -12 -14  -4 2020.48 208.101   2
 -12 -14  -5 190.045 97.8250   2
 -12 -14  -6 106.545 85.7558   2
  12 -16 -15 105.030 65.6475   2
  12 -16 -14 287.265 85.5171   2
  12 -16 -13 36.9871 69.8971   2
  12 -16 -12 2605.43 256.056   1
  12 -16 -12 3094.52 237.927   2
  12 -16 -11 351.420 93.0500   2
  12 -16 -11 332.542 116.139   1
 -12 -16  11 399.475 93.3678   2
  12 -16 -10 1180.81 140.638   2
 -12 -16  10 1136.50 136.050   2
  12 -16 -10 960.482 151.021   1
  12 -16  -9 631.451 103.751   2
  12 -16  -9 485.581 122.254   1
 -12 -16   9 904.373 122.972   2
  12 -16  -8 1243.67 169.923   1
 -12 -16   8 1488.66 149.435   2
  12 -16  -7 102.428 85.4450   1
 -12 -16   7 52.2473 54.8246   2
 -12 -16   6 5881.30 301.472   2
 -12 -16   5 28.7897 54.0852   2
 -12 -16   4 66.2122 60.2534   2
 -12 -16   3 2764.80 208.619   2
 -12 -16   2 1853.99 177.532   2
 -12 -16   1 1137.95 145.150   2
 -12 -16   0 2560.93 216.215   2
 -12 -16  -1 1506.77 164.655   2
 -12 -16  -2 763.349 127.891   2
 -12 -16  -3 195.465 88.8732   2
 -12 -16  -4 280.565 101.548   2
 -12 -18  10 8.38911 51.4218   2
 -12 -18   9 1393.41 151.742   2
  12 -18  -9 1187.85 187.778   1
  12 -18  -8 385.954 113.645   1
 -12 -18   8 610.214 103.269   2
 -12 -18   7 2325.84 190.245   2
  12 -18  -7 1901.10 231.851   1
  12 -18  -6-22.4362 71.4042   1
 -12 -18   6 319.892 85.5567   2
 -12 -18   5 3158.48 229.420   2
 -12 -18   4 3.63014 54.5053   2
 -12 -18   3 5338.20 301.133   2
 -12 -18   2 2026.46 192.195   2
 -12 -18   1 4.74510 64.2472   2
 -12 -18   0 54.0205 62.7575   2
 -12 -18  -1 256.809 94.4402   2
 -12 -18  -2 1262.41 173.406   2
 -12 -18  -3 3489.73 280.289   2
 -12 -20   5 726.567 123.087   2
 -12 -20   4 426.155 99.7694   2
 -12 -20   3 227.932 83.9616   2
 -12 -20   2 1006.05 148.406   2
 -12 -20   1 748.981 127.725   2
 -12 -20   0 5185.93 325.944   2
 -12 -20  -1 919.399 144.713   2
  13  -1 -21 634.763 128.027   1
  13  -1 -20 213.551 85.5550   1
  13   1 -19 2421.39 195.090   1
  13  -1 -19 2660.32 222.800   1
  13  -1 -18 107.501 78.5494   1
  13   1 -18 88.5486 57.8902   1
  13   1 -17 441.336 91.5808   1
  13  -1 -17 357.077 90.8952   1
  13   1 -16 662.753 102.351   1
  13  -1 -16 671.151 109.679   1
  13  -1 -15-63.7010 58.8721   1
  13   1 -15-29.8832 60.1446   1
  13   1 -14 254.160 66.5223   1
  13  -1 -14 329.528 81.9667   1
  13   1 -13 6721.67 287.077   1
  13  -1 -13 6306.54 295.140   1
  13   1 -12 5633.22 271.105   1
  13  -1 -12 4956.50 263.538   1
 -13  -1  11 434.421 82.6396   2
 -13   1  10 11045.9 369.418   2
 -13  -1  10 10666.2 365.596   2
 -13   1   9 203.494 66.9630   2
 -13  -1   9 188.046 60.5249   2
 -13   1   8 5086.57 244.465   2
 -13  -1   8 5225.55 250.792   2
 -13   1   7 10312.3 342.669   2
 -13  -1   7 10675.6 344.852   2
 -13   1   6 4516.02 225.942   2
 -13  -1   6 4572.11 229.858   2
 -13  -1   5 1096.75 115.023   2
 -13   1   5 975.530 107.293   2
 -13  -1   4 988.118 109.468   2
 -13   1   4 894.878 102.222   2
  13  -1  -4 937.452 106.747   2
 -13   1   3 394.645 75.7115   2
 -13  -1   3 346.050 74.1435   2
 -13   1   2 9986.22 329.957   2
 -13  -1   2 9718.95 331.738   2
 -13   1   1 4800.30 233.088   2
 -13  -1   1 4725.88 234.407   2
 -13   1   0 1418.66 134.560   2
 -13  -1   0 1390.12 135.468   2
 -13   1  -1 4577.52 242.173   2
 -13  -1  -1 4502.20 239.543   2
 -13   1  -2 3893.52 227.456   2
 -13  -1  -2 3549.05 220.225   2
 -13   1  -3 1368.32 138.207   2
 -13  -1  -3 1309.74 138.294   2
 -13   1  -4 4891.25 263.632   2
 -13  -1  -4 4649.73 262.440   2
 -13   1  -5 19817.5 546.425   2
 -13  -1  -5 20045.5 565.772   2
 -13   1  -6-1.54874 56.3070   2
 -13  -1  -6-2.11883 51.7770   2
 -13   1  -7 677.467 118.964   2
 -13  -1  -7 867.559 132.379   2
 -13   1  -8 1717.53 179.448   2
 -13  -1  -8 1858.05 196.987   2
 -13  -1  -9 190.424 83.1791   2
 -13   1  -9 282.966 89.7677   2
 -13   1 -10 1336.59 167.025   2
 -13  -1 -10 1314.84 172.608   2
 -13   1 -11 533.719 129.855   2
  13  -3 -21 327.357 104.415   1
  13  -3 -20 869.861 138.757   1
  13  -3 -19 606.318 125.255   1
  13   3 -18 2102.96 162.667   1
  13  -3 -18 2092.75 203.879   1
  13  -3 -17 310.685 90.6126   1
  13   3 -17 151.651 52.8566   1
  13   3 -16 1106.64 118.947   1
  13  -3 -16 1038.69 140.561   1
  13  -3 -15 185.954 78.5248   1
  13   3 -15 171.660 58.0532   1
  13   3 -14 3287.72 193.033   1
  13  -3 -14 3118.58 224.060   1
  13   3 -13 2722.31 169.509   1
  13  -3 -13 2871.01 213.581   1
 -13  -3  12 61.2825 53.6995   2
  13  -3 -12 110.871 52.0836   1
  13   3 -12 55.8150 42.9509   1
 -13  -3  11 2338.48 181.162   2
  13   3 -11 2282.04 154.087   1
 -13  -3  10 4752.37 247.759   2
 -13   3   9 6215.67 273.995   2
 -13  -3   9 6135.08 274.759   2
 -13   3   8 728.677 97.1425   2
 -13  -3   8 697.628 96.3297   2
 -13   3   7 7910.22 297.917   2
 -13  -3   7 7621.39 298.609   2
 -13   3   6 1800.67 145.728   2
 -13  -3   6 2074.02 160.011   2
  13  -3  -6 1936.44 150.336   2
 -13   3   5 109.760 58.8263   2
 -13  -3   5 72.3167 45.8129   2
  13  -3  -5 52.1199 45.2994   2
 -13   3   4 4583.38 222.063   2
 -13  -3   4 4706.54 231.655   2
  13  -3  -4 4768.49 227.590   2
 -13   3   3 2818.23 176.155   2
 -13  -3   3 3024.93 191.794   2
  13  -3  -3 2941.11 182.850   2
 -13   3   2 9371.11 313.813   2
 -13  -3   2 8917.61 323.322   2
  13  -3  -2 9506.93 320.429   2
 -13   3   1 7475.27 286.702   2
 -13  -3   1 7047.66 292.232   2
  13  -3  -1 7573.76 290.888   2
 -13   3   0 172.014 52.3507   2
 -13  -3   0 252.649 68.4112   2
 -13   3  -1 1661.68 146.096   2
 -13  -3  -1 1713.36 159.986   2
 -13   3  -2 11594.6 376.431   2
 -13  -3  -2 11297.1 401.224   2
 -13   3  -3 104.890 50.0306   2
 -13  -3  -3 87.1038 63.4252   2
 -13   3  -4 572.418 98.4239   2
 -13  -3  -4 541.249 104.867   2
 -13   3  -5 3556.24 229.795   2
 -13  -3  -5 3694.84 248.552   2
 -13   3  -6 1708.49 163.242   2
 -13  -3  -6 1858.57 184.403   2
 -13   3  -7 2785.69 214.187   2
 -13  -3  -7 2914.69 237.222   2
 -13   3  -8 2868.08 224.716   2
 -13  -3  -8 2812.78 237.695   2
 -13  -3  -9 73.0506 75.7721   2
 -13   3  -9 33.5367 58.8096   2
 -13   3 -10 4228.94 288.474   2
 -13  -3 -10 4727.22 329.922   2
 -13   3 -11 501.818 125.818   2
  13  -5 -21 621.651 138.678   1
  13  -5 -20-109.440 95.4912   1
  13  -5 -19 1092.41 169.267   1
  13  -5 -18 258.757 98.1610   1
  13  -5 -17 3288.10 263.216   1
  13  -5 -16 2423.48 222.000   1
  13   5 -16 2296.51 141.360   1
  13   5 -15 40.1611 34.9319   1
  13  -5 -15-121.322 76.0888   1
  13  -5 -14 525.200 106.998   1
  13   5 -14 650.615 79.0226   1
  13   5 -13 1774.45 121.128   1
  13  -5 -13 1756.64 180.567   1
 -13  -5  12 1286.89 139.028   2
  13   5 -12 1151.35 99.3934   1
  13  -5 -12 1115.11 145.903   1
 -13  -5  11 3814.91 227.560   2
  13   5 -11 3420.71 172.102   1
  13  -5 -11 3052.16 227.676   1
 -13  -5  10 2303.63 175.232   2
 -13  -5   9 2436.13 177.501   2
 -13   5   8 4285.45 223.869   2
 -13  -5   8 4106.81 222.195   2
 -13   5   7 8883.30 317.013   2
 -13  -5   7 8711.55 324.236   2
 -13   5   6 4126.29 214.190   2
 -13  -5   6 3943.27 219.185   2
  13  -5  -6 3947.74 215.600   2
 -13   5   5 238.950 65.9372   2
 -13  -5   5 215.204 63.7468   2
  13  -5  -5 242.134 60.6745   2
 -13   5   4 5966.87 252.044   2
 -13  -5   4 5886.03 266.310   2
  13  -5  -4 6207.01 258.633   2
 -13   5   3 2446.81 161.118   2
 -13  -5   3 2789.14 187.651   2
  13  -5  -3 2719.28 172.708   2
 -13   5   2 2383.35 157.239   2
 -13  -5   2 2367.67 172.708   2
  13  -5  -2 2386.77 160.986   2
 -13   5   1 4189.03 212.186   2
 -13  -5   1 4241.68 234.165   2
  13  -5  -1 4258.08 215.103   2
  13  -5   0 372.092 73.7879   2
 -13   5   0 322.121 68.8836   2
 -13  -5   0 180.425 53.1560   2
  13  -5   1 7922.12 301.540   2
 -13   5  -1 7968.56 298.249   2
 -13  -5  -1 7692.12 327.435   2
 -13   5  -2 4598.86 232.545   2
 -13  -5  -2 4405.06 257.057   2
 -13   5  -3 1302.30 132.660   2
 -13  -5  -3 1208.03 146.797   2
 -13   5  -4 3902.13 224.714   2
 -13  -5  -4 4048.06 261.433   2
 -13   5  -5 9615.66 360.014   2
 -13  -5  -5 9635.07 410.531   2
 -13   5  -6 384.773 89.4400   2
 -13  -5  -6 397.320 98.0869   2
 -13   5  -7 5098.85 277.326   2
 -13  -5  -7 5240.45 322.707   2
 -13   5  -8 1869.52 182.012   2
 -13  -5  -8 1889.94 204.975   2
 -13  -5  -9 47.4865 79.0777   2
 -13   5  -9-45.1279 64.5249   2
 -13   5 -10 2208.34 198.920   2
 -13   5 -11 900.017 133.237   2
  13  -7 -19 1810.15 212.583   1
  13  -7 -18 573.463 126.140   1
  13  -7 -17 245.034 96.8961   1
  13  -7 -16 325.729 100.000   1
  13  -7 -15 112.140 80.5098   1
  13  -7 -14 1180.96 160.011   1
  13   7 -13 995.457 74.2996   1
  13  -7 -13 1098.45 146.172   1
  13   7 -12 210.605 39.9399   1
 -13  -7  12 306.348 82.7536   2
  13  -7 -12 177.118 76.2720   1
 -13  -7  11 2319.56 182.428   2
  13   7 -11 1895.42 106.536   1
  13  -7 -11 2122.31 197.087   1
 -13  -7  10 15811.3 456.690   2
 -13  -7   9 636.539 97.7223   2
 -13  -7   8 2165.76 168.575   2
 -13   7   7 126.972 58.2153   2
 -13  -7   7 194.208 56.8903   2
 -13   7   6 356.306 74.2090   2
 -13  -7   6 227.973 70.5000   2
  13  -7  -6 226.998 62.4391   2
 -13   7   5-22.7755 40.8524   2
 -13  -7   5-35.0423 45.1943   2
  13  -7  -5 52.1964 41.6297   2
 -13   7   4 2942.99 180.239   2
 -13  -7   4 3027.57 194.232   2
  13  -7  -4 2956.45 176.971   2
 -13   7   3 2584.48 165.100   2
 -13  -7   3 2688.06 185.224   2
  13  -7  -3 2483.95 163.311   2
 -13   7   2 3280.93 184.732   2
 -13  -7   2 3151.82 203.726   2
  13  -7  -2 3227.69 183.949   2
 -13   7   1 4550.02 217.826   2
 -13  -7   1 4485.03 249.676   2
  13  -7  -1 4544.76 217.392   2
  13  -7   0 666.444 90.0394   2
 -13   7   0 645.379 89.6981   2
 -13  -7   0 694.483 102.271   2
  13  -7   1 7141.59 279.543   2
 -13   7  -1 7133.91 274.742   2
 -13  -7  -1 7273.58 327.302   2
  13  -7   2 1331.24 127.850   2
 -13   7  -2 1372.26 125.936   2
 -13  -7  -2 1277.31 144.876   2
 -13   7  -3 7253.88 285.360   2
 -13  -7  -3 7297.92 344.665   2
 -13   7  -4 5448.93 253.495   2
 -13  -7  -4 5525.57 306.284   2
 -13   7  -5 5946.00 274.259   2
 -13  -7  -5 5819.18 325.811   2
 -13   7  -6 68.7474 52.3651   2
 -13  -7  -6 78.2784 68.8669   2
 -13   7  -7 1608.25 157.645   2
 -13  -7  -7 1723.07 193.449   2
 -13   7  -8 2732.83 203.326   2
 -13  -7  -8 3231.52 262.450   2
 -13   7  -9-62.3200 71.5122   2
  13  -9 -18 261.109 110.582   1
  13  -9 -17 857.678 146.775   1
  13  -9 -16 628.118 135.394   1
  13  -9 -15 224.176 91.1891   1
  13  -9 -14 2552.99 237.274   1
  13  -9 -13 3575.39 270.452   1
  13  -9 -12 680.665 129.358   1
 -13  -9  12 505.973 100.317   2
 -13  -9  11 772.799 114.336   2
  13  -9 -11 558.113 103.710   1
  13   9 -11 489.277 36.0232   1
  13   9 -10 456.819 42.3908   1
 -13  -9  10 575.779 96.9872   2
 -13  -9   9 174.626 68.5043   2
 -13  -9   8 22.4615 48.1687   2
 -13  -9   7 3960.81 231.275   2
 -13  -9   6 1162.67 131.091   2
  13  -9  -6 956.544 102.593   2
 -13   9   5 3061.34 180.422   2
 -13  -9   5 3088.58 204.022   2
  13  -9  -5 2893.15 177.910   2
 -13   9   4 2520.32 170.216   2
 -13  -9   4 2311.46 178.475   2
  13  -9  -4 2234.49 154.529   2
 -13   9   3 633.161 84.7957   2
 -13  -9   3 740.542 106.758   2
  13  -9  -3 698.461 86.8235   2
  13  -9  -2 98.7389 46.8100   2
 -13   9   2 92.7812 57.5410   2
 -13  -9   2 22.4867 48.9967   2
 -13   9   1 2084.41 145.537   2
 -13  -9   1 2439.46 190.269   2
  13  -9  -1 2123.29 147.879   2
  13  -9   0 1159.38 111.840   2
 -13   9   0 1163.53 110.637   2
 -13  -9   0 1312.19 144.968   2
  13  -9   1 7762.19 282.149   2
 -13   9  -1 8014.35 281.944   2
 -13  -9  -1 8371.83 360.146   2
  13  -9   2 4760.98 223.975   2
 -13   9  -2 4919.26 224.242   2
 -13  -9  -2 5278.06 293.328   2
  13  -9   3 283.965 64.3649   2
 -13   9  -3 243.135 59.5693   2
 -13  -9  -3 276.578 80.6731   2
 -13   9  -4 4246.56 214.300   2
 -13  -9  -4 4524.90 285.974   2
 -13   9  -5 4055.96 211.671   2
 -13  -9  -5 4530.91 297.792   2
 -13   9  -6 1817.60 149.521   2
 -13  -9  -6 1908.54 200.767   2
 -13   9  -7 4708.55 240.066   2
 -13  -9  -7 5056.86 332.137   2
  13 -11 -17 217.782 81.0289   2
  13 -11 -16 1970.21 227.493   1
  13 -11 -15-227.081 88.7473   1
  13 -11 -14 218.867 89.3671   1
  13 -11 -13 1174.23 165.424   1
 -13 -11  12 388.121 86.0922   2
  13 -11 -12 469.064 114.994   1
 -13 -11  11 1652.78 162.718   2
  13 -11 -11 1856.50 205.783   1
 -13 -11  10 10569.7 393.337   2
  13 -11 -10 9667.33 443.730   1
 -13 -11   9-35.9830 60.1789   2
 -13 -11   8 2767.30 197.824   2
 -13 -11   7 4107.16 242.587   2
  13  11  -6 697.914 63.1716   1
 -13 -11   6 796.844 114.111   2
  13 -11  -6 630.812 93.8392   2
  13  11  -5 1377.88 97.0781   1
 -13 -11   5 1530.30 153.885   2
  13 -11  -5 1320.10 122.143   2
  13  11  -4 3540.36 163.708   1
 -13 -11   4 3677.06 229.387   2
  13 -11  -4 3421.04 187.844   2
  13  11  -3 2875.47 156.753   1
 -13  11   3 3165.30 178.141   2
 -13 -11   3 3152.16 213.833   2
  13 -11  -3 2931.89 170.667   2
  13  11  -2 9306.94 297.042   1
 -13  11   2 10190.1 314.004   2
 -13 -11   2 10367.4 386.993   2
  13 -11  -2 9320.55 295.673   2
  13 -11  -1 2257.92 146.969   2
  13  11  -1 2337.58 162.182   1
 -13  11   1 2285.91 151.208   2
 -13 -11   1 2778.74 212.512   2
  13 -11   0 976.275 98.7076   2
 -13  11   0 1055.16 98.3102   2
 -13 -11   0 1072.36 140.230   2
 -13  11  -1 1016.54 97.8906   2
 -13 -11  -1 1033.29 135.818   2
 -13  11  -2 281.136 58.9476   2
 -13 -11  -2 316.919 94.5906   2
 -13  11  -3-8.99263 36.5591   2
 -13 -11  -3-76.8287 79.9528   2
 -13 -11  -4 7301.91 375.296   2
 -13 -11  -5 6904.97 376.651   2
 -13 -11  -6 168.258 84.6294   2
  13 -13 -16 287.990 102.241   2
  13 -13 -15 176.066 84.8076   2
  13 -13 -14 631.203 133.005   1
  13 -13 -13 2611.98 255.998   1
 -13 -13  12 637.579 112.667   2
  13 -13 -12 730.488 141.651   1
  13 -13 -11 426.945 127.574   1
 -13 -13  11 691.060 109.092   2
  13 -13 -10 1201.36 177.449   1
 -13 -13  10 962.282 130.975   2
 -13 -13   9 47.6762 55.2342   2
  13 -13  -9 22.4029 64.6667   1
 -13 -13   8 298.755 86.0533   2
 -13 -13   7 5975.18 300.499   2
 -13 -13   6 1706.95 163.594   2
  13 -13  -6 1409.18 130.500   2
 -13 -13   5 2325.54 189.089   2
  13 -13  -5 2105.51 151.906   2
 -13 -13   4 174.925 70.7408   2
 -13 -13   3 21.4614 51.8941   2
 -13 -13   2 1493.46 157.128   2
 -13 -13   1 4323.87 266.526   2
 -13  13   0 438.668 63.3627   2
 -13 -13   0 757.260 123.645   2
 -13 -13  -1 10181.3 429.374   2
 -13 -13  -2 233.480 90.0790   2
 -13 -13  -3 24.7557 63.9862   2
 -13 -13  -4 457.276 113.367   2
 -13 -13  -5 2081.12 214.485   2
  13 -15 -16 480.330 121.176   2
  13 -15 -15 15.2044 71.1438   2
  13 -15 -14 530.406 120.282   2
  13 -15 -13 385.276 84.4984   2
 -13 -15  12 441.352 96.1605   2
  13 -15 -12 651.422 149.444   1
 -13 -15  11 964.529 128.561   2
  13 -15 -11 1020.52 161.189   1
 -13 -15  10 4803.59 279.533   2
  13 -15 -10 4512.45 330.303   1
 -13 -15   9-19.2924 50.5751   2
  13 -15  -9 164.730 91.3848   1
 -13 -15   8 4003.38 254.115   2
 -13 -15   7 4632.53 275.349   2
 -13 -15   6 190.392 67.9508   2
 -13 -15   5-3.07618 48.7480   2
 -13 -15   4 4133.70 262.446   2
 -13 -15   3 248.109 78.8802   2
 -13 -15   2 5687.62 312.546   2
 -13 -15   1 3642.03 311.956   2
 -13 -15   0 235.626 86.9575   2
 -13 -15  -1 1783.83 185.678   2
 -13 -15  -2 3034.92 252.194   2
 -13 -15  -3 782.354 142.904   2
 -13 -15  -4 1849.30 205.911   2
  13 -17 -15-27.7598 68.7173   2
  13 -17 -14 263.203 111.829   2
  13 -17 -13 2233.70 219.925   2
  13 -17 -12-23.3321 73.1229   2
 -13 -17  12-52.3583 64.5774   2
 -13 -17  11 2141.52 191.815   2
  13 -17 -11 2128.51 198.787   2
 -13 -17  10 498.184 99.6535   2
  13 -17  -9 106.315 80.2097   1
 -13 -17   9 56.1023 62.5000   2
 -13 -17   8 493.571 95.9550   2
  13 -17  -8 711.346 141.428   1
 -13 -17   7 2878.71 221.497   2
  13 -17  -7 2099.76 222.085   1
 -13 -17   6 17.8424 54.4169   2
 -13 -17   5 2754.85 214.522   2
 -13 -17   4 861.182 130.079   2
 -13 -17   3 330.402 79.8806   2
 -13 -17   2 458.035 101.485   2
 -13 -17   1 3646.69 266.503   2
 -13 -17   0 124.690 73.2573   2
 -13 -17  -1 928.775 149.902   2
 -13 -17  -2 436.258 117.109   2
 -13 -19   8 1166.72 142.490   2
 -13 -19   7 672.693 120.157   2
 -13 -19   6 123.859 78.3101   2
 -13 -19   5 1776.95 180.236   2
 -13 -19   4 4008.27 271.301   2
 -13 -19   3 27.0576 74.7332   2
 -13 -19   2 898.034 144.108   2
 -13 -19   1 196.702 82.7759   2
 -13 -19   0 20.0605 67.8395   2
  14   0 -20 2416.96 206.557   1
  14   0 -19-12.5062 60.3002   1
  14   0 -18 2374.60 204.387   1
  14   0 -17 22.6424 61.0425   1
  14   0 -16 4311.34 263.192   1
  14   0 -15-33.3178 55.4447   1
  14   0 -14 7788.05 335.213   1
  14   0 -13 10.5963 55.4284   1
  14   0 -12 600.129 96.7898   1
 -14   0  11 42.4084 44.1364   2
 -14   0  10 524.170 95.1113   2
 -14   0   9 44.6986 42.2658   2
 -14   0   8 9972.16 358.044   2
 -14   0   7 74.9746 50.7252   2
 -14   0   6 61.8232 53.9710   2
 -14   0   5-32.6268 46.0641   2
 -14   0   4 5477.42 255.181   2
 -14   0   3 38.1238 47.9791   2
 -14   0   2 15755.5 439.929   2
 -14   0   1 71.0444 54.1754   2
 -14   0   0 7875.36 321.985   2
 -14   0  -1 74.2185 57.9757   2
 -14   0  -2 583.488 102.780   2
 -14   0  -3 12.9868 49.4725   2
 -14   0  -4 9354.92 390.102   2
 -14   0  -5-80.5639 70.7248   2
 -14   0  -6 9622.55 411.765   2
 -14   0  -7 55.8396 70.3713   2
 -14   0  -8 3680.30 274.927   2
 -14   0  -9 137.401 81.2051   2
  14  -2 -21 1669.67 200.967   1
  14  -2 -20 168.046 74.4674   1
  14  -2 -19-129.031 77.7328   1
  14   2 -18 126.914 64.8233   1
  14  -2 -18 212.520 89.1134   1
  14   2 -17 627.196 105.464   1
  14  -2 -17 414.559 96.2466   1
  14  -2 -16-127.289 79.6585   1
  14   2 -16-27.1136 45.9998   1
  14   2 -15 3756.30 223.698   1
  14  -2 -15 3493.78 245.500   1
  14  -2 -14 1102.42 139.619   1
  14   2 -14 923.637 114.120   1
  14  -2 -13 211.746 84.1044   1
  14   2 -13 229.902 67.4305   1
  14   2 -12 990.284 112.170   1
  14  -2 -12 794.225 120.724   1
 -14  -2  12 1048.99 130.247   2
 -14  -2  11 4290.84 250.179   2
 -14   2  10 1835.12 160.026   2
 -14  -2  10 1704.58 153.300   2
 -14   2   9 2597.63 188.041   2
 -14  -2   9 2415.27 180.608   2
 -14   2   8-11.9742 48.5520   2
 -14  -2   8 84.6993 52.8906   2
 -14   2   7 193.750 63.0123   2
 -14  -2   7 228.106 66.3568   2
 -14   2   6 345.398 77.0562   2
 -14  -2   6 430.711 83.1673   2
 -14   2   5 3027.45 191.042   2
 -14  -2   5 3095.67 200.348   2
 -14   2   4 707.562 95.7300   2
 -14  -2   4 619.714 94.8857   2
 -14   2   3 11872.7 372.485   2
 -14  -2   3 11779.0 387.916   2
 -14   2   2 186.642 62.0166   2
 -14  -2   2 101.785 58.9757   2
 -14   2   1 288.058 69.1959   2
 -14  -2   1 287.649 71.6462   2
 -14   2   0 447.868 83.8267   2
 -14  -2   0 524.461 95.7484   2
 -14   2  -1 2688.40 190.564   2
 -14  -2  -1 2626.81 199.768   2
 -14   2  -2 2204.15 174.485   2
 -14  -2  -2 2370.01 189.357   2
 -14   2  -3 16084.8 480.799   2
 -14  -2  -3 16176.3 504.646   2
 -14   2  -4 4065.70 251.535   2
 -14  -2  -4 4206.23 263.712   2
 -14   2  -5 177.609 77.9767   2
 -14  -2  -5 144.139 73.3001   2
 -14   2  -6 529.170 107.692   2
 -14  -2  -6 561.379 112.068   2
 -14   2  -7 1000.11 137.819   2
 -14  -2  -7 989.428 147.491   2
 -14   2  -8 9.24724 65.7604   2
 -14  -2  -8 4.18631 64.4537   2
 -14   2  -9 6019.87 349.809   2
 -14  -2  -9 6450.91 382.757   2
 -14   2 -10 62.2437 71.8927   2
  14  -4 -21-6.64282 72.1216   1
  14  -4 -20 541.622 131.097   1
  14  -4 -19-109.368 79.6316   1
  14  -4 -18 2881.40 250.168   1
  14  -4 -17 395.129 108.750   1
  14   4 -16-11.7389 34.9424   1
  14  -4 -16 37.3835 75.7222   1
  14   4 -15 8.86610 35.2229   1
  14  -4 -15 85.6150 62.9330   1
  14   4 -14 4141.65 206.532   1
  14  -4 -14 4299.98 278.300   1
  14   4 -13 367.878 70.8336   1
  14  -4 -13 302.578 91.1375   1
  14   4 -12 4924.51 226.119   1
 -14  -4  12 5259.24 281.736   2
  14  -4 -12 4697.84 283.899   1
 -14  -4  11 93.4762 51.3961   2
 -14  -4  10 3177.54 208.232   2
 -14   4   9-7.80020 46.1285   2
 -14  -4   9-77.0606 57.5314   2
 -14   4   8 1340.72 136.603   2
 -14  -4   8 1214.58 130.727   2
 -14   4   7 3265.14 200.778   2
 -14  -4   7 3210.78 208.483   2
 -14   4   6 2787.05 184.368   2
 -14  -4   6 2813.73 189.361   2
 -14   4   5 595.270 89.4082   2
 -14  -4   5 601.076 92.5315   2
 -14   4   4-19.4186 48.4955   2
 -14  -4   4 98.1009 57.3604   2
 -14   4   3 493.874 81.1890   2
 -14  -4   3 433.248 83.4817   2
 -14   4   2 3883.94 213.501   2
 -14  -4   2 3732.33 224.772   2
 -14   4   1 141.566 52.5493   2
 -14  -4   1 56.0906 49.3312   2
 -14   4   0 12984.8 396.348   2
 -14  -4   0 12528.5 421.673   2
 -14   4  -1 68.0832 50.5203   2
 -14  -4  -1 24.2839 46.5833   2
 -14   4  -2 906.915 115.986   2
 -14  -4  -2 964.183 134.183   2
 -14   4  -3 358.401 85.4882   2
 -14  -4  -3 262.589 82.0471   2
 -14   4  -4 3764.85 236.610   2
 -14  -4  -4 3550.96 252.420   2
 -14   4  -5 51.9013 51.7514   2
 -14  -4  -5 171.807 78.8714   2
 -14   4  -6 6748.67 330.914   2
 -14  -4  -6 6921.09 367.182   2
 -14   4  -7 125.205 68.2477   2
 -14  -4  -7 172.073 82.1064   2
 -14   4  -8 2751.66 222.909   2
 -14  -4  -8 3122.07 259.634   2
 -14   4  -9 34.8832 59.2083   2
 -14   4 -10 1228.57 169.277   2
 -14   4 -11 1152.93 164.121   2
  14  -6 -20-103.548 84.7811   1
  14  -6 -19 973.696 230.890   1
  14  -6 -18 31.5859 67.4318   1
  14  -6 -17 1557.18 190.216   1
  14  -6 -16 166.710 80.9411   1
  14  -6 -15 2815.65 237.886   1
  14  -6 -14 329.112 99.3601   1
  14   6 -14 210.330 50.3992   1
  14  -6 -13 804.453 126.548   1
  14   6 -13 973.402 88.1118   1
 -14  -6  13 1041.44 135.956   2
 -14  -6  12 186.065 70.1301   2
  14   6 -12 252.509 51.9388   1
  14  -6 -12 60.0816 73.7496   1
 -14  -6  11 7537.94 331.086   2
  14   6 -11 6782.61 233.363   1
 -14  -6  10 957.550 122.178   2
 -14  -6   9 13622.1 430.875   2
 -14   6   8 2341.92 176.060   2
 -14  -6   8 2203.49 173.622   2
 -14   6   7 2377.62 172.944   2
 -14  -6   7 2149.68 168.281   2
 -14   6   6 2168.43 159.826   2
 -14  -6   6 2348.25 180.487   2
 -14   6   5 3616.93 211.603   2
 -14  -6   5 3535.80 224.067   2
 -14   6   4 757.068 106.011   2
 -14  -6   4 708.604 107.719   2
 -14   6   3 6850.47 284.173   2
 -14  -6   3 6869.17 306.591   2
 -14   6   2 54.8062 42.1395   2
 -14  -6   2-33.2116 50.8430   2
 -14   6   1 3040.56 187.147   2
 -14  -6   1 3095.82 211.421   2
 -14   6   0 361.406 68.6215   2
 -14  -6   0 410.999 89.3725   2
 -14   6  -1 4903.45 244.758   2
 -14  -6  -1 4810.69 275.252   2
 -14   6  -2 879.097 110.391   2
 -14  -6  -2 874.245 126.769   2
 -14   6  -3 5894.74 274.664   2
 -14  -6  -3 5921.92 322.755   2
 -14   6  -4 34.5117 56.1396   2
 -14  -6  -4 75.2760 63.7217   2
 -14   6  -5 301.252 80.3818   2
 -14  -6  -5 268.123 90.8081   2
 -14   6  -6 365.454 84.0078   2
 -14  -6  -6 351.938 96.3050   2
 -14   6  -7 1327.88 153.195   2
 -14  -6  -7 1417.54 183.156   2
 -14   6  -8 338.013 83.9331   2
 -14   6  -9 3151.92 237.546   2
  14  -8 -18 2416.38 245.841   1
  14  -8 -17 25.0018 70.3301   1
  14  -8 -16 227.070 89.4534   1
  14  -8 -15-18.8892 63.8238   1
  14  -8 -14 1798.89 195.170   1
  14  -8 -13-51.9635 75.3984   1
 -14  -8  13 65.9602 53.2811   2
 -14  -8  12 6773.38 325.772   2
  14  -8 -12 6780.79 370.970   1
 -14  -8  11 704.327 114.046   2
  14  -8 -11 486.942 103.149   1
  14   8 -11 529.695 57.3692   1
 -14  -8  10 122.776 54.2581   2
 -14  -8   9 1033.04 129.454   2
 -14  -8   8 24.9041 48.5822   2
 -14   8   7 615.612 99.0560   2
 -14  -8   7 583.737 97.6962   2
 -14   8   6 13720.6 410.403   2
 -14  -8   6 13649.5 433.970   2
 -14   8   5 1586.06 143.280   2
 -14  -8   5 1582.18 152.514   2
 -14   8   4 879.330 104.020   2
 -14  -8   4 835.012 120.338   2
 -14   8   3 4366.98 221.939   2
 -14  -8   3 4439.09 255.380   2
  14  -8  -3 3934.67 211.711   2
 -14   8   2 1427.70 130.800   2
 -14  -8   2 1415.79 148.554   2
  14  -8  -2 1385.01 127.970   2
  14  -8  -1 68.0996 47.1082   2
 -14   8   1-4.66519 38.3835   2
 -14  -8   1-102.112 68.4686   2
 -14   8   0 6117.18 265.436   2
 -14  -8   0 6462.13 317.664   2
 -14   8  -1 318.413 67.6369   2
 -14  -8  -1 438.728 102.530   2
 -14   8  -2 100.409 52.7663   2
 -14  -8  -2-100.136 68.0168   2
 -14   8  -3 600.371 91.2229   2
 -14  -8  -3 526.236 105.964   2
 -14   8  -4 3222.11 200.345   2
 -14  -8  -4 3527.38 266.633   2
 -14   8  -5 1662.41 146.803   2
 -14  -8  -5 1946.79 203.238   2
 -14   8  -6 4861.99 257.436   2
 -14  -8  -6 5295.01 335.269   2
 -14   8  -7 84.5269 58.1908   2
  14 -10 -17 1423.19 201.453   1
  14 -10 -16-46.8958 80.7161   1
  14 -10 -15 3373.45 282.546   1
  14 -10 -14 72.7605 65.2281   1
 -14 -10  13-35.2654 59.5038   2
  14 -10 -13-31.3732 75.7048   1
 -14 -10  12 4.57285 53.3496   2
  14 -10 -12 110.974 73.2502   1
 -14 -10  11 5288.09 290.595   2
  14 -10 -11 5279.13 326.476   1
 -14 -10  10 70.8741 63.2945   2
 -14 -10   9 3703.81 239.643   2
 -14 -10   8-19.2866 52.3151   2
 -14 -10   7 87.6908 56.3993   2
 -14 -10   6 2800.81 200.940   2
 -14  10   5 379.965 77.3785   2
 -14 -10   5 471.670 94.4892   2
 -14  10   4 3189.16 194.757   2
 -14 -10   4 3203.30 222.866   2
  14 -10  -4 3035.56 188.681   2
 -14  10   3 15699.7 415.823   2
 -14 -10   3 15876.3 492.994   2
  14 -10  -3 14825.6 406.225   2
  14 -10  -2 16.0451 36.7966   2
 -14  10   2 67.7064 44.7450   2
 -14 -10   2 62.4809 64.9727   2
  14 -10  -1 1450.44 129.899   2
 -14  10   1 1449.97 129.478   2
 -14 -10   1 1439.32 158.844   2
  14 -10   0 1221.07 118.373   2
 -14  10   0 1317.45 121.821   2
 -14 -10   0 1355.55 149.929   2
 -14  10  -1 394.242 71.0349   2
 -14 -10  -1 472.002 104.138   2
 -14  10  -2 163.102 55.1905   2
 -14 -10  -2 86.7577 64.4620   2
 -14  10  -3 5511.72 247.813   2
 -14 -10  -3 6071.52 341.889   2
 -14  10  -4 589.793 88.9038   2
 -14 -10  -4 595.933 117.444   2
 -14 -10  -5 562.975 125.412   2
  14 -12 -15-78.6017 103.677   1
  14 -12 -14 3935.19 318.865   1
 -14 -12  13 30.7237 61.6705   2
  14 -12 -13-106.915 70.8197   1
  14 -12 -12 2088.22 223.378   1
 -14 -12  12 2191.38 198.801   2
  14 -12 -11 1155.81 169.889   1
 -14 -12  11 1492.62 159.982   2
  14 -12 -10 1778.15 204.429   1
 -14 -12  10 2424.31 203.908   2
 -14 -12   9 454.093 94.8437   2
 -14 -12   8 6213.23 317.568   2
 -14 -12   7 301.226 85.7940   2
 -14 -12   6 1604.44 166.828   2
 -14 -12   5 1004.56 135.900   2
 -14 -12   4 835.741 121.309   2
 -14  12   3 1699.75 134.319   2
 -14 -12   3 1702.56 174.664   2
 -14  12   2 2973.62 179.034   2
 -14 -12   2 3465.19 242.120   2
 -14  12   1 1170.10 111.145   2
 -14 -12   1 1431.04 166.301   2
 -14  12   0 10658.7 321.437   2
 -14 -12   0 11819.2 455.773   2
 -14 -12  -1-5.37269 55.1442   2
 -14 -12  -2 3515.10 264.416   2
 -14 -12  -3 3330.62 261.420   2
 -14 -12  -4 4289.05 302.249   2
  14 -14 -16 31.0886 67.6768   2
  14 -14 -15 1897.59 219.832   2
 -14 -14  13 56.0097 74.2866   2
 -14 -14  12-50.6085 65.9525   2
  14 -14 -12-64.3411 70.4352   1
  14 -14 -11 1754.92 210.227   1
 -14 -14  11 1354.53 154.531   2
 -14 -14  10 134.673 69.6259   2
  14 -14 -10 180.612 93.1093   1
 -14 -14   9 3871.34 258.302   2
 -14 -14   8 77.0732 61.4294   2
 -14 -14   7 67.7227 65.0332   2
 -14 -14   6 1251.36 146.572   2
 -14 -14   5 1284.91 157.116   2
 -14 -14   4 10.8615 55.0392   2
 -14 -14   3 7959.19 375.290   2
 -14 -14   2 273.681 85.8890   2
 -14 -14   1 65.3407 66.7181   2
 -14 -14   0 316.070 81.2705   2
 -14 -14  -1 2597.60 231.879   2
 -14 -14  -2-31.7108 90.9859   2
 -14 -14  -3 4207.63 306.150   2
  14 -16 -15 322.541 113.517   2
  14 -16 -14 844.753 140.910   2
  14 -16 -13 166.159 82.2119   2
  14 -16 -12 2357.08 216.473   2
 -14 -16  12 2322.20 204.978   2
 -14 -16  11 342.914 91.1042   2
 -14 -16  10 958.775 127.546   2
 -14 -16   9 597.734 119.559   2
  14 -16  -9 410.928 129.159   1
 -14 -16   8 2588.17 215.452   2
 -14 -16   7 165.380 63.7280   2
 -14 -16   6 4477.68 282.964   2
 -14 -16   5 190.530 73.1220   2
 -14 -16   4 843.376 135.107   2
 -14 -16   3 1905.52 192.886   2
 -14 -16   2 2102.90 209.434   2
 -14 -16   1 636.846 119.954   2
 -14 -16   0 6282.07 361.757   2
 -14 -16  -1 47.5127 72.8425   2
 -14 -18  10 140.941 64.5138   2
 -14 -18   9 813.485 135.898   2
 -14 -18   8 1357.36 162.766   2
 -14 -18   7 3225.24 247.305   2
 -14 -18   6 17.0624 66.5112   2
 -14 -18   5 2294.56 216.269   2
 -14 -18   4 53.1217 65.1183   2
 -14 -18   3 4841.03 315.128   2
 -14 -18   2 1177.92 183.610   2
 -14 -18   1 975.278 152.265   2
 -14 -20   5 1833.64 199.969   2
 -14 -20   4 723.435 139.438   2
 -14 -20   3 409.929 115.559   2
  15  -1 -20 194.042 68.9028   1
  15  -1 -19 972.462 145.596   1
  15   1 -18 40.3411 55.3013   1
  15  -1 -18 249.834 93.6713   1
  15   1 -17 1410.73 146.731   1
  15  -1 -17 1418.09 161.249   1
  15   1 -16 3440.78 228.379   1
  15  -1 -16 3719.26 253.992   1
  15  -1 -15 1183.69 150.218   1
  15   1 -15 1087.25 131.356   1
  15   1 -14 2268.13 179.370   1
  15  -1 -14 2316.55 197.384   1
  15   1 -13 4972.96 259.920   1
  15  -1 -13 4881.76 281.578   1
 -15  -1  12 190.137 74.8444   2
 -15   1  11 379.196 86.8146   2
 -15  -1  11 452.761 93.6631   2
 -15   1  10 785.643 112.995   2
 -15  -1  10 745.656 111.721   2
 -15   1   9 57.0967 44.8936   2
 -15  -1   9 43.6930 51.2231   2
 -15   1   8 719.543 105.458   2
 -15  -1   8 679.523 100.749   2
 -15   1   7 26.3640 54.2717   2
 -15  -1   7 21.3130 53.9854   2
 -15   1   6 62.2738 53.3101   2
 -15  -1   6 76.5826 44.0859   2
 -15   1   5 4463.17 240.611   2
 -15  -1   5 4774.34 253.322   2
 -15   1   4 2144.05 171.862   2
 -15  -1   4 2172.11 176.943   2
 -15   1   3 270.783 68.4755   2
 -15  -1   3 348.638 79.5350   2
 -15   1   2 1314.86 133.562   2
 -15  -1   2 1344.78 146.647   2
 -15   1   1 4422.37 248.232   2
 -15  -1   1 4632.62 255.275   2
 -15   1   0 791.475 111.427   2
 -15  -1   0 759.349 110.605   2
 -15   1  -1 994.149 127.732   2
 -15  -1  -1 1113.99 136.072   2
 -15   1  -2 5096.17 280.047   2
 -15  -1  -2 5176.34 286.173   2
 -15   1  -3 33.8335 57.3344   2
 -15  -1  -3 51.0922 50.2166   2
 -15   1  -4 679.052 117.974   2
 -15  -1  -4 673.018 112.056   2
 -15   1  -5 6604.67 345.907   2
 -15  -1  -5 6671.53 355.016   2
 -15   1  -6 193.296 66.4323   2
 -15  -1  -6 293.945 99.9863   2
 -15   1  -7 2964.51 243.594   2
 -15  -1  -7 3095.30 260.099   2
 -15   1  -8 1639.12 191.898   2
 -15  -1  -8 1766.59 206.346   2
 -15   1  -9 24.0666 62.5046   2
  15  -3 -21-25.5512 79.2743   1
  15  -3 -20 865.102 150.040   1
  15  -3 -19 1606.39 188.779   1
  15  -3 -18 359.374 96.2440   1
  15  -3 -17 824.969 135.766   1
  15  -3 -16 446.971 98.8435   1
  15   3 -16 469.443 82.5632   1
  15  -3 -15 206.486 84.5637   1
  15   3 -15 204.957 61.5361   1
  15   3 -14 130.366 58.7184   1
  15  -3 -14-93.6812 68.3711   1
  15   3 -13 1320.75 125.229   1
  15  -3 -13 1408.47 165.988   1
 -15  -3  12 986.788 132.553   2
  15   3 -12 810.378 101.386   1
 -15  -3  11 3895.27 246.450   2
 -15   3  10 1210.91 138.622   2
 -15  -3  10 1103.85 129.846   2
 -15   3   9 379.142 83.4223   2
 -15  -3   9 466.525 93.9800   2
 -15   3   8 4037.30 233.525   2
 -15  -3   8 3952.31 233.874   2
 -15   3   7 531.173 96.4072   2
 -15  -3   7 532.255 96.1993   2
 -15   3   6 24.0764 42.2011   2
 -15  -3   6-35.8076 47.6868   2
 -15   3   5 536.413 94.7382   2
 -15  -3   5 545.347 94.7089   2
 -15   3   4 6512.75 292.703   2
 -15  -3   4 6631.84 303.070   2
 -15   3   3 353.888 74.9135   2
 -15  -3   3 307.219 85.0907   2
 -15   3   2 3821.63 223.316   2
 -15  -3   2 3946.13 238.437   2
 -15   3   1 1719.13 151.979   2
 -15  -3   1 1554.05 152.018   2
 -15   3   0 985.569 120.497   2
 -15  -3   0 968.628 125.435   2
 -15   3  -1 1644.34 155.888   2
 -15  -3  -1 1571.55 164.320   2
 -15   3  -2 9038.67 363.644   2
 -15  -3  -2 8531.23 373.902   2
 -15   3  -3 776.448 117.725   2
 -15  -3  -3 767.184 129.041   2
 -15   3  -4 178.693 77.8229   2
 -15  -3  -4 245.024 86.0932   2
 -15   3  -5 1857.17 178.156   2
 -15  -3  -5 2003.83 202.792   2
 -15   3  -6 65.6453 65.7867   2
 -15  -3  -6-9.78844 56.4326   2
 -15   3  -7 3125.89 249.602   2
 -15  -3  -7 3363.15 276.907   2
 -15   3  -8 1254.75 163.810   2
 -15   3  -9 25.7770 78.1300   2
  15  -5 -20 35.3723 73.3628   1
  15  -5 -19 759.078 152.333   1
  15  -5 -18-242.199 103.106   1
  15  -5 -17 394.592 113.810   1
  15  -5 -16 1716.65 193.418   1
  15  -5 -15 1033.95 149.902   1
  15   5 -14 666.145 84.0391   1
  15  -5 -14 662.039 124.427   1
 -15  -5  13 3004.25 222.402   2
  15  -5 -13 2574.75 220.969   1
  15   5 -13 2736.41 163.163   1
  15  -5 -12 1283.76 156.116   1
 -15  -5  12 1165.74 142.382   2
  15   5 -12 1277.60 113.503   1
 -15  -5  11 1128.07 140.636   2
 -15  -5  10 2096.84 179.525   2
 -15   5   9 68.2979 57.7250   2
 -15  -5   9 120.394 61.3531   2
 -15   5   8 3513.38 217.656   2
 -15  -5   8 3441.88 222.037   2
 -15   5   7 8622.58 340.323   2
 -15  -5   7 8390.97 345.509   2
 -15   5   6 62.8359 45.8143   2
 -15  -5   6 80.9266 52.8526   2
 -15   5   5 6174.22 281.904   2
 -15  -5   5 6079.16 295.395   2
 -15   5   4 1903.30 157.505   2
 -15  -5   4 1788.10 160.074   2
 -15   5   3 53.4472 55.4920   2
 -15  -5   3-38.9904 51.9374   2
 -15   5   2 3854.40 223.328   2
 -15  -5   2 3671.44 232.422   2
 -15   5   1 12200.5 398.519   2
 -15  -5   1 12243.5 428.159   2
 -15   5   0 1345.23 139.082   2
 -15  -5   0 1420.79 154.051   2
 -15   5  -1 740.054 108.784   2
 -15  -5  -1 806.191 123.813   2
 -15   5  -2 2624.23 194.873   2
 -15  -5  -2 2631.95 215.569   2
 -15   5  -3 643.728 102.505   2
 -15  -5  -3 667.245 118.440   2
 -15   5  -4 133.439 57.3015   2
 -15  -5  -4 291.504 98.5904   2
 -15   5  -5 2296.47 193.273   2
 -15  -5  -5 2618.79 234.200   2
 -15   5  -6-51.5704 65.4847   2
 -15  -5  -6 35.7158 68.5142   2
 -15   5  -7 4962.75 298.984   2
 -15   5  -8 710.449 122.362   2
 -15   5  -9 550.814 120.707   2
  15  -7 -19 551.112 128.712   1
  15  -7 -18 411.712 120.095   1
  15  -7 -17-7.85281 73.9761   1
  15  -7 -16 1195.32 173.313   1
  15  -7 -15 253.730 97.9767   1
  15  -7 -14 486.016 126.186   1
 -15  -7  13 900.560 131.941   2
  15  -7 -13 948.656 146.120   1
 -15  -7  12 1687.10 171.593   2
  15   7 -12 1650.37 110.791   1
  15  -7 -12 1923.07 194.462   1
 -15  -7  11-6.05758 49.2481   2
 -15  -7  10 4243.33 262.027   2
 -15  -7   9 510.583 100.001   2
 -15   7   8 2569.99 190.988   2
 -15  -7   8 2411.81 189.843   2
 -15   7   7 3656.31 225.993   2
 -15  -7   7 3689.10 238.232   2
 -15   7   6 1256.56 133.506   2
 -15  -7   6 1379.08 147.731   2
 -15   7   5 2014.16 163.192   2
 -15  -7   5 1962.21 172.457   2
 -15   7   4 10637.7 366.484   2
 -15  -7   4 11181.8 407.036   2
 -15   7   3 30.2362 47.5516   2
 -15  -7   3 117.452 55.8136   2
 -15   7   2 6411.31 287.015   2
 -15  -7   2 5949.91 305.264   2
 -15   7   1 304.358 70.4067   2
 -15  -7   1 305.868 78.0731   2
 -15   7   0 389.897 81.5023   2
 -15  -7   0 533.116 103.144   2
 -15   7  -1 671.450 100.524   2
 -15  -7  -1 642.338 114.225   2
 -15   7  -2 1339.86 137.366   2
 -15  -7  -2 1428.79 169.124   2
 -15   7  -3 445.670 87.1259   2
 -15  -7  -3 597.957 123.410   2
 -15   7  -4 3472.33 221.294   2
 -15  -7  -4 3676.96 272.069   2
 -15   7  -5 401.684 87.7269   2
 -15  -7  -5 308.690 104.715   2
 -15   7  -6 80.7941 63.3267   2
 -15   7  -7 1424.61 154.170   2
  15  -9 -17 440.933 124.523   1
  15  -9 -16 766.417 152.198   1
  15  -9 -15 458.417 129.043   1
  15  -9 -14 605.585 131.795   1
  15  -9 -13 4452.13 323.146   1
 -15  -9  13 4490.34 278.001   2
 -15  -9  12 1979.36 185.224   2
  15  -9 -12 1703.05 196.065   1
 -15  -9  11 2033.63 187.135   2
 -15  -9  10 33.9882 59.8687   2
 -15  -9   9-60.3500 60.8197   2
 -15  -9   8 13.9948 49.0162   2
 -15  -9   7 3462.60 234.971   2
 -15   9   6 2024.12 165.120   2
 -15  -9   6 1970.03 176.265   2
 -15   9   5 3090.37 199.068   2
 -15  -9   5 3258.43 226.374   2
 -15   9   4 6832.66 297.489   2
 -15  -9   4 7329.56 339.890   2
 -15   9   3 1771.52 151.851   2
 -15  -9   3 1851.60 174.852   2
 -15   9   2 1377.37 131.025   2
 -15  -9   2 1395.81 157.044   2
 -15   9   1 6158.62 274.250   2
 -15  -9   1 6549.28 334.578   2
 -15   9   0-57.3710 45.4618   2
 -15  -9   0-60.6133 56.2829   2
 -15   9  -1 703.297 96.7229   2
 -15  -9  -1 576.043 111.574   2
 -15   9  -2 789.304 102.936   2
 -15  -9  -2 846.648 133.920   2
 -15   9  -3 65.2465 50.1684   2
 -15  -9  -3 174.024 79.0500   2
 -15   9  -4 690.720 100.803   2
 -15  -9  -4 925.005 146.999   2
  15 -11 -15 1251.16 193.368   1
  15 -11 -14 257.879 98.4769   1
  15 -11 -13 1204.72 180.855   1
 -15 -11  13 1060.28 145.865   2
 -15 -11  12 1223.83 155.095   2
  15 -11 -12 1089.14 165.064   1
  15 -11 -11 836.718 149.887   1
 -15 -11  11 918.252 130.213   2
 -15 -11  10 3813.11 258.583   2
 -15 -11   9 579.076 117.926   2
 -15 -11   8 1497.97 168.763   2
 -15 -11   7 489.392 102.569   2
 -15 -11   6 766.209 119.658   2
 -15 -11   5 545.233 104.065   2
 -15  11   4 5192.38 250.563   2
 -15 -11   4 5835.79 314.307   2
 -15  11   3 32.3643 40.5194   2
 -15 -11   3 0.56783 50.5321   2
 -15  11   2 3134.06 192.626   2
 -15 -11   2 3203.68 237.791   2
 -15  11   1 3309.78 197.489   2
 -15 -11   1 3565.71 254.943   2
 -15  11   0 224.903 69.6625   2
 -15 -11   0 276.473 86.9857   2
 -15  11  -1 2078.51 152.626   2
 -15 -11  -1 2191.75 210.072   2
 -15 -11  -2 3968.99 284.591   2
 -15 -11  -3 637.611 134.961   2
 -15 -13  13 2121.24 200.461   2
  15 -13 -12-84.2606 88.5358   1
 -15 -13  12 48.9867 55.7171   2
  15 -13 -11 1258.73 188.299   1
 -15 -13  11 1572.18 171.572   2
  15 -13 -10 685.773 145.190   1
 -15 -13  10 448.154 107.396   2
 -15 -13   9 557.342 111.382   2
 -15 -13   8 430.582 102.547   2
 -15 -13   7 4590.35 325.251   2
 -15 -13   6 143.645 78.4248   2
 -15 -13   5 1878.27 184.130   2
 -15 -13   4 659.182 127.571   2
 -15 -13   3 49.8143 54.3405   2
 -15 -13   2 81.6784 59.4528   2
 -15 -13   1 3380.79 255.283   2
 -15 -13   0 553.818 113.974   2
 -15 -13  -1 2248.76 219.080   2
 -15 -13  -2 141.012 90.9578   2
  15 -15 -15 20.4783 75.9535   2
 -15 -15  13 425.982 100.103   2
 -15 -15  12 283.996 89.8378   2
 -15 -15  11 839.124 130.757   2
 -15 -15  10 2039.86 201.321   2
 -15 -15   9 25.9931 62.0851   2
 -15 -15   8 2310.26 208.419   2
 -15 -15   7 1549.42 177.397   2
 -15 -15   6 402.462 91.4365   2
 -15 -15   5 532.899 114.081   2
 -15 -15   4 6751.56 358.678   2
 -15 -15   3 342.395 101.229   2
 -15 -15   2 3380.25 263.770   2
 -15 -15   1 890.559 147.560   2
 -15 -15   0 50.1657 66.2580   2
 -15 -17  12 27.9027 71.6897   2
 -15 -17  11 796.378 128.313   2
 -15 -17  10-95.8578 81.5933   2
 -15 -17   9 147.960 80.1061   2
 -15 -17   8 1140.69 159.245   2
 -15 -17   7 2397.08 217.880   2
 -15 -17   6 107.538 84.1969   2
 -15 -17   5 2410.10 219.260   2
 -15 -17   4 386.298 101.006   2
 -15 -17   3 244.038 98.6361   2
 -15 -17   2 677.428 133.341   2
 -15 -19   8 994.098 140.662   2
 -15 -19   7 37.8838 73.7004   2
 -15 -19   6 344.885 102.892   2
 -15 -19   5 1461.87 187.145   2
  16   0 -18 2129.28 194.474   1
  16   0 -17-54.2780 59.7176   1
  16   0 -16 22.0637 68.1916   1
  16   0 -15 105.567 66.5574   1
  16   0 -14 8582.80 360.420   1
  16   0 -13-55.2511 54.6452   1
 -16   0  12 2867.57 219.330   2
 -16   0  11-31.6649 54.0553   2
 -16   0  10 676.522 106.143   2
 -16   0   9 22.3331 45.4234   2
 -16   0   8 892.752 117.031   2
 -16   0   7-44.3527 55.4742   2
 -16   0   6 4874.67 270.318   2
 -16   0   5 1.27758 45.1255   2
 -16   0   4 6012.50 293.129   2
 -16   0   3 77.3053 58.0054   2
 -16   0   2 2034.47 178.571   2
 -16   0   1 107.038 65.8847   2
 -16   0   0 440.912 96.9291   2
 -16   0  -1-31.7224 51.6891   2
 -16   0  -2 1908.91 180.749   2
 -16   0  -3 24.9326 52.7009   2
 -16   0  -4 4239.40 288.441   2
 -16   0  -5-21.8622 60.3678   2
 -16   0  -6 7466.15 397.448   2
 -16   0  -7-144.569 87.6780   2
  16  -2 -20 257.725 106.628   1
  16  -2 -19 77.0053 69.3056   1
  16  -2 -18-54.3681 65.0139   1
  16  -2 -17 1728.42 184.517   1
  16   2 -17 1631.92 158.098   1
  16   2 -16 2.40846 47.2801   1
  16  -2 -16-91.1389 67.6401   1
  16   2 -15 3071.05 206.123   1
  16  -2 -15 3092.79 238.009   1
  16  -2 -14 120.180 76.4146   1
  16   2 -14 213.731 68.3253   1
  16  -2 -13 169.353 77.1458   1
 -16  -2  13 353.067 92.0220   2
  16   2 -13 140.592 57.4992   1
 -16  -2  12 778.656 128.298   2
 -16   2  11 2886.67 217.039   2
 -16  -2  11 3012.51 223.305   2
 -16   2  10 509.010 97.3526   2
 -16  -2  10 548.066 103.235   2
 -16   2   9 6507.20 310.717   2
 -16  -2   9 6989.28 326.050   2
 -16   2   8 93.1362 57.0090   2
 -16  -2   8 6.02315 48.7427   2
 -16   2   7 1511.16 148.216   2
 -16  -2   7 1749.09 167.258   2
 -16   2   6 3.20320 55.5722   2
 -16  -2   6 10.0551 47.9559   2
 -16   2   5 3432.79 225.801   2
 -16  -2   5 3287.58 223.911   2
 -16   2   4 100.764 63.4561   2
 -16  -2   4 105.982 63.2767   2
 -16   2   3 5984.80 293.829   2
 -16  -2   3 5871.75 294.972   2
 -16   2   2 543.593 93.1134   2
 -16  -2   2 456.753 88.5210   2
 -16   2   1 1186.29 138.729   2
 -16  -2   1 1116.02 139.316   2
 -16   2   0 1388.45 150.811   2
 -16  -2   0 1531.12 161.656   2
 -16   2  -1 399.438 93.6110   2
 -16  -2  -1 373.081 89.9886   2
 -16   2  -2 290.501 80.6906   2
 -16  -2  -2 262.512 87.0385   2
 -16   2  -3 4170.96 264.583   2
 -16  -2  -3 4020.48 271.742   2
 -16   2  -4 1318.09 164.611   2
 -16  -2  -4 1290.99 158.209   2
 -16   2  -5 1652.29 184.885   2
 -16  -2  -5 1945.83 206.842   2
 -16   2  -6 167.399 68.3097   2
 -16  -2  -6 133.720 77.6178   2
 -16   2  -7 593.170 127.210   2
 -16   2  -8 170.705 111.607   2
  16  -4 -20 587.583 136.051   1
  16  -4 -19 22.1948 78.8885   1
  16  -4 -18 2578.63 247.257   1
  16  -4 -17 223.293 99.6046   1
  16  -4 -16 56.6415 61.6630   1
  16   4 -15-2.40797 38.6763   1
  16  -4 -15 59.3812 78.6799   1
  16  -4 -14 1738.68 187.426   1
  16   4 -14 1368.87 129.246   1
  16   4 -13 55.8811 43.5880   1
 -16  -4  13 19.6366 59.6339   2
  16  -4 -13 8.22930 66.8555   1
 -16  -4  12 4514.12 278.918   2
 -16  -4  11 64.3603 57.5586   2
 -16   4  10 2450.39 193.964   2
 -16  -4  10 2660.35 207.515   2
 -16   4   9 23.7207 49.1055   2
 -16  -4   9 115.428 69.2380   2
 -16   4   8 1517.59 152.774   2
 -16  -4   8 1712.31 168.399   2
 -16   4   7 242.399 76.5480   2
 -16  -4   7 210.614 71.8421   2
 -16   4   6 7384.06 322.024   2
 -16  -4   6 7707.22 338.912   2
 -16   4   5 301.029 80.0118   2
 -16  -4   5 179.716 67.5771   2
 -16   4   4 1318.55 137.546   2
 -16  -4   4 1305.25 147.016   2
 -16   4   3 16.3519 45.6474   2
 -16  -4   3 39.5426 47.5833   2
 -16   4   2 2387.87 188.067   2
 -16  -4   2 2474.87 200.467   2
 -16   4   1 3234.65 216.951   2
 -16  -4   1 3097.25 225.696   2
 -16   4   0 3770.06 236.803   2
 -16  -4   0 3836.48 251.640   2
 -16   4  -1 744.207 118.195   2
 -16  -4  -1 765.246 126.026   2
 -16   4  -2 513.188 93.0631   2
 -16  -4  -2 552.527 110.772   2
 -16   4  -3 29.9386 59.3440   2
 -16  -4  -3 183.794 83.4972   2
 -16   4  -4 586.216 108.528   2
 -16  -4  -4 931.724 150.783   2
 -16   4  -5 493.197 111.557   2
 -16  -4  -5 552.350 121.932   2
 -16   4  -6 5518.55 321.635   2
 -16   4  -7 90.5685 79.1454   2
 -16   4  -8 52.3977 61.7347   2
  16  -6 -19-49.6667 79.3635   1
  16  -6 -18 443.656 184.434   1
  16  -6 -17 1251.24 180.012   1
  16  -6 -16 14.1144 69.5411   1
  16  -6 -15 958.187 157.197   1
  16  -6 -14 65.6484 63.5644   1
 -16  -6  13 15.1597 51.7655   2
  16  -6 -13 73.6852 77.7962   1
  16   6 -12 28.6427 34.7075   1
 -16  -6  12 286.251 98.5897   2
 -16  -6  11 5.08106 48.8875   2
 -16  -6  10 795.568 121.067   2
 -16   6   9 6736.16 320.076   2
 -16  -6   9 6821.48 328.145   2
 -16   6   8 290.394 77.5265   2
 -16  -6   8 325.617 80.3357   2
 -16   6   7 348.673 81.1159   2
 -16  -6   7 279.924 74.3838   2
 -16   6   6 122.600 64.4128   2
 -16  -6   6 116.331 68.3171   2
 -16   6   5 6969.41 313.865   2
 -16  -6   5 7015.82 329.839   2
 -16   6   4-32.4298 49.5881   2
 -16  -6   4-32.8899 50.2547   2
 -16   6   3 8895.45 349.715   2
 -16  -6   3 9182.84 384.842   2
 -16   6   2 2430.64 184.341   2
 -16  -6   2 2643.29 210.020   2
 -16   6   1 1544.55 152.110   2
 -16  -6   1 1517.34 165.284   2
 -16   6   0 35.0818 48.2786   2
 -16  -6   0 37.0467 52.1718   2
 -16   6  -1 6092.28 298.054   2
 -16  -6  -1 6665.94 348.129   2
 -16   6  -2-76.7576 62.4850   2
 -16  -6  -2-33.5380 75.6922   2
 -16   6  -3 3803.66 243.294   2
 -16  -6  -3 4036.34 284.663   2
 -16   6  -4 597.217 110.670   2
 -16  -6  -4 804.518 132.558   2
 -16   6  -5 1780.58 176.087   2
 -16   6  -6 131.943 58.9821   2
 -16   6  -7 836.778 136.037   2
  16  -8 -17-40.4318 75.1893   1
  16  -8 -16 13.2888 81.9945   1
  16  -8 -15 207.249 102.525   1
  16  -8 -14 1466.38 186.312   1
 -16  -8  14 1206.10 153.417   2
 -16  -8  13 102.824 70.2429   2
  16  -8 -13-34.8312 81.7127   1
  16  -8 -12 5215.99 339.437   1
 -16  -8  12 6559.08 343.162   2
 -16  -8  11 681.875 118.771   2
 -16  -8  10 21.5205 55.0349   2
 -16  -8   9 644.652 111.428   2
 -16   8   8 1.27607 49.6040   2
 -16  -8   8-85.3284 61.9415   2
 -16   8   7 735.606 119.665   2
 -16  -8   7 689.269 117.447   2
 -16   8   6 11631.4 410.132   2
 -16  -8   6 11935.8 437.516   2
 -16   8   5 194.921 72.6561   2
 -16  -8   5 173.345 71.8123   2
 -16   8   4 275.499 65.7164   2
 -16  -8   4 475.953 96.6647   2
 -16   8   3 736.027 102.720   2
 -16  -8   3 665.327 109.435   2
 -16   8   2 2948.77 200.073   2
 -16  -8   2 3105.15 233.772   2
 -16   8   1 99.2215 56.1675   2
 -16  -8   1 138.917 74.1458   2
 -16   8   0 1797.49 157.002   2
 -16  -8   0 2063.98 196.400   2
 -16   8  -1 848.917 112.481   2
 -16  -8  -1 921.544 143.509   2
 -16   8  -2 291.293 77.1658   2
 -16  -8  -2 360.065 97.6995   2
 -16   8  -3 65.6504 60.6921   2
 -16  -8  -3 82.2839 78.0803   2
 -16   8  -4 1768.49 165.329   2
 -16   8  -5 95.3210 52.9870   2
  16 -10 -15 1299.46 191.048   1
 -16 -10  14 60.7532 61.2101   2
  16 -10 -14 130.652 86.5253   1
 -16 -10  13 188.743 73.4332   2
  16 -10 -13 356.001 122.318   1
  16 -10 -12 1368.66 201.301   1
 -16 -10  12 1813.29 185.944   2
 -16 -10  11 1438.40 165.022   2
 -16 -10  10 50.8049 61.5946   2
 -16 -10   9 3533.35 258.180   2
 -16 -10   8 225.309 73.2838   2
 -16 -10   7 259.155 90.7316   2
 -16  10   6 1517.43 150.661   2
 -16 -10   6 1625.98 174.897   2
 -16  10   5 2570.98 193.977   2
 -16 -10   5 2784.54 228.767   2
 -16  10   4 510.081 90.4925   2
 -16 -10   4 451.316 101.133   2
 -16  10   3 3359.54 212.707   2
 -16 -10   3 3292.27 244.103   2
 -16  10   2-2.67424 43.9931   2
 -16 -10   2-4.78880 57.5093   2
 -16  10   1 415.087 82.9120   2
 -16 -10   1 488.316 102.223   2
 -16  10   0 35.8760 46.5474   2
 -16 -10   0 62.4096 58.0568   2
 -16  10  -1 1148.55 122.037   2
 -16 -10  -1 1491.43 179.412   2
 -16 -10  -2 55.6139 71.6621   2
 -16 -12  14 3503.09 263.686   2
 -16 -12  13 182.149 86.5725   2
 -16 -12  12 2430.74 219.479   2
  16 -12 -12 2740.10 272.462   1
 -16 -12  11 622.338 114.983   2
  16 -12 -11 429.159 120.221   1
 -16 -12  10 117.895 73.0663   2
 -16 -12   9 18.5611 63.2484   2
 -16 -12   8 2492.92 221.177   2
 -16 -12   7 459.681 101.387   2
 -16 -12   6 2750.57 228.004   2
 -16 -12   5 633.220 114.384   2
 -16 -12   4 1613.32 178.532   2
 -16  12   3 641.833 88.9690   2
 -16 -12   3 788.766 134.419   2
 -16  12   2 3684.59 214.334   2
 -16 -12   2 4212.63 287.444   2
 -16 -12   1 662.164 136.641   2
 -16 -12   0 1248.22 166.899   2
 -16 -14  14 221.859 95.3034   2
 -16 -14  13 774.383 136.399   2
 -16 -14  12 181.305 82.7066   2
 -16 -14  11 820.917 129.958   2
 -16 -14  10 79.1584 63.4802   2
 -16 -14   9 5644.58 336.648   2
 -16 -14   8 6.00814 59.4536   2
 -16 -14   7-16.3856 58.6431   2
 -16 -14   6 256.390 88.0453   2
 -16 -14   5 3025.65 248.352   2
 -16 -14   4 130.972 71.2826   2
 -16 -14   3 2651.62 238.755   2
 -16 -14   2 181.058 73.8796   2
 -16 -14   1 726.023 136.841   2
 -16 -16  13 48.1515 58.6851   2
 -16 -16  12 657.762 128.623   2
 -16 -16  11 330.175 102.255   2
 -16 -16  10 474.338 112.511   2
 -16 -16   9 288.302 108.329   2
 -16 -16   8 3272.15 266.907   2
 -16 -16   7 90.2209 62.7801   2
 -16 -16   6 4121.34 292.365   2
 -16 -16   5 309.388 99.9803   2
 -16 -16   4 303.134 92.9393   2
 -16 -18   9 471.667 121.722   2
 -16 -18   8 230.702 92.3777   2
 -16 -18   7 793.196 137.389   2
  17  -1 -19 309.079 96.6094   1
  17  -1 -18 37.8961 59.0865   1
  17   1 -17 356.902 83.3853   1
  17  -1 -17 217.986 74.0048   1
  17  -1 -16 1442.13 163.552   1
  17   1 -16 1305.57 149.088   1
  17   1 -15 992.675 125.102   1
  17  -1 -15 1040.02 144.254   1
  17   1 -14 732.620 114.402   1
  17  -1 -14 681.857 121.405   1
  17   1 -13 1574.73 157.823   1
 -17  -1  13 2096.05 196.519   2
 -17   1  12 134.685 68.8627   2
 -17  -1  12 51.2188 52.3917   2
 -17   1  11 1729.34 172.063   2
 -17  -1  11 1753.23 174.486   2
 -17   1  10 6340.21 322.297   2
 -17  -1  10 6134.96 318.470   2
 -17   1   9 930.498 126.718   2
 -17  -1   9 928.825 133.042   2
 -17   1   8 823.324 120.133   2
 -17  -1   8 875.000 124.510   2
 -17   1   7 2042.28 180.595   2
 -17  -1   7 1945.18 176.530   2
 -17   1   6 709.073 110.692   2
 -17  -1   6 619.638 106.256   2
 -17   1   5 5659.46 293.997   2
 -17  -1   5 5688.12 301.265   2
 -17   1   4 5896.56 304.073   2
 -17  -1   4 5504.95 295.098   2
 -17   1   3 926.682 128.912   2
 -17  -1   3 823.980 125.731   2
 -17   1   2 1760.41 176.517   2
 -17  -1   2 1753.63 176.821   2
 -17   1   1 170.500 75.4726   2
 -17  -1   1 143.467 56.9518   2
 -17   1   0 341.165 89.2541   2
 -17  -1   0 504.061 108.098   2
 -17   1  -1 2279.36 199.495   2
 -17  -1  -1 2498.10 213.159   2
 -17   1  -2 1927.04 187.993   2
 -17  -1  -2 1916.97 193.975   2
 -17   1  -3 262.096 82.1219   2
 -17  -1  -3 237.575 88.7477   2
 -17   1  -4 1019.80 150.201   2
 -17  -1  -4 1039.80 153.575   2
 -17   1  -5 2089.08 212.720   2
 -17  -1  -5 2053.94 212.929   2
 -17   1  -6-18.6521 71.6607   2
  17  -3 -20 512.165 132.521   1
  17  -3 -19 498.024 122.748   1
  17  -3 -18 162.828 80.3847   1
  17  -3 -17 59.2085 68.9127   1
  17  -3 -16 1365.99 176.085   1
  17   3 -15-23.9297 44.5060   1
  17  -3 -15 58.5219 58.9472   1
  17  -3 -14 292.680 94.1152   1
  17   3 -14 247.633 71.6482   1
  17  -3 -13 1685.29 184.421   1
 -17  -3  13 1617.14 174.253   2
  17   3 -13 1449.09 134.925   1
 -17  -3  12-33.6917 56.2239   2
 -17   3  11 5538.68 304.167   2
 -17  -3  11 5569.29 307.781   2
 -17   3  10 5214.03 294.850   2
 -17  -3  10 5156.27 289.263   2
 -17   3   9 391.643 92.0824   2
 -17  -3   9 433.117 96.3996   2
 -17   3   8 1641.37 169.122   2
 -17  -3   8 1636.57 167.249   2
 -17   3   7 5665.68 295.822   2
 -17  -3   7 5713.60 305.232   2
 -17   3   6 380.196 87.8981   2
 -17  -3   6 416.139 91.5140   2
 -17   3   5 3994.25 248.439   2
 -17  -3   5 3800.81 250.688   2
 -17   3   4 593.059 108.366   2
 -17  -3   4 775.627 120.724   2
 -17   3   3-77.8996 57.6720   2
 -17  -3   3 12.6787 61.5070   2
 -17   3   2 2870.09 215.546   2
 -17  -3   2 2824.17 223.964   2
 -17   3   1 774.315 123.714   2
 -17  -3   1 715.207 112.966   2
 -17   3   0 524.121 108.699   2
 -17  -3   0 582.140 116.855   2
 -17   3  -1 1928.95 191.732   2
 -17  -3  -1 1868.78 190.708   2
 -17   3  -2 10840.4 436.420   2
 -17  -3  -2 11103.5 463.060   2
 -17   3  -3 257.938 88.4041   2
 -17  -3  -3 70.8202 63.6711   2
 -17   3  -4 2540.33 221.290   2
 -17  -3  -4 2874.35 250.235   2
 -17   3  -5 2030.78 205.972   2
 -17   3  -6 117.973 80.5325   2
  17  -5 -19 891.371 163.817   1
  17  -5 -18 208.677 98.8312   1
  17  -5 -17 138.793 76.7105   1
  17  -5 -16 315.993 106.448   1
  17  -5 -15 312.963 99.4192   1
 -17  -5  14 225.880 80.0917   2
  17  -5 -14 297.233 97.9741   1
 -17  -5  13 2268.92 209.880   2
  17   5 -13 1603.00 131.945   1
  17  -5 -13 1915.91 206.049   1
 -17  -5  12 18.5780 59.8123   2
 -17  -5  11 1441.35 163.034   2
 -17   5  10 2860.67 218.000   2
 -17  -5  10 3085.36 234.761   2
 -17   5   9 185.147 73.6400   2
 -17  -5   9 128.818 60.6626   2
 -17   5   8 3524.15 239.071   2
 -17  -5   8 3379.02 237.285   2
 -17   5   7 2949.34 220.159   2
 -17  -5   7 3011.50 225.545   2
 -17   5   6 446.254 97.6167   2
 -17  -5   6 412.823 92.4992   2
 -17   5   5 1720.94 161.058   2
 -17  -5   5 1734.56 178.921   2
 -17   5   4 1934.91 176.476   2
 -17  -5   4 2014.04 184.695   2
 -17   5   3 55.5731 49.6886   2
 -17  -5   3 2.36081 54.4399   2
 -17   5   2 2049.41 181.170   2
 -17  -5   2 2058.58 193.192   2
 -17   5   1 2706.81 205.514   2
 -17  -5   1 2868.33 229.210   2
 -17   5   0 1564.11 165.094   2
 -17  -5   0 1523.90 172.955   2
 -17   5  -1 721.392 114.767   2
 -17  -5  -1 691.641 126.155   2
 -17   5  -2 1251.01 152.627   2
 -17  -5  -2 1231.75 164.767   2
 -17   5  -3 114.031 72.9073   2
 -17  -5  -3 169.872 94.3380   2
 -17   5  -4 1930.66 187.686   2
 -17   5  -5 2101.12 206.599   2
 -17   5  -6 9.46948 65.5504   2
 -17   5  -7 1233.96 161.627   2
  17  -7 -17 161.293 95.4296   1
  17  -7 -16 599.360 132.963   1
  17  -7 -15 118.107 91.3964   1
 -17  -7  14 459.641 107.352   2
  17  -7 -14 224.061 104.468   1
 -17  -7  13 1631.70 179.150   2
  17  -7 -13 1415.23 188.139   1
 -17  -7  12 161.451 73.5902   2
 -17  -7  11 1263.86 158.914   2
 -17  -7  10 1902.64 188.475   2
 -17   7   9 842.510 120.460   2
 -17  -7   9 925.514 136.456   2
 -17   7   8 914.569 125.023   2
 -17  -7   8 817.164 128.674   2
 -17   7   7 5943.00 308.785   2
 -17  -7   7 6118.62 326.098   2
 -17   7   6 1624.92 157.412   2
 -17  -7   6 1744.23 180.908   2
 -17   7   5 684.769 116.015   2
 -17  -7   5 744.044 123.386   2
 -17   7   4 2731.41 204.601   2
 -17  -7   4 2971.03 230.306   2
 -17   7   3 544.889 106.167   2
 -17  -7   3 552.855 109.623   2
 -17   7   2 2504.28 195.595   2
 -17  -7   2 2493.56 217.345   2
 -17   7   1 724.028 112.314   2
 -17  -7   1 664.016 126.290   2
 -17   7   0 535.944 97.6113   2
 -17  -7   0 535.154 115.535   2
 -17   7  -1 4323.96 257.340   2
 -17  -7  -1 4583.05 303.412   2
 -17   7  -2 1073.67 135.899   2
 -17  -7  -2 1417.78 181.668   2
 -17   7  -3 53.2309 55.9143   2
 -17   7  -4 2182.29 193.527   2
 -17   7  -5 1725.94 174.892   2
  17  -9 -15-103.044 90.9838   1
  17  -9 -14 975.174 164.308   1
 -17  -9  14 1103.72 153.352   2
 -17  -9  13 7396.41 383.096   2
  17  -9 -13 6338.48 393.232   1
 -17  -9  12 323.600 98.7195   2
 -17  -9  11 222.335 83.2382   2
 -17  -9  10 1058.10 145.790   2
 -17  -9   9 187.948 81.3333   2
 -17  -9   8 342.994 93.4709   2
 -17   9   7 3232.25 222.460   2
 -17  -9   7 3671.33 259.516   2
 -17   9   6 466.920 93.7725   2
 -17  -9   6 355.628 90.9123   2
 -17   9   5 1978.90 172.559   2
 -17  -9   5 2207.53 201.561   2
 -17   9   4 1563.18 152.567   2
 -17  -9   4 2047.34 198.281   2
 -17   9   3 211.693 74.7511   2
 -17  -9   3 285.155 94.3466   2
 -17   9   2 1399.91 143.978   2
 -17  -9   2 1786.56 188.710   2
 -17   9   1 581.805 102.000   2
 -17  -9   1 729.948 128.995   2
 -17   9   0 395.248 82.5286   2
 -17  -9   0 559.602 122.403   2
 -17   9  -1 1864.70 167.349   2
 -17  -9  -1 2075.91 215.412   2
 -17   9  -2 1611.48 158.135   2
 -17 -11  14-42.4820 63.5710   2
 -17 -11  13 349.663 104.918   2
 -17 -11  12 331.144 101.960   2
  17 -11 -12 421.989 129.558   1
 -17 -11  11 1400.18 172.146   2
 -17 -11  10 2348.94 223.901   2
 -17 -11   9 296.973 101.127   2
 -17 -11   8 109.284 66.2493   2
 -17 -11   7 1040.08 148.716   2
 -17 -11   6 1167.61 152.316   2
 -17  11   5 1044.95 126.075   2
 -17 -11   5 1165.02 159.373   2
 -17  11   4 1140.09 131.518   2
 -17 -11   4 1618.34 182.866   2
 -17  11   3 226.738 68.8196   2
 -17 -11   3 379.010 105.820   2
 -17  11   2 1279.79 135.056   2
 -17 -11   2 1343.13 170.402   2
 -17 -11   1-56.0703 62.1613   2
 -17 -13  13 1431.41 176.736   2
 -17 -13  12-26.1506 59.2043   2
 -17 -13  11 531.658 119.072   2
 -17 -13  10 4461.30 313.178   2
 -17 -13   9 816.626 144.994   2
 -17 -13   8 239.054 90.5537   2
 -17 -13   7 1539.24 189.162   2
 -17 -13   6-30.0857 62.3881   2
 -17 -13   5 1233.28 167.432   2
 -17 -13   4 455.855 106.201   2
 -17 -13   3 864.885 143.476   2
 -17 -15  11 911.826 153.122   2
 -17 -15  10 1435.50 191.145   2
 -17 -15   9 348.717 102.127   2
 -17 -15   8-53.9865 69.1773   2
 -17 -15   7 1183.67 165.568   2
 -17 -15   6 772.660 142.105   2
  18   0 -17 122.165 64.4642   1
  18   0 -16 15.6685 53.6720   1
  18   0 -15-15.7697 50.6940   1
  18   0 -14 3058.24 227.462   1
 -18   0  13 4.10195 52.8540   2
 -18   0  12 6488.07 345.915   2
 -18   0  11 27.4833 66.2109   2
 -18   0  10 93.9792 76.0166   2
 -18   0   9-5.81676 61.9369   2
 -18   0   8 3578.61 246.632   2
 -18   0   7-3.67890 51.0112   2
 -18   0   6 7187.07 348.084   2
 -18   0   5 44.9499 67.2097   2
 -18   0   4 49.4340 56.0636   2
 -18   0   3-8.61437 64.7018   2
 -18   0   2 107.301 69.3176   2
 -18   0   1-47.1211 64.0177   2
 -18   0   0 7843.77 384.822   2
 -18   0  -1 15.8531 64.9447   2
 -18   0  -2 763.978 130.847   2
 -18   0  -3-0.13837 66.3479   2
 -18   0  -4 1424.68 185.384   2
  18  -2 -19 33.7576 72.3236   1
  18  -2 -18 162.546 77.8876   1
  18  -2 -17 1776.09 193.734   1
  18  -2 -16-73.3366 83.0276   1
  18  -2 -15 1102.58 145.460   1
  18   2 -15 1153.64 131.773   1
  18  -2 -14-15.5341 62.0586   1
  18   2 -14 22.2237 46.1728   1
 -18  -2  13 1012.13 141.067   2
 -18   2  12 166.956 74.0303   2
 -18  -2  12 226.455 79.9370   2
 -18   2  11 9083.96 410.270   2
 -18  -2  11 8984.06 404.182   2
 -18   2  10 145.395 68.0734   2
 -18  -2  10 93.0400 64.8699   2
 -18   2   9 2879.27 225.360   2
 -18  -2   9 2709.91 221.303   2
 -18   2   8 187.335 76.5625   2
 -18  -2   8 161.868 72.8216   2
 -18   2   7 349.468 90.4042   2
 -18  -2   7 354.813 90.8491   2
 -18   2   6-25.4561 59.5843   2
 -18  -2   6 43.2586 63.8280   2
 -18   2   5 5105.90 296.778   2
 -18  -2   5 5385.95 306.614   2
 -18   2   4 6.09075 53.5693   2
 -18  -2   4 2.16910 59.1066   2
 -18   2   3 4847.78 290.692   2
 -18  -2   3 4723.61 294.090   2
 -18   2   2 541.321 108.148   2
 -18  -2   2 561.512 118.153   2
 -18   2   1 765.881 128.256   2
 -18  -2   1 693.029 126.676   2
 -18   2   0 86.7346 64.0367   2
 -18  -2   0 54.0325 60.8379   2
 -18   2  -1 3716.44 270.219   2
 -18  -2  -1 3949.89 281.702   2
 -18   2  -2 70.4267 64.4786   2
 -18  -2  -2 106.480 77.3572   2
 -18   2  -3 4595.30 308.080   2
 -18  -2  -3 4969.90 328.447   2
 -18   2  -4 388.435 104.690   2
  18  -4 -19-123.106 83.0855   1
  18  -4 -18 754.373 141.900   1
  18  -4 -17 315.318 108.135   1
  18  -4 -16 29.3560 82.2037   1
  18  -4 -15 37.6530 62.5029   1
 -18  -4  14 1671.13 187.560   2
  18  -4 -14 1378.57 170.863   1
 -18  -4  13-177.964 84.7795   2
  18   4 -13 36.4836 45.2034   1
 -18  -4  12 4644.58 297.076   2
 -18   4  11-60.2098 59.5444   2
 -18  -4  11 53.7871 59.0058   2
 -18   4  10 164.748 67.3996   2
 -18  -4  10 292.415 97.6002   2
 -18   4   9-24.6378 59.3190   2
 -18  -4   9 39.4841 59.9565   2
 -18   4   8 7240.25 354.697   2
 -18  -4   8 7415.24 363.076   2
 -18   4   7-41.6446 69.8602   2
 -18  -4   7 70.7811 61.4606   2
 -18   4   6 6056.36 318.914   2
 -18  -4   6 6237.43 329.232   2
 -18   4   5-26.5952 55.2138   2
 -18  -4   5 97.1214 74.2640   2
 -18   4   4 1709.28 172.208   2
 -18  -4   4 1851.38 181.384   2
 -18   4   3-62.9408 56.3060   2
 -18  -4   3 80.3481 65.6933   2
 -18   4   2 261.372 88.8038   2
 -18  -4   2 217.957 80.0851   2
 -18   4   1 2011.51 185.919   2
 -18  -4   1 2271.09 209.810   2
 -18   4   0 7008.39 350.814   2
 -18  -4   0 7136.99 376.155   2
 -18   4  -1 2271.44 204.530   2
 -18  -4  -1 2445.20 221.621   2
 -18   4  -2 37.6009 64.3939   2
 -18  -4  -2 74.7596 73.8070   2
 -18   4  -3 61.1695 65.3316   2
 -18   4  -4 1799.84 193.443   2
 -18   4  -5 546.195 116.236   2
  18  -6 -17 718.444 150.005   1
  18  -6 -16 280.666 176.071   1
  18  -6 -15 767.334 145.852   1
  18  -6 -14 175.388 100.563   1
 -18  -6  14-71.8421 67.5307   2
 -18  -6  13 240.380 82.2696   2
 -18  -6  12-16.8963 59.5296   2
 -18  -6  11 664.939 123.766   2
 -18   6  10 4.95405 52.1281   2
 -18  -6  10 194.250 80.6633   2
 -18   6   9 7297.71 359.904   2
 -18  -6   9 7408.12 363.021   2
 -18   6   8 130.732 57.4331   2
 -18  -6   8 148.532 73.9128   2
 -18   6   7 366.334 94.2189   2
 -18  -6   7 222.623 81.0895   2
 -18   6   6 71.8886 72.3980   2
 -18  -6   6 28.6010 68.3075   2
 -18   6   5 651.923 107.986   2
 -18  -6   5 858.696 134.550   2
 -18   6   4 360.793 92.3269   2
 -18  -6   4 353.893 97.8194   2
 -18   6   3 4511.38 277.310   2
 -18  -6   3 4923.04 303.572   2
 -18   6   2 599.735 112.390   2
 -18  -6   2 720.716 129.433   2
 -18   6   1 462.209 103.924   2
 -18  -6   1 536.111 121.564   2
 -18   6   0 727.635 122.189   2
 -18  -6   0 900.489 147.653   2
 -18   6  -1 1075.67 141.347   2
 -18   6  -2 323.914 87.6456   2
 -18   6  -3 4677.01 293.311   2
 -18   6  -4 170.565 89.1403   2
 -18   6  -5 464.231 105.125   2
  18  -8 -15 212.637 104.183   1
 -18  -8  14 4132.38 296.039   2
  18  -8 -14 4214.17 326.861   1
 -18  -8  13 103.191 74.2104   2
  18  -8 -13-174.971 101.707   1
 -18  -8  12 4509.84 300.664   2
 -18  -8  11 180.767 91.3767   2
 -18  -8  10 235.546 88.6598   2
 -18  -8   9 244.603 91.1350   2
 -18   8   8 756.693 118.581   2
 -18  -8   8 1080.36 152.953   2
 -18   8   7 619.868 112.414   2
 -18  -8   7 520.297 115.319   2
 -18   8   6 5963.82 314.479   2
 -18  -8   6 6049.11 333.547   2
 -18   8   5 72.6637 55.9759   2
 -18  -8   5-12.5336 57.4951   2
 -18   8   4 446.464 94.6851   2
 -18  -8   4 240.420 85.7385   2
 -18   8   3 260.477 80.3776   2
 -18  -8   3 287.848 81.8666   2
 -18   8   2 611.237 104.975   2
 -18  -8   2 786.413 133.635   2
 -18   8   1 149.432 60.0018   2
 -18  -8   1 165.396 88.0970   2
 -18   8   0 6221.34 316.417   2
 -18   8  -1 36.0986 64.2970   2
 -18   8  -2 669.347 113.794   2
 -18 -10  13 152.314 86.8450   2
 -18 -10  12 91.1844 72.3919   2
 -18 -10  11 2567.09 233.784   2
 -18 -10  10-75.8212 74.0857   2
 -18 -10   9 2096.28 211.099   2
 -18 -10   8 9.11574 70.8865   2
 -18 -10   7 26.3153 64.1462   2
 -18  10   6 919.039 134.925   2
 -18 -10   6 986.679 144.141   2
 -18  10   5 1375.74 151.489   2
 -18 -10   5 1658.00 189.033   2
 -18  10   4 137.664 70.6989   2
 -18 -10   4 7.69907 57.2739   2
 -18  10   3 2106.52 182.836   2
 -18 -10   3 2468.74 231.160   2
 -18  10   2 29.4892 48.2551   2
 -18  10   1 1292.21 144.908   2
 -18 -12  10 291.565 98.1608   2
 -18 -12   9 101.581 84.0956   2
 -18 -12   8 2373.18 223.707   2
 -18 -12   7 93.7354 66.2938   2
 -18 -12   6 3024.70 258.238   2
  19  -1 -17 283.712 90.9829   1
  19  -1 -16 557.919 109.362   1
  19   1 -15 216.427 72.7346   1
  19  -1 -15 271.036 86.6061   1
  19  -1 -14 250.034 84.4939   1
  19   1 -14 192.826 75.0901   1
 -19   1  13 1582.72 186.015   2
 -19  -1  13 1768.96 191.601   2
 -19   1  12 1671.33 181.994   2
 -19  -1  12 1687.81 184.368   2
 -19   1  11 345.919 92.1797   2
 -19  -1  11 454.450 109.015   2
 -19   1  10 1387.02 162.154   2
 -19  -1  10 1406.93 163.742   2
 -19   1   9 617.048 117.881   2
 -19  -1   9 656.467 123.954   2
 -19   1   8 1009.79 147.636   2
 -19  -1   8 827.850 129.456   2
 -19   1   7 1950.75 192.935   2
 -19  -1   7 2106.79 203.029   2
 -19   1   6 238.120 74.9164   2
 -19  -1   6 226.808 76.6423   2
 -19   1   5 1469.66 172.793   2
 -19  -1   5 1711.24 184.452   2
 -19   1   4 3003.69 237.574   2
 -19  -1   4 2981.97 238.319   2
 -19   1   3 121.846 64.1517   2
 -19  -1   3 58.8114 55.9605   2
 -19   1   2 266.494 90.2551   2
 -19  -1   2 292.184 90.3731   2
 -19   1   1 2815.51 235.644   2
 -19  -1   1 2825.33 244.394   2
 -19  -1   0 637.481 187.186   2
 -19   1   0 20.4619 62.3514   2
 -19   1  -1 1923.11 205.867   2
 -19  -1  -1 2025.20 211.772   2
 -19   1  -2 1987.74 213.404   2
  19  -3 -18 328.887 105.592   1
  19  -3 -17 43.1029 63.4592   1
  19  -3 -16 1361.26 181.365   1
  19  -3 -15 149.400 83.9906   1
  19  -3 -14 115.803 71.7103   1
 -19  -3  13 1906.71 201.438   2
 -19   3  12 303.312 87.1871   2
 -19  -3  12 353.923 94.4541   2
 -19   3  11 242.146 72.0800   2
 -19  -3  11 320.601 93.0591   2
 -19   3  10 481.266 101.478   2
 -19  -3  10 452.422 103.818   2
 -19   3   9 958.304 137.976   2
 -19  -3   9 975.088 145.343   2
 -19   3   8 588.482 117.712   2
 -19  -3   8 549.977 106.387   2
 -19   3   7 3254.50 243.973   2
 -19  -3   7 3083.34 245.140   2
 -19   3   6 368.689 84.9505   2
 -19  -3   6 550.432 108.586   2
 -19   3   5 2666.94 218.673   2
 -19  -3   5 2462.01 221.402   2
 -19   3   4 2827.82 232.168   2
 -19  -3   4 3067.01 249.683   2
 -19   3   3 235.763 74.9009   2
 -19  -3   3 238.579 84.1119   2
 -19   3   2 1683.71 182.004   2
 -19  -3   2 2102.34 212.723   2
 -19   3   1 4224.81 282.328   2
 -19  -3   1 4421.79 297.736   2
 -19   3   0 98.4519 68.8132   2
 -19  -3   0 159.182 89.8203   2
 -19   3  -1 564.969 146.829   2
 -19   3  -2 2582.44 236.394   2
 -19   3  -3 145.494 73.1382   2
  19  -5 -17 172.292 96.8143   1
  19  -5 -16 345.105 114.026   1
  19  -5 -15 677.154 147.260   1
  19  -5 -14 203.200 99.1373   1
 -19  -5  13 526.759 120.071   2
 -19  -5  12 87.9376 63.6109   2
 -19   5  11 902.147 136.886   2
 -19  -5  11 1069.42 157.653   2
 -19   5  10 2712.57 229.264   2
 -19  -5  10 2543.92 225.627   2
 -19   5   9 707.765 126.847   2
 -19  -5   9 567.191 115.279   2
 -19   5   8-41.2220 62.6047   2
 -19  -5   8 151.692 71.0042   2
 -19   5   7 1726.14 184.874   2
 -19  -5   7 1939.47 196.744   2
 -19   5   6 179.765 68.0944   2
 -19  -5   6 237.831 91.0161   2
 -19   5   5 1046.33 142.357   2
 -19  -5   5 1130.73 153.727   2
 -19   5   4 949.287 134.527   2
 -19  -5   4 1013.71 151.018   2
 -19   5   3 309.374 94.7341   2
 -19  -5   3 119.868 71.7659   2
 -19   5   2 1263.98 156.376   2
 -19  -5   2 1316.35 171.917   2
 -19   5   1 3163.13 244.230   2
 -19   5   0 117.817 69.5293   2
 -19   5  -1 336.323 93.2536   2
 -19   5  -2 362.749 98.9418   2
 -19   5  -3 29.4233 62.1782   2
  19  -7 -14 543.010 134.110   1
 -19  -7  12 114.806 76.2237   2
 -19  -7  11 75.3570 65.8784   2
 -19  -7  10 1947.09 199.342   2
 -19   7   9-36.3628 64.1295   2
 -19  -7   9 109.217 70.6889   2
 -19   7   8 936.955 138.501   2
 -19  -7   8 1314.77 165.199   2
 -19   7   7 2628.72 220.989   2
 -19  -7   7 2893.83 241.664   2
 -19   7   6 159.315 80.0893   2
 -19  -7   6-192.691 86.1415   2
 -19   7   5 484.199 108.995   2
 -19  -7   5 391.704 102.774   2
 -19   7   4 2354.52 206.461   2
 -19  -7   4 2424.15 229.699   2
 -19   7   3 188.315 76.2077   2
 -19  -7   3 186.813 84.7818   2
 -19   7   2 400.504 108.036   2
 -19   7   1 2289.68 207.936   2
 -19   7   0 432.107 97.9917   2
 -19   7  -1 383.741 92.6238   2
 -19   7  -2 2357.30 212.092   2
 -19  -9   9 46.6212 68.0390   2
 -19   9   8 95.5641 68.7548   2
 -19  -9   8 221.468 84.5802   2
 -19   9   7 3278.74 249.182   2
 -19  -9   7 3349.36 266.582   2
 -19   9   6 152.047 72.3423   2
 -19   9   5 1230.35 153.094   2
 -19   9   4 241.620 82.7908   2
 -19   9   3 424.018 95.2055   2
 -19   9   2 1215.78 146.958   2
 -19   9   1 1504.17 162.402   2
 -19  11   6 204.860 71.0145   2
 -19  11   5 323.644 81.4902   2
  20   0 -15-62.1938 65.5505   1
  20   0 -14 1817.69 183.612   1
 -20   0  12 343.885 97.5901   2
 -20   0  11 160.435 87.6873   2
 -20   0  10 448.049 115.320   2
 -20   0   9 41.1617 75.7165   2
 -20   0   8 1681.48 187.806   2
 -20   0   7-20.9674 55.2985   2
 -20   0   6 5426.00 329.991   2
 -20   0   5-0.63354 63.6484   2
 -20   0   4 589.523 124.131   2
 -20   0   3 64.9560 79.1192   2
 -20   0   2 2310.01 221.376   2
 -20   0   1 17.5309 62.0608   2
  20  -2 -17 1046.75 160.233   1
  20  -2 -16-4.34696 58.5686   1
  20  -2 -15 497.266 117.166   1
  20  -2 -14 195.872 86.5546   1
 -20   2  12 6.83238 59.4732   2
 -20   2  11 820.281 133.821   2
 -20  -2  11 816.072 139.531   2
 -20   2  10-5.85321 72.8012   2
 -20  -2  10 26.5590 63.1479   2
 -20   2   9 937.064 146.629   2
 -20  -2   9 861.071 139.988   2
 -20   2   8 1.06594 61.2203   2
 -20  -2   8 193.337 87.8736   2
 -20   2   7 483.948 112.633   2
 -20  -2   7 448.197 103.504   2
 -20   2   6 79.7706 76.3248   2
 -20  -2   6 96.0898 70.0174   2
 -20   2   5 4215.72 293.308   2
 -20  -2   5 4121.65 291.979   2
 -20   2   4 361.062 99.0838   2
 -20  -2   4 262.335 84.3579   2
 -20   2   3 1755.74 190.253   2
 -20  -2   3 1809.31 202.097   2
 -20   2   2 101.405 80.3161   2
 -20   2   1 193.076 70.7825   2
 -20   2   0 17.0225 61.3059   2
  20  -4 -17 244.157 107.933   1
  20  -4 -16 478.065 126.411   1
  20  -4 -15 61.5477 85.3602   1
  20  -4 -14 774.377 135.859   1
 -20   4  11-13.0669 59.8912   2
 -20   4  10 122.960 70.1747   2
 -20  -4  10 15.4871 58.8991   2
 -20   4   9 2.53802 62.0983   2
 -20  -4   9 135.166 89.4529   2
 -20   4   8 2213.58 209.021   2
 -20  -4   8 2393.33 221.976   2
 -20   4   7 61.0768 66.7625   2
 -20  -4   7 87.6997 66.5550   2
 -20   4   6 2888.17 240.763   2
 -20  -4   6 3033.19 250.065   2
 -20   4   5 126.121 70.8176   2
 -20  -4   5-1.60923 58.4074   2
 -20   4   4 1068.14 156.138   2
 -20   4   3 147.765 70.5985   2
 -20   4   2 5531.56 356.672   2
 -20   4   1 342.416 97.3656   2
 -20   4   0 2058.98 210.406   2
 -20   4  -1 511.082 116.040   2
 -20   6  10-30.1614 66.9526   2
 -20   6   9 4174.17 292.295   2
 -20   6   8-33.6676 61.7961   2
 -20   6   7 163.351 74.2736   2
 -20   6   6 239.971 81.8322   2
 -20   6   5 488.358 108.138   2
 -20   6   4 490.247 99.2592   2
 -20   6   3 4481.08 291.850   2
 -20   6   2 192.979 75.1211   2
 -20   6   1 28.3430 65.5537   2
 -20   6   0 62.3201 68.7089   2
 -20   6  -1 406.229 107.714   2
 -20   8   9 336.303 96.2504   2
 -20   8   8 1303.03 164.481   2
 -20   8   7 42.2144 79.4947   2
 -20   8   6 3552.44 267.947   2
 -20   8   5 129.723 64.6385   2
 -20   8   4 631.532 112.284   2
 -20   8   3-51.6139 68.3193   2
 -20   8   2 1784.08 181.769   2
 -20   8   1 63.0842 67.4422   2
 -20  10   7 615.948 117.390   2
 -20  10   6 43.9971 57.5647   2
 -20  10   5 1769.49 193.424   2
  21  -1 -15 209.799 84.8595   1
  21  -3 -16 145.194 89.7338   1
  21  -3 -15-151.890 79.5000   1
 -21   3   9-76.6985 64.9937   2
 -21   3   8 999.542 152.356   2
 -21   3   7 1083.65 157.812   2
 -21   3   6 709.059 138.623   2
 -21   3   5 693.049 131.375   2
 -21   3   4 364.741 107.498   2
 -21   5   9 1104.79 165.554   2
 -21   5   8-39.1908 77.4858   2
 -21   5   7 1270.33 166.435   2
 -21   5   6 84.9871 61.2587   2
 -21   5   5 1786.69 198.557   2
 -21   5   4 1568.61 188.636   2
 -21   5   3 182.480 75.8094   2
 -21   5   2 549.728 120.386   2
 -21   7   9 137.457 82.4074   2
 -21   7   8 871.654 143.121   2
 -21   7   7 1493.36 184.858   2
 -21   7   6-5.37281 65.3356   2
 -21   7   5 340.679 106.605   2
 -21   7   4 3549.83 270.779   2
 -21   7   3 292.098 101.684   2
 -21   7   2 304.075 89.2557   2
 -21   9   8 84.6553 70.3124   2
 -21   9   7 954.470 146.386   2
 -21   9   6 176.399 84.7745   2
 -21   9   5 436.858 113.378   2
   0   0   0    0.00    0.00   0
 
TITL dsmsalnh2 in C2/c
REM C2/c (#15 in standard setting)
CELL 0.71073  17.029780  18.890362  16.761101  90.0000 112.4470  90.0000
ZERR    5.00   0.000542   0.000479   0.000547   0.0000   0.0039   0.0000
LATT  7
SYMM -x, y,-z+1/2
SFAC C H Li N O Zn
UNIT 100.00 100.00 10.00 50.00 100.00 10.00
TREF
HKLF 4
END
;
_shelx_hkl_checksum              18943
_shelx_fab_file
;
    0    0    4     42.41      0.00
    0    0    6    -12.25      0.00
    0    0    8     -1.75      0.00
    0    0   10     -2.61      0.00
    0    0   12      1.50      0.00
    0    0   14      1.60      0.00
    0    0   16      2.26      0.00
    0    0   18     -0.12      0.00
    0    2    2    -38.86      0.00
    0    2    3     49.39      0.00
    0    2    4    -13.37      0.00
    0    2    5      7.00      0.00
    0    2    6     -7.81      0.00
    0    2    7     10.01      0.00
    0    2    8     -0.70      0.00
    0    2    9     -2.64      0.00
    0    2   10     -1.77      0.00
    0    2   11      0.07      0.00
    0    2   12     -1.17      0.00
    0    2   13     -2.59      0.00
    0    2   14     -1.23      0.00
    0    2   15     -1.14      0.00
    0    2   16     -0.25      0.00
    0    2   17     -1.06      0.00
    0    2   18      0.44      0.00
    0    2   19      0.72      0.00
    0    4    0    -28.47      0.00
    0    4    1      6.18      0.00
    0    4    2     16.71      0.00
    0    4    3      4.55      0.00
    0    4    4      4.35      0.00
    0    4    5     -5.74      0.00
    0    4    6     13.16      0.00
    0    4    7     -0.67      0.00
    0    4    8      4.88      0.00
    0    4    9     -3.41      0.00
    0    4   10      5.19      0.00
    0    4   11     -1.96      0.00
    0    4   12      0.14      0.00
    0    4   13      0.43      0.00
    0    4   14      0.89      0.00
    0    4   15     -0.14      0.00
    0    4   16     -1.88      0.00
    0    4   17      0.29      0.00
    0    4   18     -1.07      0.00
    0    4   19      0.16      0.00
    0    4   20     -0.16      0.00
    0    6    0      3.08      0.00
    0    6    1    -12.87      0.00
    0    6    2      5.34      0.00
    0    6    3     -8.05      0.00
    0    6    4     -4.82      0.00
    0    6    5     -9.72      0.00
    0    6    6      0.35      0.00
    0    6    7     -0.19      0.00
    0    6    8     -0.32      0.00
    0    6    9      4.10      0.00
    0    6   10     -1.78      0.00
    0    6   11      0.38      0.00
    0    6   12      0.29      0.00
    0    6   13      0.85      0.00
    0    6   14     -0.39      0.00
    0    6   15      0.35      0.00
    0    6   16      1.28      0.00
    0    6   17      0.09      0.00
    0    6   18     -0.67      0.00
    0    6   19      0.44      0.00
    0    6   20      0.75      0.00
    0    8    0     -8.64      0.00
    0    8    1      2.94      0.00
    0    8    2      8.03      0.00
    0    8    3     -2.32      0.00
    0    8    4     -3.65      0.00
    0    8    5     -0.02      0.00
    0    8    6      0.43      0.00
    0    8    7      1.64      0.00
    0    8    8     -0.48      0.00
    0    8    9     -1.11      0.00
    0    8   10     -0.74      0.00
    0    8   11      1.39      0.00
    0    8   12     -0.57      0.00
    0    8   13     -0.09      0.00
    0    8   14     -0.46      0.00
    0    8   15      0.76      0.00
    0    8   16      0.14      0.00
    0    8   17     -1.02      0.00
    0    8   18      0.73      0.00
    0   10    0      5.42      0.00
    0   10    1      5.87      0.00
    0   10    2      5.68      0.00
    0   10    3      1.27      0.00
    0   10    4     -3.36      0.00
    0   10    5      1.14      0.00
    0   10    6      1.11      0.00
    0   10    7     -1.41      0.00
    0   10    8     -4.80      0.00
    0   10    9     -0.56      0.00
    0   10   10      1.14      0.00
    0   10   11      0.64      0.00
    0   10   12     -0.20      0.00
    0   10   13     -0.32      0.00
    0   10   14      0.61      0.00
    0   10   15      0.52      0.00
    0   10   16      0.63      0.00
    0   12    0     -0.95      0.00
    0   12    1      5.55      0.00
    0   12    2     -1.97      0.00
    0   12    3     -5.42      0.00
    0   12    4     -0.06      0.00
    0   12    5      7.17      0.00
    0   12    6     -1.03      0.00
    0   12    7     -4.75      0.00
    0   12    8     -1.45      0.00
    0   12    9      2.20      0.00
    0   12   10     -0.53      0.00
    0   12   11     -2.50      0.00
    0   12   12     -0.16      0.00
    0   12   13      0.60      0.00
    0   12   14     -0.09      0.00
    0   12   15     -0.32      0.00
    0   12   16     -0.67      0.00
    0   14    0      5.27      0.00
    0   14    1      0.97      0.00
    0   14    2     -7.19      0.00
    0   14    3      3.72      0.00
    0   14    4      6.83      0.00
    0   14    5      2.18      0.00
    0   14    6     -3.52      0.00
    0   14    7      1.88      0.00
    0   14    8      5.74      0.00
    0   14    9      0.12      0.00
    0   14   10     -2.02      0.00
    0   14   11      0.43      0.00
    0   14   12      1.50      0.00
    0   14   13     -0.35      0.00
    0   14   14      0.14      0.00
    0   14   15      1.23      0.00
    0   16    0     -2.53      0.00
    0   16    1     -5.51      0.00
    0   16    2     -1.58      0.00
    0   16    3      1.77      0.00
    0   16    4     -1.67      0.00
    0   16    5     -5.77      0.00
    0   16    6      1.49      0.00
    0   16    7      2.20      0.00
    0   16    8      1.29      0.00
    0   16    9     -1.66      0.00
    0   16   10      1.23      0.00
    0   16   11      0.05      0.00
    0   16   12     -0.51      0.00
    0   16   13     -1.67      0.00
    0   16   14      1.29      0.00
    0   18    0     -1.18      0.00
    0   18    1     -0.32      0.00
    0   18    2      2.79      0.00
    0   18    3     -1.91      0.00
    0   18    4     -0.93      0.00
    0   18    5      0.08      0.00
    0   18    6      0.32      0.00
    0   18    7      0.22      0.00
    0   18    8     -1.31      0.00
    0   18    9     -0.21      0.00
    0   18   10     -1.11      0.00
    0   18   11      0.71      0.00
    0   18   12     -0.53      0.00
    0   18   13      1.81      0.00
    0   20    0      1.16      0.00
    0   20    1      0.20      0.00
    0   20    2     -0.26      0.00
    0   20    3     -0.36      0.00
    0   20    4      0.06      0.00
    0   20    5     -0.80      0.00
    0   20    6     -0.04      0.00
    0   20    7      0.36      0.00
    0   20    8     -0.15      0.00
    0   20    9     -0.69      0.00
    0   20   10      0.20      0.00
    0   20   11      0.16      0.00
    0   20   12      0.49      0.00
    0   22    0     -0.03      0.00
    0   22    1      0.12      0.00
    0   22    2      1.28      0.00
    0   22    3      0.57      0.00
    0   22    4      0.67      0.00
    0   22    5     -0.58      0.00
    0   22    6      1.03      0.00
    0   22    7      0.44      0.00
    0   22    8     -1.40      0.00
    0   22    9     -0.06      0.00
    0   24    5      1.44      0.00
    0   24    6      0.56      0.00
    0   24    7     -0.43      0.00
   -1    1   19     -0.49      0.00
   -1    1   18      0.76      0.00
   -1    1   17      0.95      0.00
   -1    1   16      0.85      0.00
   -1    1   15      1.71      0.00
   -1    1   14      1.74      0.00
   -1    1   13      1.02      0.00
   -1    1   12      0.09      0.00
   -1    1   11     -1.91      0.00
   -1    1   10      2.29      0.00
   -1    1    9     -1.12      0.00
   -1    1    8     -5.83      0.00
   -1    1    7     -6.56      0.00
   -1    1    6     -2.49      0.00
   -1    1    5     23.87      0.00
   -1    1    4    -35.29      0.00
   -1    1    3     14.62      0.00
    1    1    2     46.26      0.00
    1    1    3    -41.07      0.00
    1    1    4      0.68      0.00
    1    1    5      3.92      0.00
    1    1    6     10.95      0.00
    1    1    7      0.95      0.00
    1    1    8     -3.13      0.00
    1    1    9      0.95      0.00
    1    1   10     -0.41      0.00
    1    1   11     -1.87      0.00
    1    1   12     -1.81      0.00
    1    1   13     -1.28      0.00
    1    1   14     -0.98      0.00
    1    1   15     -2.27      0.00
    1    1   16     -0.85      0.00
    1    1   17     -0.25      0.00
    1    1   18      0.43      0.00
    1    1   19      1.41      0.00
   -1    3   20      0.14      0.00
   -1    3   19      0.97      0.00
   -1    3   18     -0.55      0.00
   -1    3   17      1.83      0.00
   -1    3   16     -0.85      0.00
   -1    3   15     -0.86      0.00
   -1    3   14     -1.73      0.00
   -1    3   13     -0.30      0.00
   -1    3   12      1.15      0.00
   -1    3   11     -3.46      0.00
   -1    3   10     -0.40      0.00
   -1    3    9     -2.46      0.00
   -1    3    8      4.95      0.00
   -1    3    7    -12.79      0.00
   -1    3    6      6.71      0.00
   -1    3    5     -6.23      0.00
   -1    3    4     23.26      0.00
   -1    3    3    -31.88      0.00
   -1    3    2    -20.08      0.00
   -1    3    1      9.07      0.00
    1    3    0     44.26      0.00
    1    3    1     42.22      0.00
    1    3    2    -22.69      0.00
    1    3    3     -2.21      0.00
    1    3    4    -11.77      0.00
    1    3    5     18.80      0.00
    1    3    6     -6.22      0.00
    1    3    7      3.94      0.00
    1    3    8     -1.13      0.00
    1    3    9      5.97      0.00
    1    3   10     -1.17      0.00
    1    3   11      0.95      0.00
    1    3   12      1.88      0.00
    1    3   13      1.23      0.00
    1    3   14      0.50      0.00
    1    3   15     -0.33      0.00
    1    3   16      1.16      0.00
    1    3   17     -0.73      0.00
    1    3   18     -0.23      0.00
    1    3   19     -0.68      0.00
   -1    5   20      0.33      0.00
   -1    5   19     -0.43      0.00
   -1    5   18      0.67      0.00
   -1    5   17     -1.88      0.00
   -1    5   16     -0.62      0.00
   -1    5   15      0.43      0.00
   -1    5   14     -0.77      0.00
   -1    5   13     -0.10      0.00
   -1    5   12     -0.96      0.00
   -1    5   11      3.62      0.00
   -1    5   10     -3.93      0.00
   -1    5    9      1.87      0.00
   -1    5    8      0.41      0.00
   -1    5    7      6.23      0.00
   -1    5    6      4.40      0.00
   -1    5    5      7.33      0.00
   -1    5    4      8.49      0.00
   -1    5    3     -3.25      0.00
   -1    5    2      0.81      0.00
   -1    5    1    -13.81      0.00
    1    5    0     -8.00      0.00
    1    5    1      4.13      0.00
    1    5    2    -19.25      0.00
    1    5    3     -6.28      0.00
    1    5    4     -2.82      0.00
    1    5    5     -3.39      0.00
    1    5    6     -2.45      0.00
    1    5    7     -5.66      0.00
    1    5    8      5.32      0.00
    1    5    9     -4.17      0.00
    1    5   10      2.13      0.00
    1    5   11      0.05      0.00
    1    5   12      0.73      0.00
    1    5   13     -0.83      0.00
    1    5   14      0.56      0.00
    1    5   15      1.62      0.00
    1    5   16      0.28      0.00
    1    5   17      0.25      0.00
    1    5   18      0.24      0.00
    1    5   19     -0.03      0.00
    1    5   20     -0.94      0.00
   -1    7   20      0.28      0.00
   -1    7   19     -1.42      0.00
   -1    7   18      0.25      0.00
   -1    7   17      0.74      0.00
   -1    7   16     -0.60      0.00
   -1    7   15     -0.39      0.00
   -1    7   14      0.55      0.00
   -1    7   13      0.61      0.00
   -1    7   12     -0.94      0.00
   -1    7   11      0.15      0.00
   -1    7   10      1.83      0.00
   -1    7    9      0.94      0.00
   -1    7    8     -1.31      0.00
   -1    7    7      0.39      0.00
   -1    7    6     -4.71      0.00
   -1    7    5      2.53      0.00
   -1    7    4      0.40      0.00
   -1    7    3     -3.64      0.00
   -1    7    2    -10.57      0.00
   -1    7    1      3.62      0.00
    1    7    0     14.35      0.00
    1    7    1      5.02      0.00
    1    7    2      0.76      0.00
    1    7    3      0.05      0.00
    1    7    4      9.04      0.00
    1    7    5     -2.28      0.00
    1    7    6     -0.91      0.00
    1    7    7     -2.60      0.00
    1    7    8     -2.39      0.00
    1    7    9      0.33      0.00
    1    7   10      1.11      0.00
    1    7   11     -0.30      0.00
    1    7   12     -0.45      0.00
    1    7   13     -0.02      0.00
    1    7   14      0.20      0.00
    1    7   15     -0.45      0.00
    1    7   16     -0.88      0.00
    1    7   17      0.68      0.00
    1    7   18     -0.23      0.00
    1    7   19     -1.26      0.00
   -1    9   18     -1.76      0.00
   -1    9   17      0.08      0.00
   -1    9   16      0.67      0.00
   -1    9   15     -0.70      0.00
   -1    9   14      0.28      0.00
   -1    9   13     -0.82      0.00
   -1    9   12      0.55      0.00
   -1    9   11     -1.14      0.00
   -1    9   10      0.42      0.00
   -1    9    9      3.06      0.00
   -1    9    8      2.69      0.00
   -1    9    7      0.30      0.00
   -1    9    6     -3.75      0.00
   -1    9    5     -0.22      0.00
   -1    9    4     -1.97      0.00
   -1    9    3      0.84      0.00
   -1    9    2     -6.80      0.00
   -1    9    1     -8.58      0.00
    1    9    0      4.67      0.00
    1    9    1     -3.81      0.00
    1    9    2      1.36      0.00
    1    9    3      1.36      0.00
    1    9    4      4.15      0.00
    1    9    5     -0.48      0.00
    1    9    6     -2.42      0.00
    1    9    7     -1.94      0.00
    1    9    8      0.98      0.00
    1    9    9      0.90      0.00
    1    9   10     -1.20      0.00
    1    9   11     -0.62      0.00
    1    9   12      0.17      0.00
    1    9   13      1.06      0.00
    1    9   14     -0.09      0.00
    1    9   15      0.05      0.00
    1    9   16      0.25      0.00
    1    9   17      0.92      0.00
   -1   11   16      0.90      0.00
   -1   11   15      0.53      0.00
   -1   11   14     -0.24      0.00
   -1   11   13      0.59      0.00
   -1   11   12      1.43      0.00
   -1   11   11      1.14      0.00
   -1   11   10     -0.89      0.00
   -1   11    9     -2.47      0.00
   -1   11    8      2.49      0.00
   -1   11    7      2.17      0.00
   -1   11    6     -4.17      0.00
   -1   11    5     -3.81      0.00
   -1   11    4      3.11      0.00
   -1   11    3      6.82      0.00
   -1   11    2     -0.22      0.00
   -1   11    1      1.46      0.00
    1   11    0      0.59      0.00
    1   11    1     -7.60      0.00
    1   11    2     -2.53      0.00
    1   11    3      3.63      0.00
    1   11    4      4.23      0.00
    1   11    5     -2.50      0.00
    1   11    6     -1.55      0.00
    1   11    7      3.22      0.00
    1   11    8      1.93      0.00
    1   11    9     -1.67      0.00
    1   11   10     -2.35      0.00
    1   11   11      1.09      0.00
    1   11   12      0.88      0.00
    1   11   13     -0.22      0.00
    1   11   14     -0.56      0.00
    1   11   15     -1.57      0.00
    1   11   16     -1.30      0.00
   -1   13   16     -0.97      0.00
   -1   13   15     -1.01      0.00
   -1   13   14      0.01      0.00
   -1   13   13     -1.02      0.00
   -1   13   12     -1.23      0.00
   -1   13   11      0.71      0.00
   -1   13   10      1.23      0.00
   -1   13    9     -4.65      0.00
   -1   13    8     -5.02      0.00
   -1   13    7      0.80      0.00
   -1   13    6      3.28      0.00
   -1   13    5     -5.49      0.00
   -1   13    4     -5.67      0.00
   -1   13    3      4.37      0.00
   -1   13    2      4.56      0.00
   -1   13    1     -2.52      0.00
    1   13    0     -4.87      0.00
    1   13    1     -5.61      0.00
    1   13    2      5.85      0.00
    1   13    3      4.26      0.00
    1   13    4     -4.45      0.00
    1   13    5     -1.90      0.00
    1   13    6      4.55      0.00
    1   13    7      5.85      0.00
    1   13    8     -1.99      0.00
    1   13    9     -0.45      0.00
    1   13   10      1.91      0.00
    1   13   11      1.32      0.00
    1   13   12     -1.48      0.00
    1   13   13     -0.48      0.00
    1   13   14      0.28      0.00
    1   13   15     -0.67      0.00
   -1   15   15     -0.44      0.00
   -1   15   14      0.11      0.00
   -1   15   13      1.03      0.00
   -1   15   12     -0.27      0.00
   -1   15   11     -2.02      0.00
   -1   15   10      1.23      0.00
   -1   15    9      2.35      0.00
   -1   15    8     -1.04      0.00
   -1   15    7     -2.52      0.00
   -1   15    6      6.28      0.00
   -1   15    5      5.33      0.00
   -1   15    4      0.91      0.00
   -1   15    3     -3.31      0.00
   -1   15    2      5.28      0.00
   -1   15    1      4.77      0.00
    1   15    0     -5.11      0.00
    1   15    1      4.03      0.00
    1   15    2      0.47      0.00
    1   15    3     -4.59      0.00
    1   15    4     -5.81      0.00
    1   15    5      4.02      0.00
    1   15    6      0.76      0.00
    1   15    7     -2.73      0.00
    1   15    8     -2.02      0.00
    1   15    9      1.48      0.00
    1   15   10      0.54      0.00
    1   15   11     -1.46      0.00
    1   15   12     -0.78      0.00
    1   15   13      1.01      0.00
    1   15   14     -1.34      0.00
   -1   17   14     -1.94      0.00
   -1   17   13      0.45      0.00
   -1   17   12     -0.27      0.00
   -1   17   11      1.01      0.00
   -1   17   10     -0.42      0.00
   -1   17    9      2.13      0.00
   -1   17    8      0.98      0.00
   -1   17    7     -0.29      0.00
   -1   17    6     -2.61      0.00
   -1   17    5      0.87      0.00
   -1   17    4      2.09      0.00
   -1   17    3     -3.31      0.00
   -1   17    2     -2.41      0.00
   -1   17    1     -0.25      0.00
    1   17    0      2.27      0.00
    1   17    1      4.15      0.00
    1   17    2     -2.87      0.00
    1   17    3     -0.35      0.00
    1   17    4      2.12      0.00
    1   17    5     -0.23      0.00
    1   17    6     -1.39      0.00
    1   17    7     -2.80      0.00
    1   17    8      0.83      0.00
    1   17    9     -0.79      0.00
    1   17   10      1.16      0.00
    1   17   11      0.19      0.00
    1   17   12      2.21      0.00
    1   17   13     -0.21      0.00
   -1   19   13     -1.05      0.00
   -1   19   12      0.46      0.00
   -1   19   11     -0.56      0.00
   -1   19   10      0.37      0.00
   -1   19    9      0.51      0.00
   -1   19    8      0.00      0.00
   -1   19    7     -0.47      0.00
   -1   19    6      0.25      0.00
   -1   19    5     -0.43      0.00
   -1   19    4     -0.77      0.00
   -1   19    3      0.97      0.00
   -1   19    2     -1.42      0.00
   -1   19    1     -1.45      0.00
    1   19    0      0.36      0.00
    1   19    1     -0.80      0.00
    1   19    2      0.79      0.00
    1   19    3      0.25      0.00
    1   19    4      0.70      0.00
    1   19    5     -0.16      0.00
    1   19    6     -0.32      0.00
    1   19    7      0.09      0.00
    1   19    8      0.05      0.00
    1   19    9      0.86      0.00
    1   19   10      0.09      0.00
    1   19   11     -0.06      0.00
    1   19   12     -0.83      0.00
   -1   21   12     -0.31      0.00
   -1   21   11     -0.28      0.00
   -1   21   10     -0.67      0.00
   -1   21    9      0.72      0.00
   -1   21    8      0.53      0.00
   -1   21    7     -1.24      0.00
   -1   21    6     -1.10      0.00
   -1   21    5      0.59      0.00
   -1   21    4     -0.34      0.00
   -1   21    3     -0.74      0.00
   -1   21    2      0.21      0.00
   -1   21    1      0.28      0.00
    1   21    0      0.83      0.00
    1   21    1      0.76      0.00
    1   21    2      1.14      0.00
    1   21    3      0.55      0.00
    1   21    4      0.51      0.00
    1   21    5      0.12      0.00
    1   21    6     -0.32      0.00
    1   21    7     -0.94      0.00
    1   21    8      0.11      0.00
    1   21    9     -0.08      0.00
    1   21   10     -0.09      0.00
    1   21   11     -0.37      0.00
   -1   23    8      1.06      0.00
   -1   23    7      0.60      0.00
   -1   23    6     -2.40      0.00
   -1   23    5      0.59      0.00
   -1   23    4     -0.37      0.00
   -1   23    3      1.24      0.00
   -1   23    2     -0.48      0.00
    1   23    3     -1.70      0.00
    1   23    4      0.93      0.00
    1   23    5      0.08      0.00
    1   23    6     -0.45      0.00
    1   23    7      1.00      0.00
   -2    0   20      0.56      0.00
   -2    0   18     -1.19      0.00
   -2    0   16     -1.93      0.00
   -2    0   14     -0.73      0.00
   -2    0   12      3.55      0.00
   -2    0   10      1.33      0.00
   -2    0    8     11.02      0.00
   -2    0    6    -19.38      0.00
   -2    0    4     -2.81      0.00
    2    0    2    -64.58      0.00
    2    0    4     10.79      0.00
    2    0    6      0.31      0.00
    2    0    8      3.70      0.00
    2    0   10     -2.43      0.00
    2    0   12     -1.19      0.00
    2    0   14     -2.63      0.00
    2    0   16     -1.05      0.00
    2    0   18      1.48      0.00
   -2    2   20     -0.67      0.00
   -2    2   19      0.71      0.00
   -2    2   18     -1.09      0.00
   -2    2   17      1.04      0.00
   -2    2   16      1.26      0.00
   -2    2   15      2.09      0.00
   -2    2   14      0.36      0.00
   -2    2   13     -0.60      0.00
   -2    2   12      0.23      0.00
   -2    2   11      2.46      0.00
   -2    2   10      0.32      0.00
   -2    2    9     -5.65      0.00
   -2    2    8      3.02      0.00
   -2    2    7     -3.30      0.00
   -2    2    6     10.54      0.00
   -2    2    5    -34.59      0.00
   -2    2    4     22.72      0.00
   -2    2    3     27.03      0.00
   -2    2    2     53.05      0.00
    2    2    0     36.92      0.00
    2    2    1    -51.67      0.00
    2    2    2     13.84      0.00
    2    2    3     -3.50      0.00
    2    2    4     13.93      0.00
    2    2    5    -15.87      0.00
    2    2    6      0.35      0.00
    2    2    7      2.17      0.00
    2    2    8      4.25      0.00
    2    2    9     -0.27      0.00
    2    2   10      1.60      0.00
    2    2   11      2.58      0.00
    2    2   12      1.24      0.00
    2    2   13      1.26      0.00
    2    2   14      1.73      0.00
    2    2   15      1.59      0.00
    2    2   16     -0.24      0.00
    2    2   17     -0.20      0.00
    2    2   18     -1.10      0.00
    2    2   19     -1.66      0.00
   -2    4   20      0.82      0.00
   -2    4   19     -0.92      0.00
   -2    4   18      2.31      0.00
   -2    4   17      0.16      0.00
   -2    4   16     -0.15      0.00
   -2    4   15     -0.04      0.00
   -2    4   14     -0.06      0.00
   -2    4   13      0.95      0.00
   -2    4   12     -4.15      0.00
   -2    4   11      1.64      0.00
   -2    4   10     -1.63      0.00
   -2    4    9      1.50      0.00
   -2    4    8    -10.54      0.00
   -2    4    7     -0.08      0.00
   -2    4    6     -7.41      0.00
   -2    4    5      3.74      0.00
   -2    4    4     -8.82      0.00
   -2    4    3      4.24      0.00
   -2    4    2     23.00      0.00
   -2    4    1     20.11      0.00
    2    4    0    -16.24      0.00
    2    4    1    -13.17      0.00
    2    4    2      6.08      0.00
    2    4    3      8.84      0.00
    2    4    4    -13.85      0.00
    2    4    5     -2.75      0.00
    2    4    6     -7.99      0.00
    2    4    7      5.91      0.00
    2    4    8     -6.96      0.00
    2    4    9      2.15      0.00
    2    4   10     -0.50      0.00
    2    4   11     -0.05      0.00
    2    4   12     -1.31      0.00
    2    4   13     -0.03      0.00
    2    4   14      0.67      0.00
    2    4   15     -0.81      0.00
    2    4   16      0.35      0.00
    2    4   17      0.35      0.00
    2    4   18      0.21      0.00
    2    4   19      0.23      0.00
   -2    6   21      0.50      0.00
   -2    6   20      0.68      0.00
   -2    6   19      0.81      0.00
   -2    6   18     -1.60      0.00
   -2    6   17     -0.28      0.00
   -2    6   16      0.96      0.00
   -2    6   15     -1.04      0.00
   -2    6   14     -0.21      0.00
   -2    6   13      0.39      0.00
   -2    6   12      1.55      0.00
   -2    6   11     -2.55      0.00
   -2    6   10     -0.41      0.00
   -2    6    9      1.31      0.00
   -2    6    8      1.26      0.00
   -2    6    7      5.34      0.00
   -2    6    6      0.83      0.00
   -2    6    5      3.01      0.00
   -2    6    4     -1.84      0.00
   -2    6    3      8.72      0.00
   -2    6    2     -2.15      0.00
   -2    6    1    -15.10      0.00
    2    6    0     -4.37      0.00
    2    6    1     12.32      0.00
    2    6    2      5.84      0.00
    2    6    3     11.67      0.00
    2    6    4     -4.95      0.00
    2    6    5      1.49      0.00
    2    6    6      2.17      0.00
    2    6    7     -2.73      0.00
    2    6    8      1.55      0.00
    2    6    9     -0.86      0.00
    2    6   10     -0.20      0.00
    2    6   11     -0.95      0.00
    2    6   12      0.49      0.00
    2    6   13     -0.47      0.00
    2    6   14     -0.89      0.00
    2    6   15     -1.02      0.00
    2    6   16      0.30      0.00
    2    6   17     -0.15      0.00
    2    6   18     -0.25      0.00
    2    6   19      0.50      0.00
   -2    8   20     -0.45      0.00
   -2    8   19      1.20      0.00
   -2    8   18      0.34      0.00
   -2    8   17     -1.62      0.00
   -2    8   16     -0.30      0.00
   -2    8   15      0.32      0.00
   -2    8   14      0.86      0.00
   -2    8   13     -1.03      0.00
   -2    8   12      1.18      0.00
   -2    8   11     -0.21      0.00
   -2    8   10     -0.86      0.00
   -2    8    9     -2.68      0.00
   -2    8    8      0.42      0.00
   -2    8    7      1.92      0.00
   -2    8    6      3.56      0.00
   -2    8    5      2.71      0.00
   -2    8    4     -4.53      0.00
   -2    8    3      0.54      0.00
   -2    8    2      6.32      0.00
   -2    8    1      4.50      0.00
    2    8    0    -11.30      0.00
    2    8    1      3.18      0.00
    2    8    2      2.92      0.00
    2    8    3     -1.65      0.00
    2    8    4     -0.03      0.00
    2    8    5      0.13      0.00
    2    8    6      3.38      0.00
    2    8    7      1.31      0.00
    2    8    8      0.06      0.00
    2    8    9     -2.66      0.00
    2    8   10     -0.54      0.00
    2    8   11      0.46      0.00
    2    8   12      0.69      0.00
    2    8   13     -0.36      0.00
    2    8   14      0.18      0.00
    2    8   15      0.25      0.00
    2    8   16      0.84      0.00
    2    8   17      0.08      0.00
   -2   10   17     -0.02      0.00
   -2   10   16     -1.17      0.00
   -2   10   15      0.23      0.00
   -2   10   14     -1.01      0.00
   -2   10   13     -0.41      0.00
   -2   10   12     -1.51      0.00
   -2   10   11      0.31      0.00
   -2   10   10      3.08      0.00
   -2   10    9      0.20      0.00
   -2   10    8     -1.07      0.00
   -2   10    7     -0.87      0.00
   -2   10    6      3.75      0.00
   -2   10    5     -1.85      0.00
   -2   10    4     -5.04      0.00
   -2   10    3     -5.88      0.00
   -2   10    2     -4.65      0.00
   -2   10    1      4.33      0.00
    2   10    0     -4.43      0.00
    2   10    1      0.07      0.00
    2   10    2      1.40      0.00
    2   10    3     -3.19      0.00
    2   10    4     -1.50      0.00
    2   10    5      1.72      0.00
    2   10    6      4.30      0.00
    2   10    7     -0.02      0.00
    2   10    8     -1.76      0.00
    2   10    9     -0.19      0.00
    2   10   10      1.94      0.00
    2   10   11      0.20      0.00
    2   10   12     -1.41      0.00
    2   10   13     -0.58      0.00
    2   10   14     -1.11      0.00
    2   10   15      0.27      0.00
   -2   12   16      1.43      0.00
   -2   12   15      0.29      0.00
   -2   12   14      1.41      0.00
   -2   12   13      0.98      0.00
   -2   12   12      0.87      0.00
   -2   12   11     -0.58      0.00
   -2   12   10      1.29      0.00
   -2   12    9      5.34      0.00
   -2   12    8      2.03      0.00
   -2   12    7     -5.00      0.00
   -2   12    6      0.56      0.00
   -2   12    5      4.47      0.00
   -2   12    4      1.24      0.00
   -2   12    3     -5.32      0.00
   -2   12    2     -0.51      0.00
   -2   12    1      4.90      0.00
    2   12    0      2.51      0.00
    2   12    1      4.94      0.00
    2   12    2     -0.58      0.00
    2   12    3     -7.11      0.00
    2   12    4      1.87      0.00
    2   12    5      4.20      0.00
    2   12    6      1.70      0.00
    2   12    7     -3.18      0.00
    2   12    8      1.80      0.00
    2   12    9      2.73      0.00
    2   12   10      0.21      0.00
    2   12   11     -2.31      0.00
    2   12   12     -0.55      0.00
    2   12   13      0.51      0.00
    2   12   14      0.68      0.00
    2   12   15      2.38      0.00
   -2   14   16     -0.83      0.00
   -2   14   15      0.24      0.00
   -2   14   14     -1.21      0.00
   -2   14   13     -0.06      0.00
   -2   14   12      1.08      0.00
   -2   14   11      0.13      0.00
   -2   14   10     -4.13      0.00
   -2   14    9     -2.61      0.00
   -2   14    8      1.80      0.00
   -2   14    7     -2.52      0.00
   -2   14    6     -7.58      0.00
   -2   14    5     -3.57      0.00
   -2   14    4      5.87      0.00
   -2   14    3     -0.30      0.00
   -2   14    2     -3.91      0.00
   -2   14    1     -0.22      0.00
    2   14    0      8.53      0.00
    2   14    1     -2.62      0.00
    2   14    2     -6.08      0.00
    2   14    3     -1.24      0.00
    2   14    4      4.30      0.00
    2   14    5     -2.95      0.00
    2   14    6     -6.29      0.00
    2   14    7     -0.14      0.00
    2   14    8      0.72      0.00
    2   14    9      0.26      0.00
    2   14   10     -2.27      0.00
    2   14   11      0.79      0.00
    2   14   12      1.50      0.00
    2   14   13     -0.65      0.00
    2   14   14      1.36      0.00
   -2   16   15      0.37      0.00
   -2   16   14      0.43      0.00
   -2   16   13     -0.20      0.00
   -2   16   12     -1.35      0.00
   -2   16   11      1.13      0.00
   -2   16   10     -0.63      0.00
   -2   16    9     -1.81      0.00
   -2   16    8     -0.75      0.00
   -2   16    7      5.41      0.00
   -2   16    6      1.27      0.00
   -2   16    5     -1.27      0.00
   -2   16    4      0.80      0.00
   -2   16    3      5.41      0.00
   -2   16    2      2.78      0.00
   -2   16    1     -4.64      0.00
    2   16    0      1.52      0.00
    2   16    1     -3.71      0.00
    2   16    2      1.48      0.00
    2   16    3      4.77      0.00
    2   16    4     -2.50      0.00
    2   16    5     -1.70      0.00
    2   16    6     -0.82      0.00
    2   16    7      2.56      0.00
    2   16    8     -0.76      0.00
    2   16    9      0.52      0.00
    2   16   10      0.38      0.00
    2   16   11      1.71      0.00
    2   16   12     -0.38      0.00
    2   16   13      0.58      0.00
   -2   18   14      1.18      0.00
   -2   18   13     -0.43      0.00
   -2   18   12      0.43      0.00
   -2   18   11     -0.18      0.00
   -2   18   10      0.71      0.00
   -2   18    9      0.14      0.00
   -2   18    8      0.18      0.00
   -2   18    7     -0.00      0.00
   -2   18    6      1.25      0.00
   -2   18    5      1.13      0.00
   -2   18    4     -2.29      0.00
   -2   18    3      0.48      0.00
   -2   18    2      1.05      0.00
   -2   18    1     -0.07      0.00
    2   18    0     -2.79      0.00
    2   18    1      2.17      0.00
    2   18    2      0.33      0.00
    2   18    3      1.16      0.00
    2   18    4     -0.56      0.00
    2   18    5      0.55      0.00
    2   18    6      1.81      0.00
    2   18    7     -0.29      0.00
    2   18    8      0.77      0.00
    2   18    9     -1.15      0.00
    2   18   10     -0.84      0.00
    2   18   11     -1.48      0.00
    2   18   12     -0.79      0.00
   -2   20   13      0.72      0.00
   -2   20   12      0.29      0.00
   -2   20   11      0.60      0.00
   -2   20   10      0.42      0.00
   -2   20    9     -1.11      0.00
   -2   20    8     -0.03      0.00
   -2   20    7      1.63      0.00
   -2   20    6     -0.41      0.00
   -2   20    5     -0.56      0.00
   -2   20    4      0.23      0.00
   -2   20    3     -1.19      0.00
   -2   20    2     -0.60      0.00
   -2   20    1     -0.50      0.00
    2   20    0     -0.06      0.00
    2   20    1      0.36      0.00
    2   20    2      0.14      0.00
    2   20    3      0.00      0.00
    2   20    4     -0.38      0.00
    2   20    5      0.03      0.00
    2   20    6      0.16      0.00
    2   20    7     -0.17      0.00
    2   20    8     -0.10      0.00
    2   20    9     -0.63      0.00
    2   20   10     -0.09      0.00
    2   20   11      0.24      0.00
   -2   22    9     -0.40      0.00
   -2   22    8     -1.84      0.00
   -2   22    7      0.88      0.00
   -2   22    6      1.44      0.00
   -2   22    5      0.06      0.00
   -2   22    4     -1.43      0.00
   -2   22    3      0.49      0.00
   -2   22    2     -0.75      0.00
   -2   22    1      0.64      0.00
    2   22    0     -1.51      0.00
    2   22    1     -0.83      0.00
    2   22    2     -1.21      0.00
    2   22    3     -0.01      0.00
    2   22    4      0.44      0.00
    2   22    5      0.32      0.00
   -2   24    7     -2.54      0.00
   -2   24    6      1.00      0.00
   -2   24    5     -0.75      0.00
   -2   24    4      0.70      0.00
   -2   24    3     -0.55      0.00
   -3    1   20     -0.24      0.00
   -3    1   19     -0.14      0.00
   -3    1   18     -0.39      0.00
   -3    1   17     -1.38      0.00
   -3    1   16     -1.41      0.00
   -3    1   15     -0.34      0.00
   -3    1   14      0.30      0.00
   -3    1   13      2.58      0.00
   -3    1   12     -1.92      0.00
   -3    1   11      0.52      0.00
   -3    1   10      3.20      0.00
   -3    1    9      5.96      0.00
   -3    1    8      0.32      0.00
   -3    1    7    -10.53      0.00
   -3    1    6     20.42      0.00
   -3    1    5     -5.14      0.00
   -3    1    4    -13.72      0.00
   -3    1    3   -102.00      0.00
   -3    1    2     53.85      0.00
   -3    1    1    -10.10      0.00
    3    1    0    -41.07      0.00
    3    1    1     50.55      0.00
    3    1    2      4.83      0.00
    3    1    3     -1.53      0.00
    3    1    4    -16.46      0.00
    3    1    5     -0.04      0.00
    3    1    6      2.96      0.00
    3    1    7     -1.61      0.00
    3    1    8     -0.67      0.00
    3    1    9      2.17      0.00
    3    1   10      2.24      0.00
    3    1   11      1.03      0.00
    3    1   12      1.11      0.00
    3    1   13      2.22      0.00
    3    1   14      0.88      0.00
    3    1   15      0.83      0.00
    3    1   16      0.41      0.00
    3    1   17     -0.91      0.00
    3    1   18     -1.30      0.00
   -3    3   20      0.87      0.00
   -3    3   19     -1.95      0.00
   -3    3   18      0.14      0.00
   -3    3   17      0.07      0.00
   -3    3   16      0.89      0.00
   -3    3   15      0.07      0.00
   -3    3   14     -0.67      0.00
   -3    3   13      2.59      0.00
   -3    3   12      0.88      0.00
   -3    3   11      0.44      0.00
   -3    3   10     -3.27      0.00
   -3    3    9      7.92      0.00
   -3    3    8     -0.30      0.00
   -3    3    7      7.20      0.00
   -3    3    6    -17.47      0.00
   -3    3    5     13.27      0.00
   -3    3    4      0.83      0.00
   -3    3    3     -5.64      0.00
   -3    3    2    -48.56      0.00
   -3    3    1     30.45      0.00
    3    3    0     15.79      0.00
    3    3    1     11.20      0.00
    3    3    2      7.20      0.00
    3    3    3    -21.53      0.00
    3    3    4      7.64      0.00
    3    3    5     -3.52      0.00
    3    3    6      4.26      0.00
    3    3    7     -8.90      0.00
    3    3    8      1.08      0.00
    3    3    9     -0.74      0.00
    3    3   10     -1.39      0.00
    3    3   11     -1.63      0.00
    3    3   12     -1.20      0.00
    3    3   13     -1.03      0.00
    3    3   14     -1.96      0.00
    3    3   15      0.51      0.00
    3    3   16      0.48      0.00
    3    3   17      0.47      0.00
    3    3   18      1.36      0.00
   -3    5   21     -0.14      0.00
   -3    5   20     -1.40      0.00
   -3    5   19      2.26      0.00
   -3    5   18      1.10      0.00
   -3    5   17     -0.74      0.00
   -3    5   16      0.82      0.00
   -3    5   15     -0.08      0.00
   -3    5   14      0.21      0.00
   -3    5   13     -3.11      0.00
   -3    5   12      2.14      0.00
   -3    5   11     -0.07      0.00
   -3    5   10     -0.40      0.00
   -3    5    9     -4.64      0.00
   -3    5    8     -3.25      0.00
   -3    5    7     -3.37      0.00
   -3    5    6     -2.18      0.00
   -3    5    5      0.39      0.00
   -3    5    4     -1.69      0.00
   -3    5    3      9.42      0.00
   -3    5    2     12.99      0.00
   -3    5    1      3.36      0.00
    3    5    0     22.51      0.00
    3    5    1     -0.65      0.00
    3    5    2      3.18      0.00
    3    5    3     -0.07      0.00
    3    5    4      7.75      0.00
    3    5    5      8.46      0.00
    3    5    6     -5.01      0.00
    3    5    7      3.27      0.00
    3    5    8     -2.21      0.00
    3    5    9      0.30      0.00
    3    5   10     -1.45      0.00
    3    5   11      0.98      0.00
    3    5   12     -0.27      0.00
    3    5   13     -0.10      0.00
    3    5   14     -0.14      0.00
    3    5   15      0.29      0.00
    3    5   16     -0.42      0.00
    3    5   17     -0.11      0.00
    3    5   18     -0.11      0.00
    3    5   19     -0.15      0.00
   -3    7   21      0.27      0.00
   -3    7   20     -0.34      0.00
   -3    7   19     -0.95      0.00
   -3    7   18      1.28      0.00
   -3    7   17      1.76      0.00
   -3    7   16     -1.07      0.00
   -3    7   15     -0.54      0.00
   -3    7   14      0.86      0.00
   -3    7   13     -0.17      0.00
   -3    7   12     -0.58      0.00
   -3    7   11     -0.38      0.00
   -3    7   10      2.30      0.00
   -3    7    9     -1.41      0.00
   -3    7    8      0.62      0.00
   -3    7    7     -3.98      0.00
   -3    7    6     -0.79      0.00
   -3    7    5      2.96      0.00
   -3    7    4      6.11      0.00
   -3    7    3     -1.13      0.00
   -3    7    2    -10.61      0.00
   -3    7    1      8.06      0.00
    3    7    0     -0.25      0.00
    3    7    1     -2.28      0.00
    3    7    2    -10.87      0.00
    3    7    3      4.06      0.00
    3    7    4      0.42      0.00
    3    7    5      3.14      0.00
    3    7    6     -0.76      0.00
    3    7    7     -0.08      0.00
    3    7    8     -1.35      0.00
    3    7    9      0.13      0.00
    3    7   10      0.77      0.00
    3    7   11     -0.05      0.00
    3    7   12      0.34      0.00
    3    7   13      0.52      0.00
    3    7   14      0.64      0.00
    3    7   15      0.47      0.00
    3    7   16     -0.18      0.00
    3    7   17     -0.01      0.00
    3    7   18      0.77      0.00
   -3    9   19      0.35      0.00
   -3    9   18     -1.43      0.00
   -3    9   17      0.43      0.00
   -3    9   16      0.41      0.00
   -3    9   15      0.71      0.00
   -3    9   14     -0.35      0.00
   -3    9   13      1.75      0.00
   -3    9   12     -0.26      0.00
   -3    9   11     -1.84      0.00
   -3    9   10     -1.85      0.00
   -3    9    9      0.66      0.00
   -3    9    8      2.69      0.00
   -3    9    7     -0.32      0.00
   -3    9    6      2.51      0.00
   -3    9    5      0.39      0.00
   -3    9    4      6.40      0.00
   -3    9    3      5.91      0.00
   -3    9    2     -2.63      0.00
   -3    9    1     -5.28      0.00
    3    9    0     -1.65      0.00
    3    9    1     -2.85      0.00
    3    9    2     -5.14      0.00
    3    9    3      1.76      0.00
    3    9    4      1.65      0.00
    3    9    5      0.09      0.00
    3    9    6     -1.23      0.00
    3    9    7     -0.54      0.00
    3    9    8      2.73      0.00
    3    9    9      1.71      0.00
    3    9   10     -0.52      0.00
    3    9   11     -1.70      0.00
    3    9   12      0.01      0.00
    3    9   13     -0.63      0.00
    3    9   14      0.73      0.00
    3    9   15     -1.09      0.00
   -3   11   17     -2.17      0.00
   -3   11   16     -0.42      0.00
   -3   11   15     -1.27      0.00
   -3   11   14     -0.76      0.00
   -3   11   13     -1.60      0.00
   -3   11   12     -0.18      0.00
   -3   11   11      0.74      0.00
   -3   11   10     -3.08      0.00
   -3   11    9     -2.26      0.00
   -3   11    8      2.32      0.00
   -3   11    7      3.24      0.00
   -3   11    6     -1.97      0.00
   -3   11    5     -3.90      0.00
   -3   11    4      0.85      0.00
   -3   11    3     -0.42      0.00
   -3   11    2     -0.02      0.00
   -3   11    1     -8.26      0.00
    3   11    0      0.59      0.00
    3   11    1     -2.19      0.00
    3   11    2     -1.62      0.00
    3   11    3      3.93      0.00
    3   11    4      0.64      0.00
    3   11    5     -3.32      0.00
    3   11    6     -2.09      0.00
    3   11    7      2.76      0.00
    3   11    8      1.60      0.00
    3   11    9     -1.15      0.00
    3   11   10     -1.62      0.00
    3   11   11      0.96      0.00
    3   11   12      1.30      0.00
    3   11   13      0.99      0.00
    3   11   14      1.20      0.00
    3   11   15     -0.80      0.00
   -3   13   16      0.03      0.00
   -3   13   15      1.78      0.00
   -3   13   14      0.11      0.00
   -3   13   13      0.68      0.00
   -3   13   12     -0.24      0.00
   -3   13   11      2.96      0.00
   -3   13   10      5.00      0.00
   -3   13    9      0.80      0.00
   -3   13    8     -1.49      0.00
   -3   13    7      5.27      0.00
   -3   13    6      4.40      0.00
   -3   13    5     -4.00      0.00
   -3   13    4     -4.86      0.00
   -3   13    3      0.25      0.00
   -3   13    2      4.78      0.00
   -3   13    1     -3.90      0.00
    3   13    0     -5.67      0.00
    3   13    1     -3.85      0.00
    3   13    2      5.04      0.00
    3   13    3      0.93      0.00
    3   13    4     -5.43      0.00
    3   13    5     -5.45      0.00
    3   13    6      2.49      0.00
    3   13    7     -1.32      0.00
    3   13    8     -0.69      0.00
    3   13    9     -2.34      0.00
    3   13   10      2.35      0.00
    3   13   11      1.80      0.00
    3   13   12     -0.70      0.00
    3   13   13      0.64      0.00
    3   13   14     -2.56      0.00
   -3   15   15     -1.07      0.00
   -3   15   14      0.16      0.00
   -3   15   13      0.64      0.00
   -3   15   12     -0.71      0.00
   -3   15   11     -1.53      0.00
   -3   15   10     -0.02      0.00
   -3   15    9      1.89      0.00
   -3   15    8     -5.22      0.00
   -3   15    7     -4.90      0.00
   -3   15    6     -0.50      0.00
   -3   15    5      3.10      0.00
   -3   15    4     -4.76      0.00
   -3   15    3     -4.35      0.00
   -3   15    2      2.53      0.00
   -3   15    1      5.10      0.00
    3   15    0     -2.24      0.00
    3   15    1      4.86      0.00
    3   15    2      5.18      0.00
    3   15    3     -4.49      0.00
    3   15    4      1.06      0.00
    3   15    5      3.30      0.00
    3   15    6      2.23      0.00
    3   15    7     -0.96      0.00
    3   15    8     -0.74      0.00
    3   15    9      0.79      0.00
    3   15   10      0.78      0.00
    3   15   11     -0.72      0.00
    3   15   12      0.06      0.00
    3   15   13     -0.89      0.00
   -3   17   15     -0.31      0.00
   -3   17   14      0.03      0.00
   -3   17   13     -0.51      0.00
   -3   17   12      1.00      0.00
   -3   17   11     -1.60      0.00
   -3   17   10     -1.18      0.00
   -3   17    9     -0.23      0.00
   -3   17    8      1.98      0.00
   -3   17    7     -1.64      0.00
   -3   17    6     -1.19      0.00
   -3   17    5      2.69      0.00
   -3   17    4      2.84      0.00
   -3   17    3      0.48      0.00
   -3   17    2     -1.63      0.00
   -3   17    1      3.66      0.00
    3   17    0      3.94      0.00
    3   17    1      0.09      0.00
    3   17    2     -0.70      0.00
    3   17    3      0.13      0.00
    3   17    4      1.70      0.00
    3   17    5      2.16      0.00
    3   17    6     -2.32      0.00
    3   17    7      0.82      0.00
    3   17    8     -1.85      0.00
    3   17    9     -0.21      0.00
    3   17   10     -1.02      0.00
    3   17   11     -0.77      0.00
    3   17   12     -0.58      0.00
   -3   19   14     -0.88      0.00
   -3   19   13     -0.35      0.00
   -3   19   12     -0.00      0.00
   -3   19   11      0.09      0.00
   -3   19   10      0.75      0.00
   -3   19    9      0.74      0.00
   -3   19    8     -0.19      0.00
   -3   19    7      0.25      0.00
   -3   19    6      0.41      0.00
   -3   19    5     -0.35      0.00
   -3   19    4      1.53      0.00
   -3   19    3      1.06      0.00
   -3   19    2     -0.54      0.00
   -3   19    1     -0.46      0.00
    3   19    0     -0.77      0.00
    3   19    1      0.11      0.00
    3   19    2     -1.32      0.00
    3   19    3      0.08      0.00
    3   19    4      0.03      0.00
    3   19    5     -0.15      0.00
    3   19    6     -0.23      0.00
    3   19    7      0.09      0.00
    3   19    8     -0.04      0.00
    3   19    9      0.89      0.00
    3   19   10      0.91      0.00
    3   19   11      0.76      0.00
   -3   21   10     -0.77      0.00
   -3   21    9      1.32      0.00
   -3   21    8      1.19      0.00
   -3   21    7     -1.85      0.00
   -3   21    6     -0.90      0.00
   -3   21    5      0.85      0.00
   -3   21    4     -0.51      0.00
   -3   21    3      0.58      0.00
   -3   21    2     -0.92      0.00
   -3   21    1      0.40      0.00
    3   21    0     -0.89      0.00
    3   21    1     -0.15      0.00
    3   21    2     -0.81      0.00
    3   21    3      0.88      0.00
    3   21    4      0.30      0.00
    3   21    5      0.47      0.00
    3   21    6      0.13      0.00
    3   21    7      0.26      0.00
    3   21    8      0.11      0.00
    3   21    9      0.14      0.00
    3   21   10      0.35      0.00
   -3   23    8      2.30      0.00
   -3   23    7      0.78      0.00
   -3   23    6     -0.05      0.00
   -3   23    5     -1.04      0.00
   -3   23    4      1.12      0.00
   -3   23    3     -1.24      0.00
   -3   23    2     -0.24      0.00
   -3   23    1     -1.55      0.00
   -4    0   20      0.34      0.00
   -4    0   18      0.85      0.00
   -4    0   16      0.39      0.00
   -4    0   14     -3.24      0.00
   -4    0   12     -0.29      0.00
   -4    0   10     -8.06      0.00
   -4    0    8      7.28      0.00
   -4    0    6     -3.04      0.00
   -4    0    4     93.00      0.00
   -4    0    2     -0.07      0.00
    4    0    0     66.36      0.00
    4    0    2    -10.26      0.00
    4    0    4      1.76      0.00
    4    0    6     -6.18      0.00
    4    0    8      2.44      0.00
    4    0   10      0.39      0.00
    4    0   12      1.82      0.00
    4    0   14      1.57      0.00
    4    0   16     -0.32      0.00
   -4    2   20      0.76      0.00
   -4    2   19     -0.05      0.00
   -4    2   18     -0.02      0.00
   -4    2   17     -1.35      0.00
   -4    2   16      0.09      0.00
   -4    2   15      0.29      0.00
   -4    2   14     -0.06      0.00
   -4    2   13     -1.89      0.00
   -4    2   12      0.38      0.00
   -4    2   11      3.54      0.00
   -4    2   10     -1.30      0.00
   -4    2    9     -1.46      0.00
   -4    2    8     -6.31      0.00
   -4    2    7     19.07      0.00
   -4    2    6     -6.11      0.00
   -4    2    5     -3.36      0.00
   -4    2    4    -29.89      0.00
   -4    2    3     58.08      0.00
   -4    2    2    -21.21      0.00
   -4    2    1    -35.53      0.00
    4    2    0    -11.98      0.00
    4    2    1     -4.67      0.00
    4    2    2    -13.33      0.00
    4    2    3     21.25      0.00
    4    2    4      0.44      0.00
    4    2    5      0.73      0.00
    4    2    6     -5.47      0.00
    4    2    7      1.53      0.00
    4    2    8     -0.79      0.00
    4    2    9     -3.01      0.00
    4    2   10     -1.60      0.00
    4    2   11     -1.72      0.00
    4    2   12     -1.62      0.00
    4    2   13     -1.85      0.00
    4    2   14      0.10      0.00
    4    2   15     -0.46      0.00
    4    2   16     -0.15      0.00
    4    2   17      1.56      0.00
    4    2   18      0.12      0.00
   -4    4   21      1.54      0.00
   -4    4   20     -2.02      0.00
   -4    4   19     -1.64      0.00
   -4    4   18     -0.22      0.00
   -4    4   17     -0.07      0.00
   -4    4   16      0.15      0.00
   -4    4   15     -0.44      0.00
   -4    4   14      2.99      0.00
   -4    4   13     -0.78      0.00
   -4    4   12     -0.05      0.00
   -4    4   11     -0.90      0.00
   -4    4   10      6.21      0.00
   -4    4    9      1.75      0.00
   -4    4    8      4.50      0.00
   -4    4    7     -3.93      0.00
   -4    4    6      4.14      0.00
   -4    4    5     -1.55      0.00
   -4    4    4    -12.96      0.00
   -4    4    3    -22.47      0.00
   -4    4    2      7.41      0.00
   -4    4    1    -14.01      0.00
    4    4    0    -15.40      0.00
    4    4    1     -3.06      0.00
    4    4    2     11.30      0.00
    4    4    3      5.26      0.00
    4    4    4      7.06      0.00
    4    4    5     -8.10      0.00
    4    4    6      7.14      0.00
    4    4    7     -1.42      0.00
    4    4    8      0.79      0.00
    4    4    9     -1.25      0.00
    4    4   10      1.73      0.00
    4    4   11      1.01      0.00
    4    4   12      1.18      0.00
    4    4   13      1.15      0.00
    4    4   14     -0.04      0.00
    4    4   15     -0.93      0.00
    4    4   16     -0.28      0.00
    4    4   17     -0.79      0.00
    4    4   18     -0.03      0.00
   -4    6   21     -0.36      0.00
   -4    6   20      1.73      0.00
   -4    6   19     -0.01      0.00
   -4    6   18     -2.52      0.00
   -4    6   17      1.19      0.00
   -4    6   16      0.46      0.00
   -4    6   15     -0.10      0.00
   -4    6   14     -1.25      0.00
   -4    6   13      1.07      0.00
   -4    6   12      0.43      0.00
   -4    6   11     -1.37      0.00
   -4    6   10      0.46      0.00
   -4    6    9     -1.45      0.00
   -4    6    8      2.40      0.00
   -4    6    7     -2.02      0.00
   -4    6    6     -1.14      0.00
   -4    6    5     -7.96      0.00
   -4    6    4      0.85      0.00
   -4    6    3      9.03      0.00
   -4    6    2     -1.16      0.00
   -4    6    1     10.50      0.00
    4    6    0     -3.70      0.00
    4    6    1    -11.81      0.00
    4    6    2      6.86      0.00
    4    6    3     -5.93      0.00
    4    6    4     -3.15      0.00
    4    6    5     -0.63      0.00
    4    6    6      0.91      0.00
    4    6    7      1.44      0.00
    4    6    8      0.04      0.00
    4    6    9      1.61      0.00
    4    6   10     -0.52      0.00
    4    6   11      0.85      0.00
    4    6   12     -0.48      0.00
    4    6   13      0.27      0.00
    4    6   14     -0.08      0.00
    4    6   15      0.21      0.00
    4    6   16     -0.13      0.00
    4    6   17      0.67      0.00
    4    6   18     -0.40      0.00
   -4    8   20     -0.14      0.00
   -4    8   19      1.86      0.00
   -4    8   18      1.29      0.00
   -4    8   17     -1.00      0.00
   -4    8   16     -0.37      0.00
   -4    8   15      0.70      0.00
   -4    8   14     -1.17      0.00
   -4    8   13     -0.07      0.00
   -4    8   12      0.38      0.00
   -4    8   11      2.58      0.00
   -4    8   10     -1.46      0.00
   -4    8    9     -1.61      0.00
   -4    8    8     -2.93      0.00
   -4    8    7     -2.29      0.00
   -4    8    6      1.46      0.00
   -4    8    5     -1.51      0.00
   -4    8    4     -2.87      0.00
   -4    8    3     -1.98      0.00
   -4    8    2     11.39      0.00
   -4    8    1      4.24      0.00
    4    8    0     -0.76      0.00
    4    8    1      2.16      0.00
    4    8    2      2.32      0.00
    4    8    3     -0.68      0.00
    4    8    4     -3.91      0.00
    4    8    5      0.90      0.00
    4    8    6      0.01      0.00
    4    8    7      3.08      0.00
    4    8    8      0.06      0.00
    4    8    9     -0.69      0.00
    4    8   10     -0.81      0.00
    4    8   11     -0.15      0.00
    4    8   12     -0.85      0.00
    4    8   13      0.28      0.00
    4    8   14     -0.81      0.00
    4    8   15     -0.44      0.00
    4    8   16      0.63      0.00
   -4   10   18      1.43      0.00
   -4   10   17      1.10      0.00
   -4   10   16      0.44      0.00
   -4   10   15      0.25      0.00
   -4   10   14      1.78      0.00
   -4   10   13      0.27      0.00
   -4   10   12     -1.27      0.00
   -4   10   11      0.38      0.00
   -4   10   10      1.37      0.00
   -4   10    9      0.14      0.00
   -4   10    8     -2.87      0.00
   -4   10    7      1.14      0.00
   -4   10    6      2.44      0.00
   -4   10    5      3.62      0.00
   -4   10    4      3.48      0.00
   -4   10    3     -2.78      0.00
   -4   10    2      4.15      0.00
   -4   10    1      1.70      0.00
    4   10    0      1.24      0.00
    4   10    1      5.61      0.00
    4   10    2      0.17      0.00
    4   10    3     -2.47      0.00
    4   10    4     -4.12      0.00
    4   10    5      0.31      0.00
    4   10    6      1.65      0.00
    4   10    7     -1.16      0.00
    4   10    8     -1.60      0.00
    4   10    9     -0.07      0.00
    4   10   10      2.22      0.00
    4   10   11      0.95      0.00
    4   10   12      0.52      0.00
    4   10   13      0.03      0.00
    4   10   14     -0.55      0.00
   -4   12   17     -0.44      0.00
   -4   12   16     -1.36      0.00
   -4   12   15     -0.56      0.00
   -4   12   14     -1.50      0.00
   -4   12   13     -0.25      0.00
   -4   12   12     -1.48      0.00
   -4   12   11     -4.26      0.00
   -4   12   10     -2.33      0.00
   -4   12    9      2.19      0.00
   -4   12    8     -0.74      0.00
   -4   12    7     -2.65      0.00
   -4   12    6      0.47      0.00
   -4   12    5      5.43      0.00
   -4   12    4      1.66      0.00
   -4   12    3     -3.41      0.00
   -4   12    2     -4.68      0.00
   -4   12    1      3.99      0.00
    4   12    0      0.20      0.00
    4   12    1      5.90      0.00
    4   12    2     -3.90      0.00
    4   12    3     -3.67      0.00
    4   12    4     -0.13      0.00
    4   12    5      3.50      0.00
    4   12    6     -2.95      0.00
    4   12    7     -1.17      0.00
    4   12    8     -1.43      0.00
    4   12    9      2.50      0.00
    4   12   10      0.44      0.00
    4   12   11     -1.69      0.00
    4   12   12      0.04      0.00
    4   12   13     -2.65      0.00
    4   12   14      0.93      0.00
   -4   14   16      1.92      0.00
   -4   14   15     -0.10      0.00
   -4   14   14      1.05      0.00
   -4   14   13      0.46      0.00
   -4   14   12      2.14      0.00
   -4   14   11      2.42      0.00
   -4   14   10     -0.89      0.00
   -4   14    9      2.24      0.00
   -4   14    8      6.23      0.00
   -4   14    7      2.68      0.00
   -4   14    6     -4.88      0.00
   -4   14    5      0.22      0.00
   -4   14    4      3.06      0.00
   -4   14    3      2.07      0.00
   -4   14    2     -6.86      0.00
   -4   14    1     -4.55      0.00
    4   14    0      6.66      0.00
    4   14    1      0.67      0.00
    4   14    2     -4.22      0.00
    4   14    3      4.73      0.00
    4   14    4      5.38      0.00
    4   14    5     -0.42      0.00
    4   14    6     -0.08      0.00
    4   14    7     -1.11      0.00
    4   14    8      1.99      0.00
    4   14    9     -0.43      0.00
    4   14   10     -1.24      0.00
    4   14   11     -0.17      0.00
    4   14   12     -0.44      0.00
    4   14   13      1.76      0.00
   -4   16   15     -0.03      0.00
   -4   16   14      0.09      0.00
   -4   16   13     -1.47      0.00
   -4   16   12      0.89      0.00
   -4   16   11      1.16      0.00
   -4   16   10      1.60      0.00
   -4   16    9     -4.07      0.00
   -4   16    8     -0.48      0.00
   -4   16    7      1.10      0.00
   -4   16    6     -0.87      0.00
   -4   16    5     -5.72      0.00
   -4   16    4     -2.84      0.00
   -4   16    3      2.42      0.00
   -4   16    2     -0.58      0.00
   -4   16    1     -4.09      0.00
    4   16    0     -2.17      0.00
    4   16    1     -4.34      0.00
    4   16    2      1.90      0.00
    4   16    3      0.82      0.00
    4   16    4      0.07      0.00
    4   16    5     -3.52      0.00
    4   16    6      1.86      0.00
    4   16    7     -0.77      0.00
    4   16    8      1.01      0.00
    4   16    9     -0.71      0.00
    4   16   10     -1.49      0.00
    4   16   11     -0.01      0.00
    4   16   12      0.61      0.00
   -4   18   14      0.26      0.00
   -4   18   13      0.47      0.00
   -4   18   12     -2.01      0.00
   -4   18   11     -0.74      0.00
   -4   18   10     -0.47      0.00
   -4   18    9     -0.01      0.00
   -4   18    8     -1.54      0.00
   -4   18    7      0.02      0.00
   -4   18    6      1.60      0.00
   -4   18    5     -0.24      0.00
   -4   18    4     -1.03      0.00
   -4   18    3      0.51      0.00
   -4   18    2      2.56      0.00
   -4   18    1      2.36      0.00
    4   18    0     -0.12      0.00
    4   18    1     -1.83      0.00
    4   18    2      0.75      0.00
    4   18    3     -0.89      0.00
    4   18    4     -1.24      0.00
    4   18    5      1.18      0.00
    4   18    6      0.07      0.00
    4   18    7      1.26      0.00
    4   18    8      0.78      0.00
    4   18    9      0.21      0.00
    4   18   10      0.51      0.00
    4   18   11      1.05      0.00
   -4   20   14     -0.20      0.00
   -4   20   13      0.78      0.00
   -4   20   12      0.03      0.00
   -4   20   11      0.78      0.00
   -4   20   10     -0.05      0.00
   -4   20    9     -0.89      0.00
   -4   20    8      0.65      0.00
   -4   20    7      0.99      0.00
   -4   20    6      0.44      0.00
   -4   20    5      0.59      0.00
   -4   20    4      0.18      0.00
   -4   20    3      0.05      0.00
   -4   20    2      0.80      0.00
   -4   20    1      0.61      0.00
    4   20    0      0.23      0.00
    4   20    1     -0.70      0.00
    4   20    2      0.69      0.00
    4   20    3     -0.10      0.00
    4   20    4     -0.73      0.00
    4   20    5      0.42      0.00
    4   20    6     -0.46      0.00
    4   20    7      0.45      0.00
    4   20    8     -0.29      0.00
    4   20    9     -0.05      0.00
    4   20   10     -0.70      0.00
   -4   22    9     -0.51      0.00
   -4   22    8     -2.30      0.00
   -4   22    7     -0.27      0.00
   -4   22    6      1.15      0.00
   -4   22    5     -0.96      0.00
   -4   22    4      0.93      0.00
   -4   22    3     -0.27      0.00
   -4   22    2      1.19      0.00
   -4   22    1     -0.55      0.00
    4   22    0      0.65      0.00
    4   22    1      0.50      0.00
    4   22    2     -0.81      0.00
   -4   24    6      0.05      0.00
   -4   24    5      0.99      0.00
   -4   24    4     -1.34      0.00
   -4   24    3     -0.53      0.00
   -4   24    2     -0.78      0.00
   -5    1   20      0.07      0.00
   -5    1   19     -0.08      0.00
   -5    1   18      0.96      0.00
   -5    1   17      0.15      0.00
   -5    1   16     -0.14      0.00
   -5    1   15     -1.55      0.00
   -5    1   14      1.16      0.00
   -5    1   13     -0.36      0.00
   -5    1   12     -2.16      0.00
   -5    1   11     -4.16      0.00
   -5    1   10      2.24      0.00
   -5    1    9      5.27      0.00
   -5    1    8    -10.09      0.00
   -5    1    7     -2.43      0.00
   -5    1    6      0.97      0.00
   -5    1    5     49.51      0.00
   -5    1    4    -34.02      0.00
   -5    1    3      6.37      0.00
   -5    1    2     23.53      0.00
   -5    1    1     42.72      0.00
    5    1    0     -7.70      0.00
    5    1    1      3.42      0.00
    5    1    2     19.16      0.00
    5    1    3     -1.22      0.00
    5    1    4     -0.48      0.00
    5    1    5      2.62      0.00
    5    1    6      1.93      0.00
    5    1    7     -1.24      0.00
    5    1    8     -2.93      0.00
    5    1    9     -0.59      0.00
    5    1   10     -0.96      0.00
    5    1   11     -1.42      0.00
    5    1   12     -1.21      0.00
    5    1   13     -0.93      0.00
    5    1   14     -0.99      0.00
    5    1   15     -0.72      0.00
    5    1   16      0.96      0.00
    5    1   17     -0.82      0.00
   -5    3   20      1.32      0.00
   -5    3   19      1.34      0.00
   -5    3   18     -0.52      0.00
   -5    3   17      0.12      0.00
   -5    3   16      0.07      0.00
   -5    3   15     -1.57      0.00
   -5    3   14     -0.36      0.00
   -5    3   13      0.40      0.00
   -5    3   12      1.92      0.00
   -5    3   11     -4.63      0.00
   -5    3   10     -2.23      0.00
   -5    3    9     -4.40      0.00
   -5    3    8      9.24      0.00
   -5    3    7     -4.70      0.00
   -5    3    6      1.37      0.00
   -5    3    5      1.98      0.00
   -5    3    4     36.00      0.00
   -5    3    3    -12.23      0.00
   -5    3    2     -6.59      0.00
   -5    3    1     14.71      0.00
    5    3    0      2.07      0.00
    5    3    1     15.05      0.00
    5    3    2    -10.39      0.00
    5    3    3      0.83      0.00
    5    3    4     -7.53      0.00
    5    3    5      9.57      0.00
    5    3    6     -1.31      0.00
    5    3    7      0.62      0.00
    5    3    8      0.67      0.00
    5    3    9      2.59      0.00
    5    3   10      2.07      0.00
    5    3   11      1.36      0.00
    5    3   12      1.84      0.00
    5    3   13     -0.26      0.00
    5    3   14     -0.16      0.00
    5    3   15      0.46      0.00
    5    3   16     -0.88      0.00
    5    3   17      0.12      0.00
   -5    5   21     -1.90      0.00
   -5    5   20     -1.70      0.00
   -5    5   19      1.68      0.00
   -5    5   18     -0.35      0.00
   -5    5   17     -0.53      0.00
   -5    5   16     -0.70      0.00
   -5    5   15      1.69      0.00
   -5    5   14     -0.84      0.00
   -5    5   13      0.08      0.00
   -5    5   12      0.43      0.00
   -5    5   11      1.69      0.00
   -5    5   10      1.00      0.00
   -5    5    9     -0.03      0.00
   -5    5    8      1.57      0.00
   -5    5    7      2.32      0.00
   -5    5    6      6.36      0.00
   -5    5    5     -5.11      0.00
   -5    5    4     -8.48      0.00
   -5    5    3     -0.09      0.00
   -5    5    2    -16.04      0.00
   -5    5    1     -7.06      0.00
    5    5    0     -5.50      0.00
    5    5    1      2.25      0.00
    5    5    2    -11.12      0.00
    5    5    3     -6.31      0.00
    5    5    4      4.16      0.00
    5    5    5     -0.93      0.00
    5    5    6      1.98      0.00
    5    5    7     -1.23      0.00
    5    5    8      2.72      0.00
    5    5    9     -1.12      0.00
    5    5   10     -0.09      0.00
    5    5   11     -2.06      0.00
    5    5   12     -0.36      0.00
    5    5   13      0.01      0.00
    5    5   14      0.92      0.00
    5    5   15      0.11      0.00
    5    5   16      0.56      0.00
    5    5   17     -0.56      0.00
    5    5   18     -0.81      0.00
   -5    7   21      0.22      0.00
   -5    7   20     -1.51      0.00
   -5    7   19     -2.71      0.00
   -5    7   18      1.24      0.00
   -5    7   17      0.45      0.00
   -5    7   16     -0.50      0.00
   -5    7   15      0.17      0.00
   -5    7   14      0.34      0.00
   -5    7   13      0.20      0.00
   -5    7   12     -2.03      0.00
   -5    7   11      1.43      0.00
   -5    7   10      0.17      0.00
   -5    7    9      4.31      0.00
   -5    7    8     -0.09      0.00
   -5    7    7     -0.83      0.00
   -5    7    6     -3.95      0.00
   -5    7    5     -0.07      0.00
   -5    7    4      2.60      0.00
   -5    7    3     -9.81      0.00
   -5    7    2     -1.03      0.00
   -5    7    1     -4.97      0.00
    5    7    0      8.91      0.00
    5    7    1     -2.11      0.00
    5    7    2      0.78      0.00
    5    7    3     -2.01      0.00
    5    7    4      3.56      0.00
    5    7    5     -2.12      0.00
    5    7    6      0.24      0.00
    5    7    7     -1.22      0.00
    5    7    8     -0.81      0.00
    5    7    9     -0.04      0.00
    5    7   10     -1.04      0.00
    5    7   11     -0.08      0.00
    5    7   12      0.42      0.00
    5    7   13     -0.08      0.00
    5    7   14     -0.32      0.00
    5    7   15      0.47      0.00
    5    7   16     -0.89      0.00
   -5    9   20      0.71      0.00
   -5    9   19      0.47      0.00
   -5    9   18     -0.83      0.00
   -5    9   17     -0.02      0.00
   -5    9   16      0.40      0.00
   -5    9   15     -1.30      0.00
   -5    9   14     -0.38      0.00
   -5    9   13      1.01      0.00
   -5    9   12      1.86      0.00
   -5    9   11     -0.96      0.00
   -5    9   10     -0.65      0.00
   -5    9    9      0.20      0.00
   -5    9    8     -1.41      0.00
   -5    9    7     -0.93      0.00
   -5    9    6     -4.15      0.00
   -5    9    5     -4.05      0.00
   -5    9    4      1.09      0.00
   -5    9    3      3.78      0.00
   -5    9    2      1.09      0.00
   -5    9    1     -2.21      0.00
    5    9    0      5.08      0.00
    5    9    1     -5.75      0.00
    5    9    2     -0.82      0.00
    5    9    3     -0.27      0.00
    5    9    4      0.98      0.00
    5    9    5      0.17      0.00
    5    9    6     -2.93      0.00
    5    9    7     -0.09      0.00
    5    9    8      0.82      0.00
    5    9    9      1.85      0.00
    5    9   10      0.24      0.00
    5    9   11      0.80      0.00
    5    9   12     -0.13      0.00
    5    9   13     -0.23      0.00
    5    9   14      1.05      0.00
   -5   11   18      1.71      0.00
   -5   11   17      0.04      0.00
   -5   11   16      0.42      0.00
   -5   11   15      1.60      0.00
   -5   11   14      0.26      0.00
   -5   11   13      0.35      0.00
   -5   11   12      2.15      0.00
   -5   11   11      2.15      0.00
   -5   11   10     -1.40      0.00
   -5   11    9     -1.72      0.00
   -5   11    8      0.68      0.00
   -5   11    7      1.01      0.00
   -5   11    6     -1.92      0.00
   -5   11    5      0.07      0.00
   -5   11    4     -0.07      0.00
   -5   11    3      8.08      0.00
   -5   11    2      1.53      0.00
   -5   11    1     -0.39      0.00
    5   11    0     -0.13      0.00
    5   11    1     -4.07      0.00
    5   11    2      1.16      0.00
    5   11    3      4.84      0.00
    5   11    4      1.61      0.00
    5   11    5     -2.73      0.00
    5   11    6     -0.25      0.00
    5   11    7     -0.15      0.00
    5   11    8      1.02      0.00
    5   11    9     -1.70      0.00
    5   11   10     -1.75      0.00
    5   11   11      0.25      0.00
    5   11   12     -1.62      0.00
    5   11   13      1.38      0.00
   -5   13   17     -1.75      0.00
   -5   13   16     -0.75      0.00
   -5   13   15     -2.00      0.00
   -5   13   14     -0.61      0.00
   -5   13   13     -2.21      0.00
   -5   13   12     -2.60      0.00
   -5   13   11     -0.95      0.00
   -5   13   10      0.06      0.00
   -5   13    9     -4.16      0.00
   -5   13    8     -3.25      0.00
   -5   13    7      3.30      0.00
   -5   13    6      4.01      0.00
   -5   13    5     -0.30      0.00
   -5   13    4     -3.91      0.00
   -5   13    3      1.77      0.00
   -5   13    2      6.42      0.00
   -5   13    1     -3.15      0.00
    5   13    0     -5.11      0.00
    5   13    1     -0.34      0.00
    5   13    2      5.69      0.00
    5   13    3      2.82      0.00
    5   13    4     -3.17      0.00
    5   13    5      1.76      0.00
    5   13    6     -0.29      0.00
    5   13    7      2.88      0.00
    5   13    8     -1.60      0.00
    5   13    9     -0.82      0.00
    5   13   10      0.59      0.00
    5   13   11     -0.04      0.00
    5   13   12      2.28      0.00
    5   13   13      0.17      0.00
   -5   15   16     -0.01      0.00
   -5   15   15      1.35      0.00
   -5   15   14      1.39      0.00
   -5   15   13      0.22      0.00
   -5   15   12     -0.04      0.00
   -5   15   11     -1.98      0.00
   -5   15   10      3.46      0.00
   -5   15    9      3.42      0.00
   -5   15    8      0.40      0.00
   -5   15    7     -2.02      0.00
   -5   15    6      5.01      0.00
   -5   15    5      4.33      0.00
   -5   15    4     -0.76      0.00
   -5   15    3     -3.88      0.00
   -5   15    2      0.65      0.00
   -5   15    1      5.92      0.00
    5   15    0     -5.03      0.00
    5   15    1      4.46      0.00
    5   15    2     -1.83      0.00
    5   15    3     -2.42      0.00
    5   15    4     -2.07      0.00
    5   15    5      2.46      0.00
    5   15    6      0.61      0.00
    5   15    7      0.34      0.00
    5   15    8     -0.93      0.00
    5   15    9     -1.85      0.00
    5   15   10      0.86      0.00
    5   15   11     -0.24      0.00
    5   15   12     -1.08      0.00
   -5   17   15     -0.21      0.00
   -5   17   14     -1.45      0.00
   -5   17   13      2.76      0.00
   -5   17   12      1.11      0.00
   -5   17   11      0.99      0.00
   -5   17   10     -1.88      0.00
   -5   17    9      1.82      0.00
   -5   17    8      0.74      0.00
   -5   17    7     -2.28      0.00
   -5   17    6     -2.62      0.00
   -5   17    5     -0.14      0.00
   -5   17    4      0.78      0.00
   -5   17    3     -3.31      0.00
   -5   17    2     -4.06      0.00
   -5   17    1     -0.56      0.00
    5   17    0      0.66      0.00
    5   17    1      0.79      0.00
    5   17    2     -1.48      0.00
    5   17    3     -1.54      0.00
    5   17    4      2.96      0.00
    5   17    5     -1.29      0.00
    5   17    6      1.44      0.00
    5   17    7     -0.98      0.00
    5   17    8     -0.36      0.00
    5   17    9      2.04      0.00
    5   17   10      1.31      0.00
    5   17   11     -0.36      0.00
   -5   19   14     -0.84      0.00
   -5   19   13     -1.96      0.00
   -5   19   12     -0.03      0.00
   -5   19   11     -0.18      0.00
   -5   19   10     -0.24      0.00
   -5   19    9     -0.82      0.00
   -5   19    8     -0.13      0.00
   -5   19    7     -0.41      0.00
   -5   19    6     -1.05      0.00
   -5   19    5     -0.77      0.00
   -5   19    4      0.73      0.00
   -5   19    3     -0.21      0.00
   -5   19    2      0.04      0.00
   -5   19    1     -0.24      0.00
    5   19    0      0.68      0.00
    5   19    1     -0.12      0.00
    5   19    2      0.21      0.00
    5   19    3     -0.80      0.00
    5   19    4      0.38      0.00
    5   19    5     -1.17      0.00
    5   19    6     -0.10      0.00
    5   19    7     -0.83      0.00
    5   19    8      0.32      0.00
    5   19    9      0.12      0.00
    5   19   10     -0.77      0.00
   -5   21    9      1.67      0.00
   -5   21    8      0.96      0.00
   -5   21    7     -0.13      0.00
   -5   21    6      0.04      0.00
   -5   21    5      0.10      0.00
   -5   21    4      0.33      0.00
   -5   21    3      0.23      0.00
   -5   21    2      0.91      0.00
   -5   21    1      0.02      0.00
    5   21    0      1.55      0.00
    5   21    1     -0.60      0.00
    5   21    2      0.36      0.00
    5   21    3     -0.20      0.00
    5   21    4      0.66      0.00
    5   21    5     -0.42      0.00
    5   21    6     -0.33      0.00
    5   21    7      0.36      0.00
    5   21    8     -0.96      0.00
   -5   23    7     -0.05      0.00
   -5   23    6     -1.61      0.00
   -5   23    5      1.09      0.00
   -5   23    4      0.59      0.00
   -5   23    3      1.15      0.00
   -5   23    2      0.49      0.00
   -5   23    1      1.14      0.00
    5   23    0     -0.01      0.00
   -6    0   20     -0.02      0.00
   -6    0   18     -0.49      0.00
   -6    0   16      1.53      0.00
   -6    0   14      0.33      0.00
   -6    0   12      5.11      0.00
   -6    0   10     -5.20      0.00
   -6    0    8      5.59      0.00
   -6    0    6    -41.36      0.00
   -6    0    4     -1.84      0.00
   -6    0    2    -47.70      0.00
    6    0    0     10.12      0.00
    6    0    2     -3.73      0.00
    6    0    4      6.59      0.00
    6    0    6     -0.85      0.00
    6    0    8      0.23      0.00
    6    0   10     -1.32      0.00
    6    0   12     -0.92      0.00
    6    0   14     -1.04      0.00
    6    0   16     -1.56      0.00
   -6    2   20     -1.35      0.00
   -6    2   19      0.47      0.00
   -6    2   18     -0.27      0.00
   -6    2   17      0.14      0.00
   -6    2   16      0.44      0.00
   -6    2   15      0.64      0.00
   -6    2   14     -0.43      0.00
   -6    2   13     -2.04      0.00
   -6    2   12      0.83      0.00
   -6    2   11      3.51      0.00
   -6    2   10      4.09      0.00
   -6    2    9     -9.50      0.00
   -6    2    8      1.05      0.00
   -6    2    7     -1.19      0.00
   -6    2    6     14.35      0.00
   -6    2    5    -35.80      0.00
   -6    2    4      8.02      0.00
   -6    2    3     16.34      0.00
   -6    2    2      6.48      0.00
   -6    2    1     -8.42      0.00
    6    2    0      5.43      0.00
    6    2    1    -23.00      0.00
    6    2    2     -0.84      0.00
    6    2    3     -4.35      0.00
    6    2    4      5.29      0.00
    6    2    5     -2.68      0.00
    6    2    6      0.61      0.00
    6    2    7      2.90      0.00
    6    2    8      2.22      0.00
    6    2    9      1.88      0.00
    6    2   10      0.79      0.00
    6    2   11      2.13      0.00
    6    2   12      0.21      0.00
    6    2   13      1.08      0.00
    6    2   14      1.10      0.00
    6    2   15     -0.75      0.00
    6    2   16      0.57      0.00
    6    2   17      0.04      0.00
   -6    4   21      2.21      0.00
   -6    4   20      0.66      0.00
   -6    4   19     -0.37      0.00
   -6    4   18      0.28      0.00
   -6    4   17      0.70      0.00
   -6    4   16     -1.10      0.00
   -6    4   15      0.37      0.00
   -6    4   14     -0.40      0.00
   -6    4   13      0.28      0.00
   -6    4   12     -3.39      0.00
   -6    4   11     -0.82      0.00
   -6    4   10     -1.82      0.00
   -6    4    9      1.91      0.00
   -6    4    8     -4.20      0.00
   -6    4    7     -3.59      0.00
   -6    4    6      5.64      0.00
   -6    4    5     14.63      0.00
   -6    4    4     -2.79      0.00
   -6    4    3      9.11      0.00
   -6    4    2     18.37      0.00
   -6    4    1      2.77      0.00
    6    4    0     -4.90      0.00
    6    4    1     -3.77      0.00
    6    4    2     -2.24      0.00
    6    4    3      8.53      0.00
    6    4    4     -6.46      0.00
    6    4    5      1.19      0.00
    6    4    6     -2.15      0.00
    6    4    7      2.33      0.00
    6    4    8     -2.47      0.00
    6    4    9     -1.76      0.00
    6    4   10     -2.16      0.00
    6    4   11     -0.73      0.00
    6    4   12      0.26      0.00
    6    4   13      0.44      0.00
    6    4   14     -0.15      0.00
    6    4   15      0.33      0.00
    6    4   16     -0.33      0.00
    6    4   17     -0.82      0.00
   -6    6   21      0.22      0.00
   -6    6   20      3.08      0.00
   -6    6   19     -0.70      0.00
   -6    6   18     -1.05      0.00
   -6    6   17     -0.20      0.00
   -6    6   16      0.53      0.00
   -6    6   15     -0.32      0.00
   -6    6   14      0.23      0.00
   -6    6   13      1.01      0.00
   -6    6   12     -0.14      0.00
   -6    6   11      0.28      0.00
   -6    6   10     -3.17      0.00
   -6    6    9      1.42      0.00
   -6    6    8      1.18      0.00
   -6    6    7      6.77      0.00
   -6    6    6     -0.81      0.00
   -6    6    5     -0.28      0.00
   -6    6    4      5.48      0.00
   -6    6    3     -5.49      0.00
   -6    6    2      2.68      0.00
   -6    6    1     -7.23      0.00
    6    6    0     -5.36      0.00
    6    6    1      7.18      0.00
    6    6    2      2.49      0.00
    6    6    3      1.78      0.00
    6    6    4     -3.68      0.00
    6    6    5     -1.73      0.00
    6    6    6     -0.24      0.00
    6    6    7     -1.69      0.00
    6    6    8      0.24      0.00
    6    6    9     -0.99      0.00
    6    6   10      1.89      0.00
    6    6   11      0.67      0.00
    6    6   12     -0.16      0.00
    6    6   13     -0.92      0.00
    6    6   14      0.14      0.00
    6    6   15     -0.13      0.00
    6    6   16      0.91      0.00
   -6    8   21     -0.81      0.00
   -6    8   20     -1.58      0.00
   -6    8   19      0.01      0.00
   -6    8   18     -0.34      0.00
   -6    8   17     -0.79      0.00
   -6    8   16      0.82      0.00
   -6    8   15      0.51      0.00
   -6    8   14     -0.52      0.00
   -6    8   13     -2.47      0.00
   -6    8   12      0.05      0.00
   -6    8   11      0.19      0.00
   -6    8   10      2.53      0.00
   -6    8    9      0.43      0.00
   -6    8    8      1.19      0.00
   -6    8    7      1.73      0.00
   -6    8    6      2.23      0.00
   -6    8    5      0.37      0.00
   -6    8    4     -8.21      0.00
   -6    8    3     -3.43      0.00
   -6    8    2     -3.13      0.00
   -6    8    1      0.62      0.00
    6    8    0     -5.81      0.00
    6    8    1      2.86      0.00
    6    8    2      2.21      0.00
    6    8    3     -1.30      0.00
    6    8    4      1.14      0.00
    6    8    5     -1.64      0.00
    6    8    6      2.33      0.00
    6    8    7      0.48      0.00
    6    8    8      0.78      0.00
    6    8    9      0.39      0.00
    6    8   10      0.97      0.00
    6    8   11     -0.51      0.00
    6    8   12     -0.47      0.00
    6    8   13      0.27      0.00
    6    8   14     -0.11      0.00
   -6   10   19     -1.46      0.00
   -6   10   18     -0.00      0.00
   -6   10   17      0.45      0.00
   -6   10   16     -0.99      0.00
   -6   10   15     -0.41      0.00
   -6   10   14      0.66      0.00
   -6   10   13      0.19      0.00
   -6   10   12     -1.52      0.00
   -6   10   11      0.69      0.00
   -6   10   10      1.78      0.00
   -6   10    9      0.02      0.00
   -6   10    8     -1.18      0.00
   -6   10    7     -1.63      0.00
   -6   10    6     -2.41      0.00
   -6   10    5      0.46      0.00
   -6   10    4     -4.40      0.00
   -6   10    3     -3.23      0.00
   -6   10    2     -2.00      0.00
   -6   10    1      4.72      0.00
    6   10    0      1.90      0.00
    6   10    1      2.69      0.00
    6   10    2      4.31      0.00
    6   10    3     -1.67      0.00
    6   10    4     -1.04      0.00
    6   10    5      1.34      0.00
    6   10    6     -0.08      0.00
    6   10    7     -0.80      0.00
    6   10    8     -2.60      0.00
    6   10    9     -0.50      0.00
    6   10   10     -0.03      0.00
    6   10   11     -0.90      0.00
    6   10   12      1.10      0.00
    6   10   13     -0.67      0.00
   -6   12   17      1.08      0.00
   -6   12   16      2.27      0.00
   -6   12   15      0.38      0.00
   -6   12   14      1.94      0.00
   -6   12   13      1.67      0.00
   -6   12   12      1.71      0.00
   -6   12   11     -1.06      0.00
   -6   12   10      1.45      0.00
   -6   12    9      2.19      0.00
   -6   12    8     -1.03      0.00
   -6   12    7     -4.48      0.00
   -6   12    6     -1.20      0.00
   -6   12    5      2.32      0.00
   -6   12    4      4.32      0.00
   -6   12    3     -2.83      0.00
   -6   12    2     -0.15      0.00
   -6   12    1      5.03      0.00
    6   12    0      4.12      0.00
    6   12    1      2.15      0.00
    6   12    2     -2.41      0.00
    6   12    3     -3.34      0.00
    6   12    4      3.07      0.00
    6   12    5      0.38      0.00
    6   12    6      2.09      0.00
    6   12    7     -1.76      0.00
    6   12    8      1.03      0.00
    6   12    9      1.28      0.00
    6   12   10     -0.41      0.00
    6   12   11      1.97      0.00
    6   12   12     -0.37      0.00
   -6   14   16     -2.36      0.00
   -6   14   15     -1.22      0.00
   -6   14   14     -1.40      0.00
   -6   14   13     -0.01      0.00
   -6   14   12      0.64      0.00
   -6   14   11     -1.55      0.00
   -6   14   10     -4.27      0.00
   -6   14    9     -2.38      0.00
   -6   14    8      3.11      0.00
   -6   14    7     -1.24      0.00
   -6   14    6     -3.59      0.00
   -6   14    5     -1.60      0.00
   -6   14    4      4.83      0.00
   -6   14    3      4.17      0.00
   -6   14    2     -5.58      0.00
   -6   14    1      0.45      0.00
    6   14    0      4.89      0.00
    6   14    1     -4.45      0.00
    6   14    2     -2.84      0.00
    6   14    3      1.10      0.00
    6   14    4      1.04      0.00
    6   14    5      0.57      0.00
    6   14    6     -1.93      0.00
    6   14    7     -0.12      0.00
    6   14    8     -1.19      0.00
    6   14    9      1.17      0.00
    6   14   10     -0.82      0.00
    6   14   11     -1.04      0.00
   -6   16   16      1.05      0.00
   -6   16   15      1.72      0.00
   -6   16   14     -1.75      0.00
   -6   16   13     -1.04      0.00
   -6   16   12     -1.70      0.00
   -6   16   11      2.76      0.00
   -6   16   10      0.04      0.00
   -6   16    9     -0.97      0.00
   -6   16    8      0.62      0.00
   -6   16    7      4.84      0.00
   -6   16    6      2.21      0.00
   -6   16    5     -1.61      0.00
   -6   16    4      1.07      0.00
   -6   16    3      3.73      0.00
   -6   16    2      2.94      0.00
   -6   16    1     -4.21      0.00
    6   16    0     -1.54      0.00
    6   16    1     -1.03      0.00
    6   16    2     -0.77      0.00
    6   16    3      3.21      0.00
    6   16    4     -3.17      0.00
    6   16    5      0.55      0.00
    6   16    6     -1.69      0.00
    6   16    7      0.73      0.00
    6   16    8      4.08      0.00
    6   16    9      0.58      0.00
    6   16   10      0.38      0.00
   -6   18   15     -0.11      0.00
   -6   18   14      3.55      0.00
   -6   18   13     -0.03      0.00
   -6   18   12     -0.04      0.00
   -6   18   11     -0.43      0.00
   -6   18   10      1.92      0.00
   -6   18    9      0.52      0.00
   -6   18    8     -0.83      0.00
   -6   18    7      0.59      0.00
   -6   18    6      0.87      0.00
   -6   18    5     -0.45      0.00
   -6   18    4     -1.65      0.00
   -6   18    3     -1.44      0.00
   -6   18    2      0.39      0.00
   -6   18    1     -1.40      0.00
    6   18    0     -1.27      0.00
    6   18    1      1.22      0.00
    6   18    2      0.13      0.00
    6   18    3     -0.35      0.00
    6   18    4     -0.81      0.00
    6   18    5     -0.92      0.00
    6   18    6     -0.10      0.00
    6   18    7      0.85      0.00
    6   18    8     -0.69      0.00
    6   18    9     -2.16      0.00
   -6   20   13      0.76      0.00
   -6   20   12     -0.07      0.00
   -6   20   11     -0.59      0.00
   -6   20   10     -0.93      0.00
   -6   20    9     -0.73      0.00
   -6   20    8     -0.65      0.00
   -6   20    7     -0.15      0.00
   -6   20    6     -0.48      0.00
   -6   20    5     -0.29      0.00
   -6   20    4     -1.38      0.00
   -6   20    3     -0.91      0.00
   -6   20    2     -0.47      0.00
   -6   20    1     -1.17      0.00
    6   20    0     -0.15      0.00
    6   20    1      0.34      0.00
    6   20    2      1.36      0.00
    6   20    3     -0.11      0.00
    6   20    4      0.51      0.00
    6   20    5     -0.47      0.00
    6   20    6      0.85      0.00
    6   20    7     -1.07      0.00
    6   20    8     -0.15      0.00
   -6   22    8      0.20      0.00
   -6   22    7      0.87      0.00
   -6   22    6      0.30      0.00
   -6   22    5     -0.52      0.00
   -6   22    4     -0.90      0.00
   -6   22    3      0.17      0.00
   -6   22    2     -0.76      0.00
   -6   22    1      1.17      0.00
    6   22    0      0.49      0.00
    6   22    1     -1.07      0.00
    6   22    2      1.63      0.00
    6   22    6     -0.51      0.00
   -6   24    5      0.33      0.00
   -6   24    4      0.24      0.00
   -6   24    3      0.81      0.00
   -6   24    2      0.71      0.00
   -7    1   20     -0.12      0.00
   -7    1   19     -0.05      0.00
   -7    1   18      0.02      0.00
   -7    1   17      0.17      0.00
   -7    1   16     -0.55      0.00
   -7    1   15      0.33      0.00
   -7    1   14      1.09      0.00
   -7    1   13      2.32      0.00
   -7    1   12     -2.68      0.00
   -7    1   11     -4.55      0.00
   -7    1   10      5.34      0.00
   -7    1    9      3.38      0.00
   -7    1    8      0.75      0.00
   -7    1    7    -21.54      0.00
   -7    1    6     19.68      0.00
   -7    1    5     -2.77      0.00
   -7    1    4    -10.03      0.00
   -7    1    3    -26.69      0.00
   -7    1    2      6.51      0.00
   -7    1    1      5.27      0.00
    7    1    0    -17.53      0.00
    7    1    1      2.74      0.00
    7    1    2     -1.96      0.00
    7    1    3     -2.27      0.00
    7    1    4     -2.58      0.00
    7    1    5      0.27      0.00
    7    1    6      2.35      0.00
    7    1    7      0.73      0.00
    7    1    8      1.11      0.00
    7    1    9      0.57      0.00
    7    1   10      1.65      0.00
    7    1   11      0.27      0.00
    7    1   12      0.93      0.00
    7    1   13      1.04      0.00
    7    1   14     -0.29      0.00
    7    1   15      1.34      0.00
    7    1   16      0.08      0.00
   -7    3   21     -1.86      0.00
   -7    3   20     -0.14      0.00
   -7    3   19     -0.07      0.00
   -7    3   18      0.07      0.00
   -7    3   17      0.75      0.00
   -7    3   16     -0.19      0.00
   -7    3   15      0.40      0.00
   -7    3   14     -0.81      0.00
   -7    3   13      2.90      0.00
   -7    3   12      2.04      0.00
   -7    3   11      2.44      0.00
   -7    3   10     -5.10      0.00
   -7    3    9      3.94      0.00
   -7    3    8      0.84      0.00
   -7    3    7      0.20      0.00
   -7    3    6    -21.34      0.00
   -7    3    5      4.66      0.00
   -7    3    4      1.88      0.00
   -7    3    3    -14.77      0.00
   -7    3    2     -5.46      0.00
   -7    3    1      5.36      0.00
    7    3    0     11.89      0.00
    7    3    1      2.19      0.00
    7    3    2      8.28      0.00
    7    3    3     -9.14      0.00
    7    3    4      2.10      0.00
    7    3    5     -2.25      0.00
    7    3    6     -0.10      0.00
    7    3    7     -3.29      0.00
    7    3    8     -2.54      0.00
    7    3    9     -0.82      0.00
    7    3   10     -1.35      0.00
    7    3   11      0.01      0.00
    7    3   12     -0.84      0.00
    7    3   13     -0.34      0.00
    7    3   14      0.30      0.00
    7    3   15     -0.21      0.00
    7    3   16     -0.64      0.00
   -7    5   21     -1.36      0.00
   -7    5   20     -0.34      0.00
   -7    5   19      0.93      0.00
   -7    5   18      1.19      0.00
   -7    5   17     -0.57      0.00
   -7    5   16      0.04      0.00
   -7    5   15     -0.76      0.00
   -7    5   14     -0.36      0.00
   -7    5   13     -1.84      0.00
   -7    5   12      0.24      0.00
   -7    5   11      0.58      0.00
   -7    5   10     -0.11      0.00
   -7    5    9     -2.82      0.00
   -7    5    8     -6.36      0.00
   -7    5    7      2.80      0.00
   -7    5    6      0.76      0.00
   -7    5    5     -3.05      0.00
   -7    5    4      7.62      0.00
   -7    5    3      7.84      0.00
   -7    5    2      2.31      0.00
   -7    5    1      3.18      0.00
    7    5    0      9.53      0.00
    7    5    1      2.39      0.00
    7    5    2     -3.46      0.00
    7    5    3     -0.07      0.00
    7    5    4     -0.92      0.00
    7    5    5      1.89      0.00
    7    5    6     -2.58      0.00
    7    5    7      1.13      0.00
    7    5    8      0.47      0.00
    7    5    9      2.87      0.00
    7    5   10      0.24      0.00
    7    5   11     -0.67      0.00
    7    5   12     -0.67      0.00
    7    5   13      0.14      0.00
    7    5   14      0.13      0.00
    7    5   15      0.33      0.00
    7    5   16      0.78      0.00
   -7    7   21      2.17      0.00
   -7    7   20      0.09      0.00
   -7    7   19      0.14      0.00
   -7    7   18      1.03      0.00
   -7    7   17     -0.40      0.00
   -7    7   16     -0.80      0.00
   -7    7   15      0.31      0.00
   -7    7   14      1.67      0.00
   -7    7   13      1.27      0.00
   -7    7   12      0.40      0.00
   -7    7   11     -3.23      0.00
   -7    7   10      0.43      0.00
   -7    7    9     -1.04      0.00
   -7    7    8      1.27      0.00
   -7    7    7     -1.62      0.00
   -7    7    6      1.35      0.00
   -7    7    5      7.49      0.00
   -7    7    4      2.07      0.00
   -7    7    3      7.38      0.00
   -7    7    2     -2.51      0.00
   -7    7    1      0.66      0.00
    7    7    0      1.26      0.00
    7    7    1     -0.22      0.00
    7    7    2     -3.21      0.00
    7    7    3      4.09      0.00
    7    7    4      0.51      0.00
    7    7    5      2.87      0.00
    7    7    6     -0.01      0.00
    7    7    7      0.45      0.00
    7    7    8      0.82      0.00
    7    7    9     -0.26      0.00
    7    7   10     -1.06      0.00
    7    7   11     -0.25      0.00
    7    7   12      0.65      0.00
    7    7   13      0.18      0.00
    7    7   14     -0.46      0.00
    7    7   15     -1.28      0.00
   -7    9   21     -1.30      0.00
   -7    9   20     -0.85      0.00
   -7    9   19     -0.00      0.00
   -7    9   18     -0.68      0.00
   -7    9   17      0.64      0.00
   -7    9   16      0.67      0.00
   -7    9   15     -1.03      0.00
   -7    9   14     -1.62      0.00
   -7    9   13     -0.08      0.00
   -7    9   12      0.00      0.00
   -7    9   11     -0.35      0.00
   -7    9   10     -0.87      0.00
   -7    9    9      1.82      0.00
   -7    9    8      3.15      0.00
   -7    9    7      3.00      0.00
   -7    9    6      1.12      0.00
   -7    9    5     -1.06      0.00
   -7    9    4      1.06      0.00
   -7    9    3      0.66      0.00
   -7    9    2     -4.01      0.00
   -7    9    1     -6.86      0.00
    7    9    0     -1.84      0.00
    7    9    1      0.54      0.00
    7    9    2     -2.50      0.00
    7    9    3      0.12      0.00
    7    9    4      1.56      0.00
    7    9    5     -1.97      0.00
    7    9    6     -1.14      0.00
    7    9    7     -1.77      0.00
    7    9    8      0.66      0.00
    7    9    9     -0.92      0.00
    7    9   10     -0.25      0.00
    7    9   11      0.90      0.00
    7    9   12      0.09      0.00
    7    9   13     -0.48      0.00
   -7   11   19      0.18      0.00
   -7   11   18      0.25      0.00
   -7   11   17     -1.61      0.00
   -7   11   16     -0.51      0.00
   -7   11   15     -0.66      0.00
   -7   11   14     -0.77      0.00
   -7   11   13     -1.78      0.00
   -7   11   12      1.22      0.00
   -7   11   11      0.72      0.00
   -7   11   10     -0.95      0.00
   -7   11    9     -0.46      0.00
   -7   11    8      2.20      0.00
   -7   11    7      0.97      0.00
   -7   11    6     -0.89      0.00
   -7   11    5     -6.03      0.00
   -7   11    4     -2.10      0.00
   -7   11    3     -0.29      0.00
   -7   11    2     -0.75      0.00
   -7   11    1     -3.95      0.00
    7   11    0     -2.05      0.00
    7   11    1     -4.73      0.00
    7   11    2     -0.08      0.00
    7   11    3      2.57      0.00
    7   11    4     -0.23      0.00
    7   11    5      0.49      0.00
    7   11    6     -0.28      0.00
    7   11    7      2.92      0.00
    7   11    8      0.70      0.00
    7   11    9     -0.76      0.00
    7   11   10      1.52      0.00
    7   11   11     -0.69      0.00
    7   11   12      0.21      0.00
   -7   13   17      2.85      0.00
   -7   13   16      0.58      0.00
   -7   13   15      2.24      0.00
   -7   13   14     -0.44      0.00
   -7   13   13      0.46      0.00
   -7   13   12      0.01      0.00
   -7   13   11      3.43      0.00
   -7   13   10      3.20      0.00
   -7   13    9     -2.27      0.00
   -7   13    8     -2.16      0.00
   -7   13    7      1.17      0.00
   -7   13    6      2.50      0.00
   -7   13    5     -2.02      0.00
   -7   13    4     -5.58      0.00
   -7   13    3      1.86      0.00
   -7   13    2      4.02      0.00
   -7   13    1     -0.81      0.00
    7   13    0     -4.34      0.00
    7   13    1     -0.44      0.00
    7   13    2      3.53      0.00
    7   13    3     -1.74      0.00
    7   13    4     -0.24      0.00
    7   13    5     -2.77      0.00
    7   13    6      1.74      0.00
    7   13    7     -1.04      0.00
    7   13    8      0.33      0.00
    7   13    9     -0.52      0.00
    7   13   10     -0.96      0.00
    7   13   11     -0.96      0.00
   -7   15   16     -1.45      0.00
   -7   15   15     -0.03      0.00
   -7   15   14      1.24      0.00
   -7   15   13      1.07      0.00
   -7   15   12     -1.83      0.00
   -7   15   11     -1.83      0.00
   -7   15   10     -0.36      0.00
   -7   15    9      1.56      0.00
   -7   15    8     -4.37      0.00
   -7   15    7     -3.71      0.00
   -7   15    6      0.85      0.00
   -7   15    5      2.16      0.00
   -7   15    4     -0.53      0.00
   -7   15    3     -4.40      0.00
   -7   15    2      3.94      0.00
   -7   15    1      5.11      0.00
    7   15    0      1.04      0.00
    7   15    1      0.61      0.00
    7   15    2      1.45      0.00
    7   15    3     -3.38      0.00
    7   15    4      0.18      0.00
    7   15    5      0.18      0.00
    7   15    6      1.28      0.00
    7   15    7      3.68      0.00
    7   15    8     -1.13      0.00
    7   15    9      0.99      0.00
    7   15   10      0.06      0.00
   -7   17   15     -2.93      0.00
   -7   17   14     -0.43      0.00
   -7   17   13     -0.22      0.00
   -7   17   12      1.70      0.00
   -7   17   11     -1.68      0.00
   -7   17   10     -1.47      0.00
   -7   17    9      0.61      0.00
   -7   17    8      1.30      0.00
   -7   17    7     -0.11      0.00
   -7   17    6     -0.56      0.00
   -7   17    5      2.72      0.00
   -7   17    4      2.72      0.00
   -7   17    3      0.59      0.00
   -7   17    2     -0.17      0.00
   -7   17    1      0.66      0.00
    7   17    0      2.30      0.00
    7   17    1      1.18      0.00
    7   17    2     -1.39      0.00
    7   17    3      0.79      0.00
    7   17    4     -1.03      0.00
    7   17    5      1.15      0.00
    7   17    6     -0.18      0.00
    7   17    7     -3.14      0.00
    7   17    8     -2.85      0.00
    7   17    9     -0.42      0.00
   -7   19   15      2.20      0.00
   -7   19   14     -1.29      0.00
   -7   19   13     -0.25      0.00
   -7   19   12      0.77      0.00
   -7   19   11      1.49      0.00
   -7   19   10      0.81      0.00
   -7   19    9      0.13      0.00
   -7   19    8      0.94      0.00
   -7   19    7      0.45      0.00
   -7   19    6      0.22      0.00
   -7   19    5      1.19      0.00
   -7   19    4      0.37      0.00
   -7   19    3      0.58      0.00
   -7   19    2     -0.52      0.00
   -7   19    1     -0.64      0.00
    7   19    0     -0.70      0.00
    7   19    1      1.69      0.00
    7   19    2     -1.18      0.00
    7   19    3      1.37      0.00
    7   19    4      0.37      0.00
    7   19    5      1.37      0.00
    7   19    6     -0.90      0.00
    7   19    7     -0.31      0.00
    7   19    8      1.58      0.00
   -7   21    9     -0.31      0.00
   -7   21    8     -0.29      0.00
   -7   21    7     -0.90      0.00
   -7   21    6     -0.27      0.00
   -7   21    5     -0.06      0.00
   -7   21    4     -0.26      0.00
   -7   21    3     -0.22      0.00
   -7   21    2     -1.80      0.00
   -7   21    1     -0.35      0.00
    7   21    0     -1.55      0.00
    7   21    1      0.01      0.00
    7   21    2     -1.71      0.00
    7   21    3      0.86      0.00
    7   21    4      0.83      0.00
    7   21    5     -0.86      0.00
    7   21    6      1.23      0.00
    7   21    7      0.01      0.00
   -7   23    6     -0.98      0.00
   -7   23    5     -0.75      0.00
   -7   23    4     -0.29      0.00
   -7   23    3     -0.98      0.00
   -7   23    2      0.67      0.00
   -7   23    1      0.57      0.00
    7   23    0      0.88      0.00
    7   23    1     -1.62      0.00
   -8    0   20      0.32      0.00
   -8    0   18     -0.23      0.00
   -8    0   16     -0.05      0.00
   -8    0   14     -2.74      0.00
   -8    0   12      4.31      0.00
   -8    0   10     -5.11      0.00
   -8    0    8     17.11      0.00
   -8    0    6      0.77      0.00
   -8    0    4     28.98      0.00
   -8    0    2     -7.20      0.00
    8    0    0      5.60      0.00
    8    0    2     -5.45      0.00
    8    0    4     -0.57      0.00
    8    0    6      0.23      0.00
    8    0    8      0.07      0.00
    8    0   10     -0.25      0.00
    8    0   12      0.75      0.00
    8    0   14      1.51      0.00
   -8    2   20      0.27      0.00
   -8    2   19     -0.45      0.00
   -8    2   18     -0.93      0.00
   -8    2   17     -0.27      0.00
   -8    2   16     -0.06      0.00
   -8    2   15      0.86      0.00
   -8    2   14     -0.45      0.00
   -8    2   13     -2.87      0.00
   -8    2   12     -2.82      0.00
   -8    2   11      5.44      0.00
   -8    2   10     -0.82      0.00
   -8    2    9      0.27      0.00
   -8    2    8     -6.75      0.00
   -8    2    7     20.30      0.00
   -8    2    6     -3.86      0.00
   -8    2    5     -6.62      0.00
   -8    2    4     -1.36      0.00
   -8    2    3      7.39      0.00
   -8    2    2     -0.22      0.00
   -8    2    1    -19.77      0.00
    8    2    0      1.02      0.00
    8    2    1      5.14      0.00
    8    2    2     -4.92      0.00
    8    2    3      3.88      0.00
    8    2    4     -1.48      0.00
    8    2    5     -1.67      0.00
    8    2    6     -2.29      0.00
    8    2    7     -2.37      0.00
    8    2    8      0.26      0.00
    8    2    9     -1.90      0.00
    8    2   10     -0.14      0.00
    8    2   11     -1.24      0.00
    8    2   12     -0.14      0.00
    8    2   13      0.10      0.00
    8    2   14     -0.69      0.00
    8    2   15     -0.34      0.00
   -8    4   21      0.02      0.00
   -8    4   20      0.14      0.00
   -8    4   19     -1.05      0.00
   -8    4   18      0.18      0.00
   -8    4   17     -0.00      0.00
   -8    4   16      1.00      0.00
   -8    4   15     -0.13      0.00
   -8    4   14      2.88      0.00
   -8    4   13      0.28      0.00
   -8    4   12      0.88      0.00
   -8    4   11     -2.05      0.00
   -8    4   10      4.02      0.00
   -8    4    9      3.66      0.00
   -8    4    8     -2.00      0.00
   -8    4    7     -5.54      0.00
   -8    4    6      3.50      0.00
   -8    4    5     -4.13      0.00
   -8    4    4    -15.08      0.00
   -8    4    3     -0.85      0.00
   -8    4    2      0.49      0.00
   -8    4    1     -1.78      0.00
    8    4    0     -2.15      0.00
    8    4    1     -6.87      0.00
    8    4    2      6.15      0.00
    8    4    3     -0.35      0.00
    8    4    4      3.15      0.00
    8    4    5     -1.79      0.00
    8    4    6      2.56      0.00
    8    4    7      1.87      0.00
    8    4    8      1.83      0.00
    8    4    9     -0.09      0.00
    8    4   10     -0.58      0.00
    8    4   11      0.49      0.00
    8    4   12     -0.12      0.00
    8    4   13     -0.30      0.00
    8    4   14     -0.21      0.00
    8    4   15      0.78      0.00
    8    4   16      0.00      0.00
   -8    6   21     -0.30      0.00
   -8    6   20      0.46      0.00
   -8    6   19     -0.04      0.00
   -8    6   18     -0.45      0.00
   -8    6   17      0.72      0.00
   -8    6   16      0.06      0.00
   -8    6   15     -0.86      0.00
   -8    6   14     -2.46      0.00
   -8    6   13     -0.10      0.00
   -8    6   12      1.39      0.00
   -8    6   11      0.11      0.00
   -8    6   10     -0.17      0.00
   -8    6    9     -3.35      0.00
   -8    6    8      2.66      0.00
   -8    6    7     -3.63      0.00
   -8    6    6     -4.56      0.00
   -8    6    5      0.67      0.00
   -8    6    4     -4.22      0.00
   -8    6    3     -0.35      0.00
   -8    6    2      2.75      0.00
   -8    6    1      4.68      0.00
    8    6    0     -2.78      0.00
    8    6    1     -1.50      0.00
    8    6    2      4.63      0.00
    8    6    3      0.19      0.00
    8    6    4      0.90      0.00
    8    6    5      0.50      0.00
    8    6    6      0.41      0.00
    8    6    7      0.40      0.00
    8    6    8     -1.82      0.00
    8    6    9     -0.65      0.00
    8    6   10      0.54      0.00
    8    6   11      1.01      0.00
    8    6   12     -0.01      0.00
    8    6   13     -0.72      0.00
    8    6   14     -0.78      0.00
    8    6   15      0.16      0.00
   -8    8   21      1.84      0.00
   -8    8   20      0.90      0.00
   -8    8   19      1.06      0.00
   -8    8   18     -1.17      0.00
   -8    8   17     -1.38      0.00
   -8    8   16      0.80      0.00
   -8    8   15      1.67      0.00
   -8    8   14      2.10      0.00
   -8    8   13      0.03      0.00
   -8    8   12     -1.02      0.00
   -8    8   11      1.34      0.00
   -8    8   10     -1.97      0.00
   -8    8    9     -2.65      0.00
   -8    8    8     -3.33      0.00
   -8    8    7     -0.90      0.00
   -8    8    6      3.56      0.00
   -8    8    5      1.36      0.00
   -8    8    4      3.87      0.00
   -8    8    3      1.71      0.00
   -8    8    2      5.98      0.00
   -8    8    1      5.62      0.00
    8    8    0      0.06      0.00
    8    8    1     -0.01      0.00
    8    8    2     -1.13      0.00
    8    8    3      0.02      0.00
    8    8    4     -3.87      0.00
    8    8    5      0.23      0.00
    8    8    6     -0.91      0.00
    8    8    7      0.73      0.00
    8    8    8     -1.16      0.00
    8    8    9      0.47      0.00
    8    8   10      0.59      0.00
    8    8   11     -0.07      0.00
    8    8   12     -0.59      0.00
    8    8   13      0.34      0.00
   -8   10   20      0.94      0.00
   -8   10   19     -0.79      0.00
   -8   10   18      0.41      0.00
   -8   10   17      0.77      0.00
   -8   10   16     -0.57      0.00
   -8   10   15      0.02      0.00
   -8   10   14      0.84      0.00
   -8   10   13     -0.14      0.00
   -8   10   12     -1.81      0.00
   -8   10   11     -0.82      0.00
   -8   10   10      1.56      0.00
   -8   10    9      0.56      0.00
   -8   10    8     -0.11      0.00
   -8   10    7      1.08      0.00
   -8   10    6      3.89      0.00
   -8   10    5      4.34      0.00
   -8   10    4      2.03      0.00
   -8   10    3     -2.55      0.00
   -8   10    2      0.07      0.00
   -8   10    1      1.39      0.00
    8   10    0     -2.43      0.00
    8   10    1      3.43      0.00
    8   10    2      0.31      0.00
    8   10    3     -1.11      0.00
    8   10    4      0.49      0.00
    8   10    5      1.41      0.00
    8   10    6      2.81      0.00
    8   10    7     -0.90      0.00
    8   10    8     -0.34      0.00
    8   10    9      1.11      0.00
    8   10   10     -0.64      0.00
    8   10   11     -0.01      0.00
    8   10   12      0.65      0.00
   -8   12   18     -2.66      0.00
   -8   12   17     -0.48      0.00
   -8   12   16     -1.51      0.00
   -8   12   15      0.07      0.00
   -8   12   14     -0.90      0.00
   -8   12   13      0.89      0.00
   -8   12   12     -1.56      0.00
   -8   12   11     -3.02      0.00
   -8   12   10      0.70      0.00
   -8   12    9      3.47      0.00
   -8   12    8      1.38      0.00
   -8   12    7     -2.04      0.00
   -8   12    6     -1.50      0.00
   -8   12    5      2.97      0.00
   -8   12    4      0.50      0.00
   -8   12    3     -3.92      0.00
   -8   12    2     -3.97      0.00
   -8   12    1      0.99      0.00
    8   12    0      2.09      0.00
    8   12    1      2.86      0.00
    8   12    2     -3.68      0.00
    8   12    3     -0.05      0.00
    8   12    4     -1.06      0.00
    8   12    5      1.98      0.00
    8   12    6     -2.35      0.00
    8   12    7     -0.69      0.00
    8   12    8      0.41      0.00
    8   12    9     -0.94      0.00
    8   12   10     -0.50      0.00
    8   12   11     -0.41      0.00
   -8   14   17      0.61      0.00
   -8   14   16      1.56      0.00
   -8   14   15     -1.63      0.00
   -8   14   14     -0.07      0.00
   -8   14   13      0.60      0.00
   -8   14   12      2.61      0.00
   -8   14   11      1.81      0.00
   -8   14   10     -2.38      0.00
   -8   14    9      1.93      0.00
   -8   14    8      3.40      0.00
   -8   14    7      0.77      0.00
   -8   14    6     -3.79      0.00
   -8   14    5     -3.10      0.00
   -8   14    4      2.80      0.00
   -8   14    3     -0.77      0.00
   -8   14    2     -4.66      0.00
   -8   14    1     -3.52      0.00
    8   14    0      1.06      0.00
    8   14    1     -1.64      0.00
    8   14    2     -1.13      0.00
    8   14    3      0.72      0.00
    8   14    4      2.20      0.00
    8   14    5     -0.72      0.00
    8   14    6      1.71      0.00
    8   14    7     -1.66      0.00
    8   14    8      1.30      0.00
    8   14    9     -0.09      0.00
    8   14   10      1.42      0.00
   -8   16   16      0.98      0.00
   -8   16   15      0.80      0.00
   -8   16   14      0.21      0.00
   -8   16   13     -1.64      0.00
   -8   16   12      0.47      0.00
   -8   16   11      1.16      0.00
   -8   16   10      0.92      0.00
   -8   16    9     -2.88      0.00
   -8   16    8     -1.23      0.00
   -8   16    7      1.01      0.00
   -8   16    6     -1.79      0.00
   -8   16    5     -2.55      0.00
   -8   16    4     -1.93      0.00
   -8   16    3      1.81      0.00
   -8   16    2      1.86      0.00
   -8   16    1     -1.63      0.00
    8   16    0      0.93      0.00
    8   16    1     -2.01      0.00
    8   16    2      2.59      0.00
    8   16    3     -0.57      0.00
    8   16    4      0.77      0.00
    8   16    5     -1.60      0.00
    8   16    6     -3.81      0.00
    8   16    7     -1.13      0.00
    8   16    8     -0.30      0.00
    8   16    9      0.60      0.00
   -8   18   15      0.80      0.00
   -8   18   14      0.74      0.00
   -8   18   13      0.40      0.00
   -8   18   12     -2.04      0.00
   -8   18   11     -1.44      0.00
   -8   18   10     -0.21      0.00
   -8   18    9     -0.69      0.00
   -8   18    8     -0.36      0.00
   -8   18    7     -0.34      0.00
   -8   18    6      0.45      0.00
   -8   18    5      0.29      0.00
   -8   18    4      0.10      0.00
   -8   18    3      1.78      0.00
   -8   18    2      0.83      0.00
   -8   18    1      2.48      0.00
    8   18    0      0.58      0.00
    8   18    1     -1.29      0.00
    8   18    2      1.59      0.00
    8   18    3      1.25      0.00
    8   18    4      0.59      0.00
    8   18    5     -0.10      0.00
    8   18    6      0.81      0.00
    8   18    7      3.26      0.00
    8   18    8      0.57      0.00
   -8   20    9      0.54      0.00
   -8   20    8      0.57      0.00
   -8   20    7      1.04      0.00
   -8   20    6      1.27      0.00
   -8   20    5     -0.08      0.00
   -8   20    4      0.66      0.00
   -8   20    3      1.37      0.00
   -8   20    2      0.12      0.00
   -8   20    1      0.70      0.00
    8   20    0     -1.24      0.00
    8   20    1     -0.10      0.00
    8   20    2      0.06      0.00
    8   20    3      0.27      0.00
    8   20    4     -2.22      0.00
    8   20    5      0.60      0.00
    8   20    6      0.17      0.00
   -8   22    6      0.96      0.00
   -8   22    5      0.24      0.00
   -8   22    4      0.03      0.00
   -8   22    3     -1.33      0.00
   -8   22    2     -0.72      0.00
   -8   22    1     -2.13      0.00
    8   22    0     -0.76      0.00
    8   22    1      2.71      0.00
   -9    1   20      0.13      0.00
   -9    1   19      0.62      0.00
   -9    1   18      0.75      0.00
   -9    1   17      0.10      0.00
   -9    1   16     -0.66      0.00
   -9    1   15     -1.56      0.00
   -9    1   14      1.66      0.00
   -9    1   13      2.79      0.00
   -9    1   12     -2.70      0.00
   -9    1   11     -2.95      0.00
   -9    1   10      0.10      0.00
   -9    1    9      8.69      0.00
   -9    1    8    -10.78      0.00
   -9    1    7      1.76      0.00
   -9    1    6      4.00      0.00
   -9    1    5     15.70      0.00
   -9    1    4     -5.22      0.00
   -9    1    3     -3.31      0.00
   -9    1    2     13.23      0.00
   -9    1    1      3.81      0.00
    9    1    0      1.97      0.00
    9    1    1      2.12      0.00
    9    1    2      3.75      0.00
    9    1    3      0.01      0.00
    9    1    4     -1.10      0.00
    9    1    5     -0.87      0.00
    9    1    6     -1.66      0.00
    9    1    7      0.84      0.00
    9    1    8     -1.34      0.00
    9    1    9      0.18      0.00
    9    1   10     -0.63      0.00
    9    1   11     -0.13      0.00
    9    1   12     -0.20      0.00
    9    1   13     -1.09      0.00
    9    1   14     -0.00      0.00
   -9    3   20     -0.24      0.00
   -9    3   19     -0.45      0.00
   -9    3   18      0.13      0.00
   -9    3   17     -0.55      0.00
   -9    3   16      0.36      0.00
   -9    3   15     -1.70      0.00
   -9    3   14     -1.86      0.00
   -9    3   13     -1.24      0.00
   -9    3   12      3.26      0.00
   -9    3   11     -3.22      0.00
   -9    3   10     -1.36      0.00
   -9    3    9     -1.00      0.00
   -9    3    8     10.22      0.00
   -9    3    7     -4.44      0.00
   -9    3    6     -0.52      0.00
   -9    3    5     11.15      0.00
   -9    3    4      3.29      0.00
   -9    3    3     -1.24      0.00
   -9    3    2     -9.43      0.00
   -9    3    1      4.68      0.00
    9    3    0     -6.15      0.00
    9    3    1      8.10      0.00
    9    3    2     -2.43      0.00
    9    3    3      2.61      0.00
    9    3    4     -0.19      0.00
    9    3    5      2.87      0.00
    9    3    6      2.37      0.00
    9    3    7      0.28      0.00
    9    3    8      0.39      0.00
    9    3    9      0.01      0.00
    9    3   10      1.27      0.00
    9    3   11     -0.56      0.00
    9    3   12     -0.37      0.00
    9    3   13      0.11      0.00
    9    3   14      0.41      0.00
    9    3   15     -0.52      0.00
   -9    5   21      0.07      0.00
   -9    5   20     -1.45      0.00
   -9    5   19      0.50      0.00
   -9    5   18      0.04      0.00
   -9    5   17     -0.24      0.00
   -9    5   16      0.19      0.00
   -9    5   15      3.04      0.00
   -9    5   14      0.05      0.00
   -9    5   13      0.05      0.00
   -9    5   12     -0.78      0.00
   -9    5   11      1.65      0.00
   -9    5   10      3.28      0.00
   -9    5    9     -2.56      0.00
   -9    5    8      2.70      0.00
   -9    5    7      3.24      0.00
   -9    5    6     -2.00      0.00
   -9    5    5     -3.45      0.00
   -9    5    4      3.20      0.00
   -9    5    3     -2.27      0.00
   -9    5    2     -6.70      0.00
   -9    5    1      0.32      0.00
    9    5    0      2.33      0.00
    9    5    1      0.57      0.00
    9    5    2     -1.82      0.00
    9    5    3     -1.49      0.00
    9    5    4      1.33      0.00
    9    5    5     -0.52      0.00
    9    5    6     -0.54      0.00
    9    5    7     -2.08      0.00
    9    5    8      0.43      0.00
    9    5    9      0.89      0.00
    9    5   10      0.52      0.00
    9    5   11     -0.05      0.00
    9    5   12      0.13      0.00
    9    5   13      0.14      0.00
    9    5   14      0.08      0.00
    9    5   15     -1.02      0.00
   -9    7   21     -0.91      0.00
   -9    7   20     -1.24      0.00
   -9    7   19      0.57      0.00
   -9    7   18      2.28      0.00
   -9    7   17      0.51      0.00
   -9    7   16     -1.46      0.00
   -9    7   15     -3.10      0.00
   -9    7   14     -0.27      0.00
   -9    7   13      0.50      0.00
   -9    7   12     -0.65      0.00
   -9    7   11      1.52      0.00
   -9    7   10      0.60      0.00
   -9    7    9      4.38      0.00
   -9    7    8     -1.37      0.00
   -9    7    7     -2.79      0.00
   -9    7    6     -1.99      0.00
   -9    7    5     -6.66      0.00
   -9    7    4     -1.29      0.00
   -9    7    3     -2.48      0.00
   -9    7    2     -3.27      0.00
   -9    7    1     -2.94      0.00
    9    7    0      2.16      0.00
    9    7    1     -3.76      0.00
    9    7    2     -0.76      0.00
    9    7    3     -3.38      0.00
    9    7    4      1.39      0.00
    9    7    5     -1.29      0.00
    9    7    6      0.18      0.00
    9    7    7     -0.36      0.00
    9    7    8      0.60      0.00
    9    7    9      0.09      0.00
    9    7   10     -0.79      0.00
    9    7   11     -0.40      0.00
    9    7   12      0.68      0.00
    9    7   13      1.34      0.00
   -9    9   21     -0.36      0.00
   -9    9   20      0.39      0.00
   -9    9   19     -0.83      0.00
   -9    9   18     -0.97      0.00
   -9    9   17      1.09      0.00
   -9    9   16      0.34      0.00
   -9    9   15      0.93      0.00
   -9    9   14     -0.75      0.00
   -9    9   13      1.38      0.00
   -9    9   12      2.27      0.00
   -9    9   11     -1.62      0.00
   -9    9   10     -2.16      0.00
   -9    9    9     -1.63      0.00
   -9    9    8     -1.32      0.00
   -9    9    7     -1.17      0.00
   -9    9    6     -3.70      0.00
   -9    9    5     -1.66      0.00
   -9    9    4      2.62      0.00
   -9    9    3      3.42      0.00
   -9    9    2      2.68      0.00
   -9    9    1      0.52      0.00
    9    9    0      3.49      0.00
    9    9    1     -1.56      0.00
    9    9    2     -0.26      0.00
    9    9    3      2.42      0.00
    9    9    4      1.06      0.00
    9    9    5      1.13      0.00
    9    9    6     -1.87      0.00
    9    9    7      0.65      0.00
    9    9    8      0.80      0.00
    9    9    9     -0.21      0.00
    9    9   10      0.02      0.00
    9    9   11      0.67      0.00
   -9   11   18      0.91      0.00
   -9   11   17      0.16      0.00
   -9   11   16      0.58      0.00
   -9   11   15      0.84      0.00
   -9   11   14     -0.34      0.00
   -9   11   13     -0.81      0.00
   -9   11   12      1.45      0.00
   -9   11   11      1.00      0.00
   -9   11   10     -2.64      0.00
   -9   11    9     -2.95      0.00
   -9   11    8      0.96      0.00
   -9   11    7      3.49      0.00
   -9   11    6      1.20      0.00
   -9   11    5      0.21      0.00
   -9   11    4      1.02      0.00
   -9   11    3      5.54      0.00
   -9   11    2      1.86      0.00
   -9   11    1     -1.75      0.00
    9   11    0     -0.40      0.00
    9   11    1     -2.76      0.00
    9   11    2      1.27      0.00
    9   11    3      0.70      0.00
    9   11    4     -0.24      0.00
    9   11    5     -2.91      0.00
    9   11    6     -0.25      0.00
    9   11    7      1.25      0.00
    9   11    8     -0.91      0.00
    9   11    9     -0.24      0.00
    9   11   10     -0.49      0.00
   -9   13   17     -1.52      0.00
   -9   13   16      1.07      0.00
   -9   13   15     -0.28      0.00
   -9   13   14      0.25      0.00
   -9   13   13     -2.47      0.00
   -9   13   12     -2.74      0.00
   -9   13   11      1.69      0.00
   -9   13   10      1.10      0.00
   -9   13    9     -1.45      0.00
   -9   13    8     -1.92      0.00
   -9   13    7      2.81      0.00
   -9   13    6      4.90      0.00
   -9   13    5     -0.21      0.00
   -9   13    4     -1.36      0.00
   -9   13    3      0.49      0.00
   -9   13    2      3.19      0.00
   -9   13    1     -0.34      0.00
    9   13    0     -3.80      0.00
    9   13    1      2.41      0.00
    9   13    2      0.86      0.00
    9   13    3      1.73      0.00
    9   13    4     -2.75      0.00
    9   13    5      1.39      0.00
    9   13    6     -0.26      0.00
    9   13    7      1.04      0.00
    9   13    8     -0.04      0.00
    9   13    9      1.27      0.00
   -9   15   16     -1.06      0.00
   -9   15   15      0.32      0.00
   -9   15   14      0.71      0.00
   -9   15   13      0.70      0.00
   -9   15   12     -0.26      0.00
   -9   15   11     -1.72      0.00
   -9   15   10      3.10      0.00
   -9   15    9      2.29      0.00
   -9   15    8     -0.42      0.00
   -9   15    7     -0.51      0.00
   -9   15    6      0.80      0.00
   -9   15    5      2.05      0.00
   -9   15    4     -2.19      0.00
   -9   15    3     -3.51      0.00
   -9   15    2     -1.30      0.00
   -9   15    1     -0.10      0.00
    9   15    0     -0.73      0.00
    9   15    1      3.24      0.00
    9   15    2     -0.68      0.00
    9   15    3     -1.36      0.00
    9   15    4     -0.70      0.00
    9   15    5     -1.93      0.00
    9   15    6      1.02      0.00
    9   15    7     -0.61      0.00
    9   15    8      0.58      0.00
   -9   17   15     -0.74      0.00
   -9   17   14     -1.30      0.00
   -9   17   13      1.53      0.00
   -9   17   12      1.47      0.00
   -9   17   11      1.21      0.00
   -9   17   10     -0.16      0.00
   -9   17    9      0.16      0.00
   -9   17    8      0.36      0.00
   -9   17    7     -2.11      0.00
   -9   17    6     -0.95      0.00
   -9   17    5     -0.99      0.00
   -9   17    4     -1.82      0.00
   -9   17    3     -0.00      0.00
   -9   17    2     -2.81      0.00
   -9   17    1      0.40      0.00
    9   17    0      0.21      0.00
    9   17    1      0.41      0.00
    9   17    2      0.52      0.00
    9   17    3     -0.67      0.00
    9   17    4      1.25      0.00
    9   17    5      1.54      0.00
    9   17    6      2.97      0.00
    9   17    7     -0.08      0.00
   -9   19   14     -0.80      0.00
   -9   19   13     -1.52      0.00
   -9   19   12     -0.76      0.00
   -9   19   10     -0.55      0.00
   -9   19    9     -0.08      0.00
   -9   19    8     -1.40      0.00
   -9   19    7     -1.21      0.00
   -9   19    6     -0.31      0.00
   -9   19    5      0.25      0.00
   -9   19    4      0.17      0.00
   -9   19    3     -0.53      0.00
   -9   19    2      1.53      0.00
   -9   19    1      1.35      0.00
    9   19    0      1.67      0.00
    9   19    1     -1.27      0.00
    9   19    2     -1.03      0.00
    9   19    3     -2.51      0.00
    9   19    4      0.10      0.00
    9   19    5      0.36      0.00
    9   19    6     -1.68      0.00
   -9   21    7     -0.32      0.00
   -9   21    6     -0.78      0.00
   -9   21    5      0.94      0.00
   -9   21    4      2.08      0.00
   -9   21    3      0.56      0.00
   -9   21    2      2.31      0.00
   -9   21    1     -0.01      0.00
    9   21    0      1.99      0.00
    9   21    1     -1.14      0.00
    9   21    2     -0.73      0.00
    9   21    3      1.61      0.00
    9   21    4      0.37      0.00
    9   21    5      0.27      0.00
   -9   23    2     -1.05      0.00
   -9   23    1     -0.30      0.00
    9   23    0     -2.24      0.00
  -10    0   20     -0.27      0.00
  -10    0   18     -0.47      0.00
  -10    0   16      2.16      0.00
  -10    0   14     -2.01      0.00
  -10    0   12      3.80      0.00
  -10    0   10     -6.36      0.00
  -10    0    8     -0.89      0.00
  -10    0    6    -17.53      0.00
  -10    0    4      2.77      0.00
  -10    0    2     -6.25      0.00
   10    0    0      5.35      0.00
   10    0    2      0.29      0.00
   10    0    4     -0.12      0.00
   10    0    6      1.28      0.00
   10    0    8      0.26      0.00
   10    0   10     -0.23      0.00
   10    0   12     -1.02      0.00
  -10    2   20      1.00      0.00
  -10    2   19      0.45      0.00
  -10    2   18     -0.19      0.00
  -10    2   17     -0.68      0.00
  -10    2   16     -0.23      0.00
  -10    2   15      2.16      0.00
  -10    2   14      1.57      0.00
  -10    2   13     -2.42      0.00
  -10    2   12      0.34      0.00
  -10    2   11      1.03      0.00
  -10    2   10      3.23      0.00
  -10    2    9     -9.97      0.00
  -10    2    8      3.51      0.00
  -10    2    7      1.88      0.00
  -10    2    6      0.52      0.00
  -10    2    5     -5.74      0.00
  -10    2    4     -0.06      0.00
  -10    2    3     13.50      0.00
  -10    2    2     -1.88      0.00
  -10    2    1      3.22      0.00
   10    2    0      3.54      0.00
   10    2    1     -5.48      0.00
   10    2    2      0.85      0.00
   10    2    3      0.69      0.00
   10    2    4      1.98      0.00
   10    2    5      2.22      0.00
   10    2    6     -0.59      0.00
   10    2    7      1.07      0.00
   10    2    8      0.40      0.00
   10    2    9      1.17      0.00
   10    2   10     -0.47      0.00
   10    2   11      0.10      0.00
   10    2   12      0.62      0.00
   10    2   13     -0.16      0.00
   10    2   14     -0.47      0.00
  -10    4   21      0.97      0.00
  -10    4   20      0.17      0.00
  -10    4   19     -0.14      0.00
  -10    4   18     -0.03      0.00
  -10    4   17      0.08      0.00
  -10    4   16     -2.07      0.00
  -10    4   15     -1.41      0.00
  -10    4   14     -0.07      0.00
  -10    4   13      1.32      0.00
  -10    4   12     -2.72      0.00
  -10    4   11     -2.02      0.00
  -10    4   10      0.60      0.00
  -10    4    9      1.13      0.00
  -10    4    8     -3.78      0.00
  -10    4    7      1.20      0.00
  -10    4    6      8.10      0.00
  -10    4    5     -2.13      0.00
  -10    4    4      0.66      0.00
  -10    4    3      1.58      0.00
  -10    4    2      4.61      0.00
  -10    4    1     -4.51      0.00
   10    4    0     -4.42      0.00
   10    4    1     -1.63      0.00
   10    4    2     -1.90      0.00
   10    4    3      1.56      0.00
   10    4    4     -2.05      0.00
   10    4    5     -1.23      0.00
   10    4    6     -1.33      0.00
   10    4    7      0.87      0.00
   10    4    8      0.31      0.00
   10    4    9     -0.47      0.00
   10    4   10      0.14      0.00
   10    4   11      0.62      0.00
   10    4   12      0.18      0.00
   10    4   13      0.11      0.00
   10    4   14     -0.34      0.00
  -10    6   20      0.73      0.00
  -10    6   19     -1.46      0.00
  -10    6   18     -2.17      0.00
  -10    6   17      1.01      0.00
  -10    6   16      3.00      0.00
  -10    6   15      0.44      0.00
  -10    6   14      0.16      0.00
  -10    6   13      0.41      0.00
  -10    6   12     -0.83      0.00
  -10    6   11      0.90      0.00
  -10    6   10     -4.22      0.00
  -10    6    9      2.77      0.00
  -10    6    8      1.76      0.00
  -10    6    7      1.08      0.00
  -10    6    6      4.67      0.00
  -10    6    5      2.97      0.00
  -10    6    4     -0.23      0.00
  -10    6    3     -1.79      0.00
  -10    6    2      3.56      0.00
  -10    6    1     -1.18      0.00
   10    6    0     -4.46      0.00
   10    6    1      1.10      0.00
   10    6    2     -0.82      0.00
   10    6    3      0.75      0.00
   10    6    4     -1.85      0.00
   10    6    5     -0.02      0.00
   10    6    6      0.71      0.00
   10    6    7     -0.01      0.00
   10    6    8     -0.22      0.00
   10    6    9     -1.19      0.00
   10    6   10     -0.08      0.00
   10    6   11      0.08      0.00
   10    6   12      0.53      0.00
   10    6   13     -0.55      0.00
  -10    8   19      2.11      0.00
  -10    8   18     -0.30      0.00
  -10    8   17     -1.08      0.00
  -10    8   16     -1.85      0.00
  -10    8   15      0.44      0.00
  -10    8   14     -0.99      0.00
  -10    8   13     -1.99      0.00
  -10    8   12      1.31      0.00
  -10    8   11      1.46      0.00
  -10    8   10      4.01      0.00
  -10    8    9      0.75      0.00
  -10    8    8      0.10      0.00
  -10    8    7      1.80      0.00
  -10    8    6     -1.02      0.00
  -10    8    5     -0.81      0.00
  -10    8    4     -4.79      0.00
  -10    8    3     -4.90      0.00
  -10    8    2     -1.70      0.00
  -10    8    1     -0.83      0.00
   10    8    0     -0.78      0.00
   10    8    1      1.91      0.00
   10    8    2      3.77      0.00
   10    8    3     -1.08      0.00
   10    8    4      0.59      0.00
   10    8    5     -1.14      0.00
   10    8    6      1.41      0.00
   10    8    7      0.49      0.00
   10    8    8     -0.04      0.00
   10    8    9      0.18      0.00
   10    8   10      0.60      0.00
   10    8   11     -0.16      0.00
  -10   10   18      0.63      0.00
  -10   10   17     -0.94      0.00
  -10   10   16     -0.15      0.00
  -10   10   15     -0.91      0.00
  -10   10   14      1.94      0.00
  -10   10   13      0.86      0.00
  -10   10   12     -1.35      0.00
  -10   10   11      0.63      0.00
  -10   10   10      2.07      0.00
  -10   10    9      0.23      0.00
  -10   10    8     -3.13      0.00
  -10   10    7     -4.67      0.00
  -10   10    6     -1.98      0.00
  -10   10    5      0.92      0.00
  -10   10    4     -3.29      0.00
  -10   10    3     -1.67      0.00
  -10   10    2      0.20      0.00
  -10   10    1      2.93      0.00
   10   10    0      0.50      0.00
   10   10    1      1.47      0.00
   10   10    2      0.06      0.00
   10   10    3     -2.12      0.00
   10   10    4     -0.99      0.00
   10   10    5      1.10      0.00
   10   10    6      0.97      0.00
   10   10    7     -1.22      0.00
   10   10    8     -0.86      0.00
   10   10    9     -0.59      0.00
   10   10   10     -0.89      0.00
  -10   12   17      0.08      0.00
  -10   12   16      0.28      0.00
  -10   12   15     -0.22      0.00
  -10   12   14      1.08      0.00
  -10   12   13      2.68      0.00
  -10   12   12      0.11      0.00
  -10   12   11     -3.01      0.00
  -10   12   10     -1.48      0.00
  -10   12    9      1.50      0.00
  -10   12    8      0.09      0.00
  -10   12    7     -3.80      0.00
  -10   12    6     -1.24      0.00
  -10   12    5      1.46      0.00
  -10   12    4      3.78      0.00
  -10   12    3     -0.47      0.00
  -10   12    2      0.01      0.00
  -10   12    1      3.12      0.00
   10   12    0      4.47      0.00
   10   12    1     -0.57      0.00
   10   12    2     -0.52      0.00
   10   12    3     -1.71      0.00
   10   12    4      2.21      0.00
   10   12    5      0.76      0.00
   10   12    6     -0.09      0.00
   10   12    7     -0.18      0.00
   10   12    8      0.84      0.00
   10   12    9      0.75      0.00
  -10   14   16     -0.54      0.00
  -10   14   15     -0.04      0.00
  -10   14   14     -1.60      0.00
  -10   14   13     -0.52      0.00
  -10   14   12      1.33      0.00
  -10   14   11     -1.61      0.00
  -10   14   10     -2.74      0.00
  -10   14    9     -0.68      0.00
  -10   14    8      2.33      0.00
  -10   14    7      2.03      0.00
  -10   14    6     -1.11      0.00
  -10   14    5      1.88      0.00
  -10   14    4      2.70      0.00
  -10   14    3      3.33      0.00
  -10   14    2     -0.22      0.00
  -10   14    1     -1.94      0.00
   10   14    0      1.18      0.00
   10   14    1     -1.81      0.00
   10   14    2     -2.88      0.00
   10   14    3      2.00      0.00
   10   14    4     -0.81      0.00
   10   14    5      1.09      0.00
   10   14    6     -1.29      0.00
   10   14    7      0.28      0.00
   10   14    8     -1.48      0.00
  -10   16   16      0.75      0.00
  -10   16   15      0.91      0.00
  -10   16   14     -0.30      0.00
  -10   16   13     -1.09      0.00
  -10   16   12     -1.33      0.00
  -10   16   11      0.92      0.00
  -10   16   10     -0.02      0.00
  -10   16    9     -0.14      0.00
  -10   16    8      2.24      0.00
  -10   16    7      1.46      0.00
  -10   16    6      1.46      0.00
  -10   16    5      0.38      0.00
  -10   16    4     -0.77      0.00
  -10   16    3      0.54      0.00
  -10   16    2     -0.41      0.00
  -10   16    1     -1.31      0.00
   10   16    0     -2.28      0.00
   10   16    1     -0.75      0.00
   10   16    2      0.39      0.00
   10   16    3      1.87      0.00
   10   16    4      0.66      0.00
   10   16    5      1.14      0.00
   10   16    6     -0.48      0.00
   10   16    7     -0.95      0.00
  -10   18   15     -0.46      0.00
  -10   18   14      1.76      0.00
  -10   18   13      0.75      0.00
  -10   18   12      0.92      0.00
  -10   18   11      0.58      0.00
  -10   18   10     -0.21      0.00
  -10   18    9      1.03      0.00
  -10   18    8     -0.16      0.00
  -10   18    7      0.92      0.00
  -10   18    6     -1.24      0.00
  -10   18    5     -1.98      0.00
  -10   18    4      0.91      0.00
  -10   18    3     -2.79      0.00
  -10   18    2     -0.66      0.00
  -10   18    1     -1.72      0.00
   10   18    0     -1.98      0.00
   10   18    1     -0.58      0.00
   10   18    2     -0.32      0.00
   10   18    3     -0.31      0.00
   10   18    4      0.51      0.00
   10   18    5     -2.33      0.00
  -10   20    8     -0.19      0.00
  -10   20    7      0.31      0.00
  -10   20    6     -0.22      0.00
  -10   20    5     -2.08      0.00
  -10   20    4     -1.37      0.00
  -10   20    3     -0.14      0.00
  -10   20    2     -0.10      0.00
  -10   20    1     -0.00      0.00
   10   20    0     -0.42      0.00
   10   20    1      0.14      0.00
   10   20    2      3.02      0.00
   10   20    3      0.57      0.00
   10   20    4     -0.20      0.00
  -10   22    2      0.14      0.00
  -10   22    1      2.37      0.00
  -11    1   20     -0.86      0.00
  -11    1   19     -0.06      0.00
  -11    1   18      0.88      0.00
  -11    1   17      1.47      0.00
  -11    1   16     -1.08      0.00
  -11    1   15     -1.58      0.00
  -11    1   14      0.66      0.00
  -11    1   13      1.92      0.00
  -11    1   12     -1.04      0.00
  -11    1   11     -3.54      0.00
  -11    1   10      5.16      0.00
  -11    1    9     -1.43      0.00
  -11    1    8     -0.31      0.00
  -11    1    7     -9.04      0.00
  -11    1    6      4.31      0.00
  -11    1    5      0.86      0.00
  -11    1    4     -8.11      0.00
  -11    1    3     -3.24      0.00
  -11    1    2     -0.90      0.00
  -11    1    1      2.45      0.00
   11    1    0     -5.11      0.00
   11    1    1      0.34      0.00
   11    1    2      0.83      0.00
   11    1    3      0.40      0.00
   11    1    4      1.11      0.00
   11    1    5     -0.93      0.00
   11    1    6      1.12      0.00
   11    1    7      0.19      0.00
   11    1    8      0.51      0.00
   11    1    9      0.12      0.00
   11    1   10      0.31      0.00
   11    1   11      0.88      0.00
   11    1   12     -0.20      0.00
   11    1   13      0.29      0.00
  -11    3   21      0.11      0.00
  -11    3   20     -0.22      0.00
  -11    3   19     -0.31      0.00
  -11    3   18     -0.11      0.00
  -11    3   17      0.62      0.00
  -11    3   16      2.24      0.00
  -11    3   15      0.45      0.00
  -11    3   14     -1.54      0.00
  -11    3   13      1.99      0.00
  -11    3   12      1.79      0.00
  -11    3   11      1.34      0.00
  -11    3   10     -4.25      0.00
  -11    3    9      3.69      0.00
  -11    3    8     -0.44      0.00
  -11    3    7     -5.18      0.00
  -11    3    6     -2.23      0.00
  -11    3    5     -0.26      0.00
  -11    3    4      5.24      0.00
  -11    3    3     -6.21      0.00
  -11    3    2      3.59      0.00
  -11    3    1      5.23      0.00
   11    3    0      2.35      0.00
   11    3    1     -0.35      0.00
   11    3    2      0.84      0.00
   11    3    3     -3.19      0.00
   11    3    4     -1.45      0.00
   11    3    5     -0.55      0.00
   11    3    6      0.04      0.00
   11    3    7     -0.77      0.00
   11    3    8     -1.27      0.00
   11    3    9      0.19      0.00
   11    3   10      0.20      0.00
   11    3   11     -0.09      0.00
   11    3   12      0.50      0.00
   11    3   13      0.12      0.00
  -11    5   21     -0.35      0.00
  -11    5   20     -0.07      0.00
  -11    5   19      1.95      0.00
  -11    5   18     -0.29      0.00
  -11    5   17     -1.73      0.00
  -11    5   16     -1.39      0.00
  -11    5   15      0.61      0.00
  -11    5   14     -0.36      0.00
  -11    5   13     -0.80      0.00
  -11    5   12     -0.90      0.00
  -11    5   11      2.12      0.00
  -11    5   10     -1.79      0.00
  -11    5    9     -2.11      0.00
  -11    5    8     -0.54      0.00
  -11    5    7      0.38      0.00
  -11    5    6     -3.84      0.00
  -11    5    5      1.14      0.00
  -11    5    4      3.51      0.00
  -11    5    3      0.38      0.00
  -11    5    2     -1.49      0.00
  -11    5    1      1.98      0.00
   11    5    0      3.47      0.00
   11    5    1      0.91      0.00
   11    5    2     -1.17      0.00
   11    5    3     -0.76      0.00
   11    5    4      0.59      0.00
   11    5    5      1.44      0.00
   11    5    6     -0.78      0.00
   11    5    7     -0.09      0.00
   11    5    8     -0.70      0.00
   11    5    9      0.29      0.00
   11    5   10     -0.37      0.00
   11    5   11      0.20      0.00
   11    5   12     -0.58      0.00
   11    5   13      0.35      0.00
  -11    7   20     -2.49      0.00
  -11    7   19     -2.09      0.00
  -11    7   18      1.83      0.00
  -11    7   17      1.61      0.00
  -11    7   16      0.35      0.00
  -11    7   15      0.72      0.00
  -11    7   14      1.61      0.00
  -11    7   13     -1.65      0.00
  -11    7   12     -0.22      0.00
  -11    7   11     -4.69      0.00
  -11    7   10      0.01      0.00
  -11    7    9     -0.27      0.00
  -11    7    8     -0.31      0.00
  -11    7    7      3.30      0.00
  -11    7    6      0.48      0.00
  -11    7    5      3.62      0.00
  -11    7    4      3.64      0.00
  -11    7    3      3.83      0.00
  -11    7    2     -0.96      0.00
  -11    7    1     -1.94      0.00
   11    7    0      2.37      0.00
   11    7    1      2.50      0.00
   11    7    2     -2.37      0.00
   11    7    3      2.15      0.00
   11    7    4      0.19      0.00
   11    7    5      1.03      0.00
   11    7    6     -0.08      0.00
   11    7    7     -0.37      0.00
   11    7    8      0.50      0.00
   11    7    9      0.46      0.00
   11    7   10      0.11      0.00
   11    7   11     -0.58      0.00
  -11    9   18      0.27      0.00
  -11    9   17     -0.14      0.00
  -11    9   16      1.06      0.00
  -11    9   15     -1.68      0.00
  -11    9   14     -1.72      0.00
  -11    9   13      0.72      0.00
  -11    9   12      0.15      0.00
  -11    9   11      1.07      0.00
  -11    9   10     -0.26      0.00
  -11    9    9      1.49      0.00
  -11    9    8      5.42      0.00
  -11    9    7      2.40      0.00
  -11    9    6     -0.17      0.00
  -11    9    5     -0.91      0.00
  -11    9    4     -0.53      0.00
  -11    9    3      0.12      0.00
  -11    9    2     -3.01      0.00
  -11    9    1     -3.10      0.00
   11    9    0     -0.98      0.00
   11    9    1     -2.16      0.00
   11    9    2     -1.30      0.00
   11    9    3      1.15      0.00
   11    9    4      1.19      0.00
   11    9    5     -0.59      0.00
   11    9    6     -1.45      0.00
   11    9    7     -1.15      0.00
   11    9    8      0.04      0.00
   11    9    9     -0.66      0.00
  -11   11   17     -0.11      0.00
  -11   11   16     -0.63      0.00
  -11   11   15      0.50      0.00
  -11   11   14     -1.42      0.00
  -11   11   13     -1.22      0.00
  -11   11   12      2.33      0.00
  -11   11   11      3.18      0.00
  -11   11   10      0.68      0.00
  -11   11    9     -2.12      0.00
  -11   11    8     -0.23      0.00
  -11   11    7      1.10      0.00
  -11   11    6     -0.66      0.00
  -11   11    5     -5.32      0.00
  -11   11    4     -1.85      0.00
  -11   11    3     -0.69      0.00
  -11   11    2     -0.67      0.00
  -11   11    1     -3.12      0.00
   11   11    0     -2.33      0.00
   11   11    1     -1.56      0.00
   11   11    2      1.29      0.00
   11   11    3      1.20      0.00
   11   11    4     -0.00      0.00
   11   11    5     -1.01      0.00
   11   11    6      0.18      0.00
   11   11    7      1.48      0.00
   11   11    8      1.16      0.00
  -11   13   17      0.27      0.00
  -11   13   16      0.00      0.00
  -11   13   15      1.71      0.00
  -11   13   14      1.22      0.00
  -11   13   13     -0.02      0.00
  -11   13   12     -0.79      0.00
  -11   13   11      1.56      0.00
  -11   13   10      1.43      0.00
  -11   13    9     -1.81      0.00
  -11   13    8     -4.41      0.00
  -11   13    7     -0.53      0.00
  -11   13    6     -0.79      0.00
  -11   13    5     -0.70      0.00
  -11   13    4     -2.73      0.00
  -11   13    3      0.35      0.00
  -11   13    2      3.29      0.00
  -11   13    1      2.77      0.00
   11   13    0     -1.85      0.00
   11   13    1     -1.71      0.00
   11   13    2      3.29      0.00
   11   13    3     -1.82      0.00
   11   13    4      0.15      0.00
   11   13    5     -1.19      0.00
   11   13    6      0.48      0.00
   11   13    7     -0.84      0.00
  -11   15   16     -0.15      0.00
  -11   15   15     -0.81      0.00
  -11   15   14      0.83      0.00
  -11   15   13      0.29      0.00
  -11   15   12     -1.09      0.00
  -11   15   11     -0.76      0.00
  -11   15   10      0.04      0.00
  -11   15    9     -0.69      0.00
  -11   15    8     -0.90      0.00
  -11   15    7     -1.71      0.00
  -11   15    6      1.58      0.00
  -11   15    5      1.34      0.00
  -11   15    4      2.00      0.00
  -11   15    3      0.30      0.00
  -11   15    2      0.68      0.00
  -11   15    1      3.64      0.00
   11   15    0      0.50      0.00
   11   15    1      3.79      0.00
   11   15    2      0.38      0.00
   11   15    3     -0.28      0.00
   11   15    4     -0.02      0.00
   11   15    5     -0.09      0.00
   11   15    6     -0.50      0.00
  -11   17   15     -0.63      0.00
  -11   17   14     -0.82      0.00
  -11   17   13     -1.07      0.00
  -11   17   12     -0.88      0.00
  -11   17   11     -0.35      0.00
  -11   17   10     -0.04      0.00
  -11   17    9      1.52      0.00
  -11   17    8     -0.57      0.00
  -11   17    7      1.52      0.00
  -11   17    6      1.94      0.00
  -11   17    5     -0.09      0.00
  -11   17    4      1.74      0.00
  -11   17    3      0.21      0.00
  -11   17    2      0.32      0.00
  -11   17    1      0.34      0.00
   11   17    0      1.87      0.00
   11   17    1      0.87      0.00
   11   17    2     -1.84      0.00
   11   17    3      0.76      0.00
   11   17    4     -2.08      0.00
   11   17    5      0.41      0.00
  -11   19    8      1.13      0.00
  -11   19    7     -1.04      0.00
  -11   19    6      0.52      0.00
  -11   19    5      2.35      0.00
  -11   19    4     -1.92      0.00
  -11   19    3      0.14      0.00
  -11   19    2     -1.59      0.00
  -11   19    1     -0.77      0.00
   11   19    0      0.29      0.00
   11   19    1      1.61      0.00
   11   19    2     -0.36      0.00
   11   19    3     -0.94      0.00
   11   19    4      0.49      0.00
  -11   21    1     -0.94      0.00
   11   21    0      0.37      0.00
   11   21    1     -1.43      0.00
   11   21    2     -1.53      0.00
  -12    0   20      0.50      0.00
  -12    0   18     -1.77      0.00
  -12    0   16      1.55      0.00
  -12    0   14     -1.81      0.00
  -12    0   12      2.87      0.00
  -12    0   10     -0.25      0.00
  -12    0    8      8.36      0.00
  -12    0    6     -0.45      0.00
  -12    0    4      5.35      0.00
  -12    0    2     -3.91      0.00
   12    0    0      1.23      0.00
   12    0    2     -1.19      0.00
   12    0    4     -0.51      0.00
   12    0    6     -0.50      0.00
   12    0    8      0.61      0.00
   12    0   10      1.00      0.00
   12    0   12      0.86      0.00
  -12    2   22     -0.59      0.00
  -12    2   21     -0.20      0.00
  -12    2   20      0.68      0.00
  -12    2   19      0.78      0.00
  -12    2   18      0.06      0.00
  -12    2   17     -1.63      0.00
  -12    2   16     -1.19      0.00
  -12    2   15      0.84      0.00
  -12    2   14      0.05      0.00
  -12    2   13     -2.06      0.00
  -12    2   12     -2.25      0.00
  -12    2   11      4.51      0.00
  -12    2   10     -2.05      0.00
  -12    2    9      1.23      0.00
  -12    2    8     -1.01      0.00
  -12    2    7      4.76      0.00
  -12    2    6      0.86      0.00
  -12    2    5     -7.06      0.00
  -12    2    4      2.40      0.00
  -12    2    3     -1.67      0.00
  -12    2    2     -1.85      0.00
  -12    2    1     -6.03      0.00
   12    2    0      0.22      0.00
   12    2    1     -0.51      0.00
   12    2    2     -2.53      0.00
   12    2    3     -0.59      0.00
   12    2    4      0.03      0.00
   12    2    5     -1.44      0.00
   12    2    6     -1.04      0.00
   12    2    7     -1.07      0.00
   12    2    8      0.09      0.00
   12    2    9     -0.35      0.00
   12    2   10     -0.33      0.00
   12    2   11      0.33      0.00
   12    2   12     -0.37      0.00
  -12    4   21     -0.04      0.00
  -12    4   20     -0.67      0.00
  -12    4   19      0.25      0.00
  -12    4   18      0.38      0.00
  -12    4   17      1.93      0.00
  -12    4   16     -0.92      0.00
  -12    4   15     -0.59      0.00
  -12    4   14      1.93      0.00
  -12    4   13      1.30      0.00
  -12    4   12      0.16      0.00
  -12    4   11     -0.31      0.00
  -12    4   10      2.67      0.00
  -12    4    9      0.34      0.00
  -12    4    8     -2.83      0.00
  -12    4    7      1.07      0.00
  -12    4    6     -1.23      0.00
  -12    4    5     -0.50      0.00
  -12    4    4     -5.17      0.00
  -12    4    3      2.66      0.00
  -12    4    2      1.34      0.00
  -12    4    1     -2.21      0.00
   12    4    0      0.14      0.00
   12    4    1     -2.20      0.00
   12    4    2      2.19      0.00
   12    4    3      1.45      0.00
   12    4    4      1.39      0.00
   12    4    5     -0.83      0.00
   12    4    6      0.79      0.00
   12    4    7      0.71      0.00
   12    4    8      0.50      0.00
   12    4    9     -0.19      0.00
   12    4   10     -0.07      0.00
   12    4   11     -0.95      0.00
   12    4   12     -0.19      0.00
   12    4   13     -0.04      0.00
  -12    6   20      3.25      0.00
  -12    6   19     -1.23      0.00
  -12    6   18     -0.62      0.00
  -12    6   17     -1.35      0.00
  -12    6   16      0.51      0.00
  -12    6   15     -1.73      0.00
  -12    6   14      1.00      0.00
  -12    6   13      0.38      0.00
  -12    6   12      3.12      0.00
  -12    6   11     -0.53      0.00
  -12    6   10      0.09      0.00
  -12    6    9     -0.67      0.00
  -12    6    8     -2.38      0.00
  -12    6    7     -2.37      0.00
  -12    6    6     -1.51      0.00
  -12    6    5     -0.96      0.00
  -12    6    4     -3.09      0.00
  -12    6    3      0.26      0.00
  -12    6    2      3.56      0.00
  -12    6    1      0.31      0.00
   12    6    0      0.02      0.00
   12    6    1     -1.16      0.00
   12    6    2      3.32      0.00
   12    6    3      0.07      0.00
   12    6    4     -0.53      0.00
   12    6    5     -0.29      0.00
   12    6    6     -0.30      0.00
   12    6    7      0.77      0.00
   12    6    8     -0.03      0.00
   12    6    9      0.32      0.00
   12    6   10     -0.61      0.00
   12    6   11     -0.06      0.00
  -12    8   19      1.42      0.00
  -12    8   18     -0.27      0.00
  -12    8   17     -0.12      0.00
  -12    8   16      0.87      0.00
  -12    8   15      1.54      0.00
  -12    8   14     -1.24      0.00
  -12    8   13      0.22      0.00
  -12    8   12     -3.16      0.00
  -12    8   11     -0.94      0.00
  -12    8   10     -0.91      0.00
  -12    8    9     -3.42      0.00
  -12    8    8     -0.61      0.00
  -12    8    7     -1.11      0.00
  -12    8    6      3.41      0.00
  -12    8    5      2.82      0.00
  -12    8    4      1.34      0.00
  -12    8    3      1.51      0.00
  -12    8    2      2.49      0.00
  -12    8    1      3.90      0.00
   12    8    0     -2.97      0.00
   12    8    1      1.08      0.00
   12    8    2      0.52      0.00
   12    8    3     -0.28      0.00
   12    8    4     -1.79      0.00
   12    8    5     -0.40      0.00
   12    8    6     -0.19      0.00
   12    8    7      0.73      0.00
   12    8    8     -0.46      0.00
   12    8    9     -0.13      0.00
  -12   10   18      0.29      0.00
  -12   10   17      1.04      0.00
  -12   10   16     -1.00      0.00
  -12   10   15      0.33      0.00
  -12   10   14      0.85      0.00
  -12   10   13     -0.81      0.00
  -12   10   12     -1.64      0.00
  -12   10   11     -2.06      0.00
  -12   10   10      1.23      0.00
  -12   10    9      3.97      0.00
  -12   10    8      0.47      0.00
  -12   10    7      0.56      0.00
  -12   10    6      3.30      0.00
  -12   10    5      2.25      0.00
  -12   10    4      1.30      0.00
  -12   10    3     -1.52      0.00
  -12   10    2     -0.48      0.00
  -12   10    1      1.60      0.00
   12   10    0     -0.01      0.00
   12   10    1      2.89      0.00
   12   10    2     -1.54      0.00
   12   10    3     -0.91      0.00
   12   10    4     -0.40      0.00
   12   10    5      1.09      0.00
   12   10    6      2.19      0.00
   12   10    7      0.49      0.00
   12   10    8      0.70      0.00
  -12   12   17     -0.40      0.00
  -12   12   16     -0.92      0.00
  -12   12   15     -1.64      0.00
  -12   12   14     -1.02      0.00
  -12   12   13      1.56      0.00
  -12   12   12      0.98      0.00
  -12   12   11     -0.36      0.00
  -12   12   10     -0.37      0.00
  -12   12    9      3.67      0.00
  -12   12    8      2.43      0.00
  -12   12    7     -0.30      0.00
  -12   12    6     -1.53      0.00
  -12   12    5      1.06      0.00
  -12   12    4     -1.01      0.00
  -12   12    3     -2.74      0.00
  -12   12    2     -4.64      0.00
  -12   12    1     -0.45      0.00
   12   12    0      0.66      0.00
   12   12    1      1.60      0.00
   12   12    2     -2.45      0.00
   12   12    3      0.28      0.00
   12   12    4     -0.25      0.00
   12   12    5      0.61      0.00
   12   12    6     -0.94      0.00
   12   12    7     -0.80      0.00
  -12   14   16      1.24      0.00
  -12   14   15     -0.52      0.00
  -12   14   14      0.96      0.00
  -12   14   13      0.26      0.00
  -12   14   12      1.55      0.00
  -12   14   11      0.48      0.00
  -12   14   10     -0.92      0.00
  -12   14    9     -1.31      0.00
  -12   14    8      1.28      0.00
  -12   14    7     -1.81      0.00
  -12   14    6     -2.24      0.00
  -12   14    5     -2.96      0.00
  -12   14    4      0.14      0.00
  -12   14    3      0.43      0.00
  -12   14    2     -1.27      0.00
  -12   14    1     -2.98      0.00
   12   14    0      5.17      0.00
   12   14    1     -2.61      0.00
   12   14    2      0.60      0.00
   12   14    3     -0.07      0.00
   12   14    4      0.38      0.00
   12   14    5     -0.42      0.00
   12   14    6      1.10      0.00
  -12   16   15      0.85      0.00
  -12   16   14     -0.04      0.00
  -12   16   13      1.06      0.00
  -12   16   12      0.84      0.00
  -12   16   11     -0.24      0.00
  -12   16   10     -1.63      0.00
  -12   16    9     -0.54      0.00
  -12   16    8     -1.72      0.00
  -12   16    7      0.02      0.00
  -12   16    6     -0.54      0.00
  -12   16    5     -0.16      0.00
  -12   16    4     -0.07      0.00
  -12   16    3      1.17      0.00
  -12   16    2      2.09      0.00
  -12   16    1     -2.23      0.00
   12   16    0     -2.32      0.00
   12   16    1     -3.07      0.00
   12   16    2      1.42      0.00
   12   16    3     -1.36      0.00
   12   16    4      0.74      0.00
  -12   18   10     -0.05      0.00
  -12   18    9     -1.99      0.00
  -12   18    8      1.37      0.00
  -12   18    7      0.66      0.00
  -12   18    6     -1.15      0.00
  -12   18    5      1.90      0.00
  -12   18    4     -0.01      0.00
  -12   18    3      1.97      0.00
  -12   18    2      0.96      0.00
  -12   18    1      1.37      0.00
   12   18    0     -0.95      0.00
   12   18    1      0.20      0.00
   12   18    2     -0.78      0.00
   12   18    3      1.17      0.00
  -12   20    5     -0.81      0.00
  -12   20    4      1.94      0.00
  -12   20    3     -0.08      0.00
  -12   20    2      1.00      0.00
  -12   20    1     -0.51      0.00
   12   20    0     -1.57      0.00
   12   20    1     -0.28      0.00
  -13    1   21     -0.09      0.00
  -13    1   20     -1.00      0.00
  -13    1   19     -0.68      0.00
  -13    1   18      0.76      0.00
  -13    1   17      1.49      0.00
  -13    1   16     -0.20      0.00
  -13    1   15     -1.04      0.00
  -13    1   14      1.19      0.00
  -13    1   13      2.32      0.00
  -13    1   12     -2.48      0.00
  -13    1   11     -0.52      0.00
  -13    1   10     -1.31      0.00
  -13    1    9      3.37      0.00
  -13    1    8     -3.20      0.00
  -13    1    7     -0.70      0.00
  -13    1    6      3.67      0.00
  -13    1    5      2.88      0.00
  -13    1    4      0.57      0.00
  -13    1    3     -0.94      0.00
  -13    1    2      4.64      0.00
  -13    1    1      1.14      0.00
   13    1    0     -0.76      0.00
   13    1    1      0.35      0.00
   13    1    2      0.58      0.00
   13    1    3      0.04      0.00
   13    1    4     -1.91      0.00
   13    1    5      0.55      0.00
   13    1    6     -0.20      0.00
   13    1    7     -0.38      0.00
   13    1    8     -0.51      0.00
   13    1    9     -0.83      0.00
   13    1   10     -0.21      0.00
   13    1   11     -0.97      0.00
  -13    3   21      0.42      0.00
  -13    3   20     -0.10      0.00
  -13    3   19     -0.50      0.00
  -13    3   18     -1.23      0.00
  -13    3   17      0.13      0.00
  -13    3   16      1.21      0.00
  -13    3   15     -0.86      0.00
  -13    3   14     -2.20      0.00
  -13    3   13     -1.59      0.00
  -13    3   12      1.97      0.00
  -13    3   11     -2.33      0.00
  -13    3   10      0.87      0.00
  -13    3    9      1.19      0.00
  -13    3    8      2.58      0.00
  -13    3    7      1.81      0.00
  -13    3    6     -3.07      0.00
  -13    3    5      5.49      0.00
  -13    3    4     -1.72      0.00
  -13    3    3     -2.12      0.00
  -13    3    2     -2.13      0.00
  -13    3    1      0.78      0.00
   13    3    0     -1.07      0.00
   13    3    1      4.18      0.00
   13    3    2      0.89      0.00
   13    3    3      0.44      0.00
   13    3    4      0.54      0.00
   13    3    5      1.76      0.00
   13    3    6      1.50      0.00
   13    3    7     -0.06      0.00
   13    3    8      0.11      0.00
   13    3    9     -0.36      0.00
   13    3   10     -0.66      0.00
   13    3   11      0.24      0.00
  -13    5   21     -1.59      0.00
  -13    5   20      0.38      0.00
  -13    5   19     -0.50      0.00
  -13    5   18      1.66      0.00
  -13    5   17     -1.45      0.00
  -13    5   16      0.88      0.00
  -13    5   15      0.65      0.00
  -13    5   14     -0.28      0.00
  -13    5   13     -1.22      0.00
  -13    5   12      0.47      0.00
  -13    5   11      0.85      0.00
  -13    5   10      1.23      0.00
  -13    5    9      0.18      0.00
  -13    5    8      2.68      0.00
  -13    5    7      0.30      0.00
  -13    5    6      0.10      0.00
  -13    5    5     -1.14      0.00
  -13    5    4      1.18      0.00
  -13    5    3     -2.24      0.00
  -13    5    2     -2.75      0.00
  -13    5    1      0.53      0.00
   13    5    0      0.97      0.00
   13    5    1      1.32      0.00
   13    5    2     -1.67      0.00
   13    5    3     -1.72      0.00
   13    5    4      0.45      0.00
   13    5    5     -0.13      0.00
   13    5    6     -0.09      0.00
   13    5    7     -0.80      0.00
   13    5    8      0.27      0.00
   13    5    9     -0.28      0.00
   13    5   10      0.74      0.00
   13    5   11      0.72      0.00
  -13    7   19      0.67      0.00
  -13    7   18     -1.12      0.00
  -13    7   17      0.36      0.00
  -13    7   16     -1.66      0.00
  -13    7   15      2.00      0.00
  -13    7   14      0.44      0.00
  -13    7   13      2.78      0.00
  -13    7   12      1.32      0.00
  -13    7   11      1.59      0.00
  -13    7   10      0.86      0.00
  -13    7    9     -1.29      0.00
  -13    7    8     -0.27      0.00
  -13    7    7     -2.94      0.00
  -13    7    6     -3.23      0.00
  -13    7    5     -2.88      0.00
  -13    7    4     -0.49      0.00
  -13    7    3      0.14      0.00
  -13    7    2     -3.67      0.00
  -13    7    1      1.24      0.00
   13    7    0      2.16      0.00
   13    7    1     -2.16      0.00
   13    7    2     -1.10      0.00
   13    7    3     -1.01      0.00
   13    7    4      1.25      0.00
   13    7    5      0.27      0.00
   13    7    6      0.23      0.00
   13    7    7     -0.22      0.00
   13    7    8     -0.41      0.00
   13    7    9     -0.09      0.00
  -13    9   18     -0.50      0.00
  -13    9   17      0.38      0.00
  -13    9   16      0.02      0.00
  -13    9   15     -0.98      0.00
  -13    9   14      0.39      0.00
  -13    9   13     -0.96      0.00
  -13    9   12      0.52      0.00
  -13    9   11      0.14      0.00
  -13    9   10     -3.82      0.00
  -13    9    9     -1.38      0.00
  -13    9    8     -1.80      0.00
  -13    9    7      0.04      0.00
  -13    9    6     -0.42      0.00
  -13    9    5     -1.02      0.00
  -13    9    4      2.23      0.00
  -13    9    3      2.78      0.00
  -13    9    2      1.60      0.00
  -13    9    1     -1.99      0.00
   13    9    0      1.76      0.00
   13    9    1     -2.87      0.00
   13    9    2     -0.28      0.00
   13    9    3      1.16      0.00
   13    9    4      0.96      0.00
   13    9    5      1.18      0.00
   13    9    6     -0.98      0.00
   13    9    7      0.12      0.00
  -13   11   17      0.04      0.00
  -13   11   16      1.73      0.00
  -13   11   15      0.94      0.00
  -13   11   14     -0.55      0.00
  -13   11   13     -1.87      0.00
  -13   11   12     -1.75      0.00
  -13   11   11      0.89      0.00
  -13   11   10     -0.14      0.00
  -13   11    9     -2.38      0.00
  -13   11    8      0.42      0.00
  -13   11    7      2.45      0.00
  -13   11    6      0.54      0.00
  -13   11    5      1.50      0.00
  -13   11    4      1.15      0.00
  -13   11    3      3.22      0.00
  -13   11    2      2.54      0.00
  -13   11    1     -0.99      0.00
   13   11    0     -1.22      0.00
   13   11    1     -0.78      0.00
   13   11    2      1.26      0.00
   13   11    3      0.44      0.00
   13   11    4     -0.16      0.00
   13   11    5     -1.76      0.00
   13   11    6     -0.88      0.00
  -13   13   16     -0.21      0.00
  -13   13   15     -1.32      0.00
  -13   13   14      0.24      0.00
  -13   13   13     -0.65      0.00
  -13   13   12     -0.84      0.00
  -13   13   11      0.49      0.00
  -13   13   10      3.39      0.00
  -13   13    9      0.60      0.00
  -13   13    8      0.49      0.00
  -13   13    7      2.08      0.00
  -13   13    6      3.10      0.00
  -13   13    5     -1.00      0.00
  -13   13    4     -1.27      0.00
  -13   13    3     -1.96      0.00
  -13   13    2      2.78      0.00
  -13   13    1     -2.77      0.00
   13   13    0     -4.02      0.00
   13   13    1      2.66      0.00
   13   13    2     -0.22      0.00
   13   13    3      0.33      0.00
   13   13    4     -0.73      0.00
   13   13    5      0.60      0.00
  -13   15   16     -0.77      0.00
  -13   15   15      1.45      0.00
  -13   15   14     -1.17      0.00
  -13   15   13     -0.33      0.00
  -13   15   12      0.08      0.00
  -13   15   11      0.27      0.00
  -13   15   10      0.71      0.00
  -13   15    9      2.13      0.00
  -13   15    8     -1.24      0.00
  -13   15    7     -0.70      0.00
  -13   15    6     -0.84      0.00
  -13   15    5      0.87      0.00
  -13   15    4     -2.14      0.00
  -13   15    3     -2.49      0.00
  -13   15    2     -0.81      0.00
  -13   15    1      6.03      0.00
   13   15    0     -1.12      0.00
   13   15    1      1.64      0.00
   13   15    2     -0.95      0.00
   13   15    3      0.72      0.00
   13   15    4      0.95      0.00
  -13   17   15     -0.11      0.00
  -13   17   14      1.34      0.00
  -13   17   13      0.19      0.00
  -13   17   12     -0.18      0.00
  -13   17   11     -0.09      0.00
  -13   17   10      1.39      0.00
  -13   17    9     -1.11      0.00
  -13   17    8     -0.02      0.00
  -13   17    7     -1.04      0.00
  -13   17    6     -1.50      0.00
  -13   17    5     -0.17      0.00
  -13   17    4     -0.61      0.00
  -13   17    3     -0.57      0.00
  -13   17    2     -2.69      0.00
  -13   17    1      0.25      0.00
   13   17    0      2.84      0.00
   13   17    1     -0.78      0.00
   13   17    2      1.22      0.00
  -13   19    8     -0.85      0.00
  -13   19    7     -1.98      0.00
  -13   19    6      0.98      0.00
  -13   19    5     -1.43      0.00
  -13   19    4      1.40      0.00
  -13   19    3     -0.92      0.00
  -13   19    2      1.01      0.00
  -13   19    1      0.35      0.00
   13   19    0      0.81      0.00
  -14    0   20      0.92      0.00
  -14    0   18     -1.33      0.00
  -14    0   16      0.84      0.00
  -14    0   14     -1.83      0.00
  -14    0   12      2.38      0.00
  -14    0   10     -1.99      0.00
  -14    0    8      0.29      0.00
  -14    0    6     -5.11      0.00
  -14    0    4      0.50      0.00
  -14    0    2     -1.90      0.00
   14    0    0      2.21      0.00
   14    0    2     -0.10      0.00
   14    0    4      2.37      0.00
   14    0    6     -0.83      0.00
   14    0    8     -1.19      0.00
  -14    2   21     -0.64      0.00
  -14    2   20      0.78      0.00
  -14    2   19      0.69      0.00
  -14    2   18      0.49      0.00
  -14    2   17     -0.91      0.00
  -14    2   16     -0.66      0.00
  -14    2   15      1.59      0.00
  -14    2   14      2.10      0.00
  -14    2   13     -2.28      0.00
  -14    2   12      0.62      0.00
  -14    2   11     -1.50      0.00
  -14    2   10      0.34      0.00
  -14    2    9     -3.48      0.00
  -14    2    8     -1.67      0.00
  -14    2    7      3.27      0.00
  -14    2    6     -1.28      0.00
  -14    2    5      0.44      0.00
  -14    2    4      1.02      0.00
  -14    2    3      4.58      0.00
  -14    2    2      0.30      0.00
  -14    2    1     -0.09      0.00
   14    2    0      2.32      0.00
   14    2    1     -0.93      0.00
   14    2    2     -0.31      0.00
   14    2    3      2.34      0.00
   14    2    4      0.89      0.00
   14    2    5      0.65      0.00
   14    2    6     -0.52      0.00
   14    2    7      0.58      0.00
   14    2    8      0.16      0.00
   14    2    9      0.44      0.00
   14    2   10      0.97      0.00
  -14    4   21     -0.38      0.00
  -14    4   20      0.20      0.00
  -14    4   19     -0.67      0.00
  -14    4   18      1.21      0.00
  -14    4   17      0.41      0.00
  -14    4   16     -0.82      0.00
  -14    4   15     -0.92      0.00
  -14    4   14     -0.31      0.00
  -14    4   13      0.47      0.00
  -14    4   12     -1.83      0.00
  -14    4   11     -0.46      0.00
  -14    4   10      0.28      0.00
  -14    4    9     -0.58      0.00
  -14    4    8      0.74      0.00
  -14    4    7     -1.54      0.00
  -14    4    6      4.66      0.00
  -14    4    5     -1.08      0.00
  -14    4    4      0.04      0.00
  -14    4    3      1.51      0.00
  -14    4    2      0.45      0.00
  -14    4    1     -1.36      0.00
   14    4    0     -2.34      0.00
   14    4    1     -2.34      0.00
   14    4    2     -1.08      0.00
   14    4    3      0.85      0.00
   14    4    4     -1.01      0.00
   14    4    5     -1.52      0.00
   14    4    6     -0.49      0.00
   14    4    7      0.57      0.00
   14    4    8      0.62      0.00
   14    4    9      0.92      0.00
   14    4   10      0.27      0.00
   14    4   11     -0.24      0.00
  -14    6   20     -1.07      0.00
  -14    6   19      1.66      0.00
  -14    6   18     -1.15      0.00
  -14    6   17      1.53      0.00
  -14    6   16     -1.43      0.00
  -14    6   15     -1.30      0.00
  -14    6   14     -1.84      0.00
  -14    6   13     -0.53      0.00
  -14    6   12     -1.49      0.00
  -14    6   11      0.52      0.00
  -14    6   10      1.50      0.00
  -14    6    9      2.64      0.00
  -14    6    8      1.85      0.00
  -14    6    7      2.11      0.00
  -14    6    6      1.78      0.00
  -14    6    5      0.78      0.00
  -14    6    4     -1.50      0.00
  -14    6    3      0.23      0.00
  -14    6    2      0.25      0.00
  -14    6    1     -1.13      0.00
   14    6    0     -3.08      0.00
   14    6    1      0.39      0.00
   14    6    2      0.89      0.00
   14    6    3      1.14      0.00
   14    6    4     -0.80      0.00
   14    6    5     -0.29      0.00
   14    6    6      0.70      0.00
   14    6    7     -0.49      0.00
   14    6    8      0.08      0.00
   14    6    9      0.32      0.00
  -14    8   18      0.74      0.00
  -14    8   17     -0.30      0.00
  -14    8   16      2.15      0.00
  -14    8   15     -0.02      0.00
  -14    8   14      1.83      0.00
  -14    8   13      1.53      0.00
  -14    8   12      0.88      0.00
  -14    8   11      1.23      0.00
  -14    8   10      0.05      0.00
  -14    8    9      2.08      0.00
  -14    8    8     -1.41      0.00
  -14    8    7     -1.83      0.00
  -14    8    6     -0.59      0.00
  -14    8    5     -1.47      0.00
  -14    8    4     -2.41      0.00
  -14    8    3     -3.89      0.00
  -14    8    2      1.85      0.00
  -14    8    1      0.38      0.00
   14    8    0     -1.13      0.00
   14    8    1      1.17      0.00
   14    8    2      1.78      0.00
   14    8    3     -0.75      0.00
   14    8    4     -0.13      0.00
   14    8    5     -0.98      0.00
   14    8    6      0.13      0.00
   14    8    7     -0.07      0.00
  -14   10   17     -1.38      0.00
  -14   10   16     -0.94      0.00
  -14   10   15     -0.08      0.00
  -14   10   14      0.42      0.00
  -14   10   13      1.71      0.00
  -14   10   12      0.60      0.00
  -14   10   11     -1.80      0.00
  -14   10   10      0.30      0.00
  -14   10    9     -1.15      0.00
  -14   10    8     -0.93      0.00
  -14   10    7     -1.03      0.00
  -14   10    6     -1.90      0.00
  -14   10    5      0.60      0.00
  -14   10    4     -0.60      0.00
  -14   10    3     -1.70      0.00
  -14   10    2     -0.63      0.00
  -14   10    1      2.46      0.00
   14   10    0      1.74      0.00
   14   10    1      1.44      0.00
   14   10    2      0.15      0.00
   14   10    3     -1.07      0.00
   14   10    4     -1.42      0.00
   14   10    5      0.32      0.00
  -14   12   15      0.26      0.00
  -14   12   14     -0.63      0.00
  -14   12   13     -0.22      0.00
  -14   12   12      0.75      0.00
  -14   12   11     -2.75      0.00
  -14   12   10     -2.30      0.00
  -14   12    9     -0.11      0.00
  -14   12    8     -0.68      0.00
  -14   12    7     -2.22      0.00
  -14   12    6      1.11      0.00
  -14   12    5      1.60      0.00
  -14   12    4      3.25      0.00
  -14   12    3      0.01      0.00
  -14   12    2      0.13      0.00
  -14   12    1      2.43      0.00
   14   12    0      3.30      0.00
   14   12    1     -1.19      0.00
   14   12    2     -0.31      0.00
   14   12    3     -0.64      0.00
   14   12    4      1.00      0.00
  -14   14   16     -1.71      0.00
  -14   14   15      0.69      0.00
  -14   14   13     -0.38      0.00
  -14   14   12      0.49      0.00
  -14   14   11      1.08      0.00
  -14   14   10     -1.82      0.00
  -14   14    9      0.57      0.00
  -14   14    8      2.06      0.00
  -14   14    7      2.08      0.00
  -14   14    6     -1.90      0.00
  -14   14    5      1.67      0.00
  -14   14    4      1.33      0.00
  -14   14    3      3.26      0.00
  -14   14    2     -5.56      0.00
  -14   14    1     -2.52      0.00
   14   14    0     -0.05      0.00
   14   14    1     -0.87      0.00
   14   14    2      0.31      0.00
   14   14    3      1.26      0.00
  -14   16   15     -2.06      0.00
  -14   16   14     -0.55      0.00
  -14   16   13      0.23      0.00
  -14   16   12     -0.33      0.00
  -14   16   11     -0.10      0.00
  -14   16   10      1.29      0.00
  -14   16    9     -0.95      0.00
  -14   16    8      1.34      0.00
  -14   16    7      1.56      0.00
  -14   16    6      1.48      0.00
  -14   16    5     -1.84      0.00
  -14   16    4      0.11      0.00
  -14   16    3      1.48      0.00
  -14   16    2      2.96      0.00
  -14   16    1     -3.67      0.00
   14   16    0     -1.93      0.00
   14   16    1      0.84      0.00
  -14   18   10     -0.68      0.00
  -14   18    9      0.76      0.00
  -14   18    8     -0.30      0.00
  -14   18    7     -0.68      0.00
  -14   18    6      0.79      0.00
  -14   18    5     -1.65      0.00
  -14   18    4     -0.28      0.00
  -14   18    3     -1.32      0.00
  -14   18    2      0.24      0.00
  -14   18    1      0.29      0.00
  -14   20    5     -0.00      0.00
  -14   20    4     -1.89      0.00
  -14   20    3      0.95      0.00
  -15    1   20     -0.50      0.00
  -15    1   19     -0.66      0.00
  -15    1   18      0.53      0.00
  -15    1   17      0.83      0.00
  -15    1   16     -0.05      0.00
  -15    1   15     -1.30      0.00
  -15    1   14      1.12      0.00
  -15    1   13      1.74      0.00
  -15    1   12      0.52      0.00
  -15    1   11     -0.50      0.00
  -15    1   10      2.26      0.00
  -15    1    9      0.61      0.00
  -15    1    8     -1.51      0.00
  -15    1    7     -3.14      0.00
  -15    1    6      0.30      0.00
  -15    1    5     -0.56      0.00
  -15    1    4     -3.03      0.00
  -15    1    3     -1.60      0.00
  -15    1    2     -0.12      0.00
  -15    1    1      0.99      0.00
   15    1    0     -1.33      0.00
   15    1    1     -0.45      0.00
   15    1    2      2.07      0.00
   15    1    3     -1.66      0.00
   15    1    4     -0.14      0.00
   15    1    5      0.18      0.00
   15    1    6      0.76      0.00
   15    1    7      1.04      0.00
   15    1    8      0.82      0.00
   15    1    9      1.13      0.00
  -15    3   21      0.96      0.00
  -15    3   20     -0.00      0.00
  -15    3   19     -0.74      0.00
  -15    3   18     -0.97      0.00
  -15    3   17     -0.36      0.00
  -15    3   16      0.96      0.00
  -15    3   15      1.47      0.00
  -15    3   14     -1.40      0.00
  -15    3   13      1.57      0.00
  -15    3   12     -0.51      0.00
  -15    3   11     -0.17      0.00
  -15    3   10     -1.25      0.00
  -15    3    9     -1.16      0.00
  -15    3    8      2.24      0.00
  -15    3    7     -4.15      0.00
  -15    3    6     -0.08      0.00
  -15    3    5      0.74      0.00
  -15    3    4      1.68      0.00
  -15    3    3     -0.23      0.00
  -15    3    2      0.36      0.00
  -15    3    1      3.08      0.00
   15    3    0     -0.50      0.00
   15    3    1      0.20      0.00
   15    3    2     -0.40      0.00
   15    3    3     -1.83      0.00
   15    3    4     -1.53      0.00
   15    3    5      0.68      0.00
   15    3    6      0.43      0.00
   15    3    7      0.64      0.00
   15    3    8     -0.41      0.00
   15    3    9     -0.65      0.00
  -15    5   20     -0.80      0.00
  -15    5   19      1.04      0.00
  -15    5   18     -0.95      0.00
  -15    5   17      0.64      0.00
  -15    5   16      0.84      0.00
  -15    5   15      1.00      0.00
  -15    5   14      0.48      0.00
  -15    5   13      0.11      0.00
  -15    5   12     -0.40      0.00
  -15    5   11     -0.87      0.00
  -15    5   10     -3.00      0.00
  -15    5    9     -0.89      0.00
  -15    5    8     -1.71      0.00
  -15    5    7      1.43      0.00
  -15    5    6     -0.99      0.00
  -15    5    5      0.69      0.00
  -15    5    4      2.06      0.00
  -15    5    3      0.22      0.00
  -15    5    2      0.11      0.00
  -15    5    1      0.67      0.00
   15    5    0      2.26      0.00
   15    5    1      1.43      0.00
   15    5    2     -0.68      0.00
   15    5    3     -1.17      0.00
   15    5    4      0.59      0.00
   15    5    5      1.22      0.00
   15    5    6     -1.04      0.00
   15    5    7     -0.80      0.00
   15    5    8     -0.53      0.00
   15    5    9     -0.61      0.00
  -15    7   19     -1.19      0.00
  -15    7   18      0.60      0.00
  -15    7   17     -2.81      0.00
  -15    7   16     -0.76      0.00
  -15    7   15     -1.65      0.00
  -15    7   14     -1.66      0.00
  -15    7   13     -2.51      0.00
  -15    7   12      0.09      0.00
  -15    7   11      1.63      0.00
  -15    7   10     -0.01      0.00
  -15    7    9      1.11      0.00
  -15    7    8      2.33      0.00
  -15    7    7      2.04      0.00
  -15    7    6      0.72      0.00
  -15    7    5      0.94      0.00
  -15    7    4      2.53      0.00
  -15    7    3     -0.32      0.00
  -15    7    2     -0.77      0.00
  -15    7    1     -1.49      0.00
   15    7    0      1.25      0.00
   15    7    1      0.68      0.00
   15    7    2     -1.83      0.00
   15    7    3      0.73      0.00
   15    7    4      0.41      0.00
   15    7    5     -0.23      0.00
   15    7    6      0.04      0.00
   15    7    7      0.96      0.00
  -15    9   17      1.71      0.00
  -15    9   16     -0.03      0.00
  -15    9   15      1.00      0.00
  -15    9   14      0.43      0.00
  -15    9   13     -0.68      0.00
  -15    9   12      0.64      0.00
  -15    9   11      0.48      0.00
  -15    9   10      2.91      0.00
  -15    9    9     -0.79      0.00
  -15    9    8     -0.19      0.00
  -15    9    7      1.66      0.00
  -15    9    6     -0.96      0.00
  -15    9    5     -1.27      0.00
  -15    9    4     -0.86      0.00
  -15    9    3      1.52      0.00
  -15    9    2     -1.65      0.00
  -15    9    1     -2.32      0.00
   15    9    0     -0.02      0.00
   15    9    1     -0.71      0.00
   15    9    2     -0.75      0.00
   15    9    3      0.07      0.00
   15    9    4      0.94      0.00
  -15   11   15      0.45      0.00
  -15   11   14      1.07      0.00
  -15   11   13     -0.21      0.00
  -15   11   12      0.59      0.00
  -15   11   11      1.69      0.00
  -15   11   10      0.26      0.00
  -15   11    9      0.59      0.00
  -15   11    8      0.34      0.00
  -15   11    7     -1.24      0.00
  -15   11    6     -0.55      0.00
  -15   11    5     -2.72      0.00
  -15   11    4     -1.93      0.00
  -15   11    3      0.13      0.00
  -15   11    2     -0.13      0.00
  -15   11    1     -1.56      0.00
   15   11    0     -2.06      0.00
   15   11    1     -0.93      0.00
   15   11    2      0.27      0.00
   15   11    3      1.30      0.00
  -15   13   13      0.44      0.00
  -15   13   12     -2.62      0.00
  -15   13   11      0.34      0.00
  -15   13   10      0.03      0.00
  -15   13    9     -1.71      0.00
  -15   13    8     -2.63      0.00
  -15   13    7      1.20      0.00
  -15   13    6     -0.14      0.00
  -15   13    5      0.02      0.00
  -15   13    4     -2.73      0.00
  -15   13    3      2.41      0.00
  -15   13    2      3.78      0.00
  -15   13    1      2.37      0.00
   15   13    0     -0.09      0.00
   15   13    1      0.10      0.00
   15   13    2      1.57      0.00
  -15   15   15      0.69      0.00
  -15   15   13      0.69      0.00
  -15   15   12      0.23      0.00
  -15   15   11     -2.08      0.00
  -15   15   10      0.71      0.00
  -15   15    9     -0.13      0.00
  -15   15    8     -0.75      0.00
  -15   15    7     -3.00      0.00
  -15   15    6      2.71      0.00
  -15   15    5      0.91      0.00
  -15   15    4      0.80      0.00
  -15   15    3     -4.31      0.00
  -15   15    2      1.41      0.00
  -15   15    1      2.13      0.00
   15   15    0      1.04      0.00
  -15   17   12     -1.11      0.00
  -15   17   11      0.25      0.00
  -15   17   10     -1.14      0.00
  -15   17    9      1.84      0.00
  -15   17    8      1.44      0.00
  -15   17    7      0.63      0.00
  -15   17    6     -0.00      0.00
  -15   17    5      1.82      0.00
  -15   17    4      1.20      0.00
  -15   17    3      0.53      0.00
  -15   17    2     -1.78      0.00
  -15   19    8      0.87      0.00
  -15   19    7      1.57      0.00
  -15   19    6     -0.64      0.00
  -15   19    5      1.44      0.00
  -16    0   18     -0.55      0.00
  -16    0   16     -0.06      0.00
  -16    0   14     -2.41      0.00
  -16    0   12      0.71      0.00
  -16    0   10     -0.35      0.00
  -16    0    8      4.44      0.00
  -16    0    6      0.41      0.00
  -16    0    4      1.87      0.00
  -16    0    2     -1.78      0.00
   16    0    0     -0.88      0.00
   16    0    2     -2.51      0.00
   16    0    4      0.61      0.00
   16    0    6      1.37      0.00
  -16    2   20      0.34      0.00
  -16    2   19      1.00      0.00
  -16    2   18      0.88      0.00
  -16    2   17      0.60      0.00
  -16    2   16     -1.18      0.00
  -16    2   15      1.06      0.00
  -16    2   14      0.17      0.00
  -16    2   13      0.19      0.00
  -16    2   12      0.22      0.00
  -16    2   11      2.23      0.00
  -16    2   10      0.27      0.00
  -16    2    9     -1.67      0.00
  -16    2    8      1.20      0.00
  -16    2    7      1.12      0.00
  -16    2    6     -0.68      0.00
  -16    2    5     -3.06      0.00
  -16    2    4     -0.98      0.00
  -16    2    3     -0.48      0.00
  -16    2    2     -0.70      0.00
  -16    2    1     -1.14      0.00
   16    2    0      0.53      0.00
   16    2    1     -1.47      0.00
   16    2    2     -0.75      0.00
   16    2    3     -0.62      0.00
   16    2    4      0.66      0.00
   16    2    5     -0.48      0.00
   16    2    6     -0.26      0.00
   16    2    7     -1.55      0.00
   16    2    8     -0.81      0.00
  -16    4   20     -0.86      0.00
  -16    4   19      0.30      0.00
  -16    4   18     -0.53      0.00
  -16    4   17     -0.43      0.00
  -16    4   16      0.23      0.00
  -16    4   15     -1.28      0.00
  -16    4   14      0.71      0.00
  -16    4   13     -0.17      0.00
  -16    4   12     -0.03      0.00
  -16    4   11      1.73      0.00
  -16    4   10      0.14      0.00
  -16    4    9      1.55      0.00
  -16    4    8     -3.48      0.00
  -16    4    7      0.62      0.00
  -16    4    6      0.21      0.00
  -16    4    5     -1.07      0.00
  -16    4    4     -0.74      0.00
  -16    4    3     -0.63      0.00
  -16    4    2      1.63      0.00
  -16    4    1     -1.51      0.00
   16    4    0      0.58      0.00
   16    4    1     -1.30      0.00
   16    4    2      0.38      0.00
   16    4    3      1.54      0.00
   16    4    4      0.49      0.00
   16    4    5     -1.41      0.00
   16    4    6     -1.45      0.00
   16    4    7      0.23      0.00
   16    4    8      0.28      0.00
  -16    6   19     -0.98      0.00
  -16    6   18      2.45      0.00
  -16    6   17      1.03      0.00
  -16    6   16      1.27      0.00
  -16    6   15      1.28      0.00
  -16    6   14      2.29      0.00
  -16    6   13      0.34      0.00
  -16    6   12     -1.44      0.00
  -16    6   11     -2.25      0.00
  -16    6   10     -0.61      0.00
  -16    6    9     -1.97      0.00
  -16    6    8     -1.49      0.00
  -16    6    7     -0.71      0.00
  -16    6    6     -0.25      0.00
  -16    6    5      0.43      0.00
  -16    6    4     -0.08      0.00
  -16    6    3      0.24      0.00
  -16    6    2      1.59      0.00
  -16    6    1      0.45      0.00
   16    6    0     -0.52      0.00
   16    6    1     -0.56      0.00
   16    6    2      2.41      0.00
   16    6    3      0.70      0.00
   16    6    4     -1.03      0.00
   16    6    5      0.41      0.00
   16    6    6      1.21      0.00
   16    6    7     -0.06      0.00
  -16    8   17      0.20      0.00
  -16    8   16     -1.38      0.00
  -16    8   15     -1.80      0.00
  -16    8   14     -1.23      0.00
  -16    8   13      0.42      0.00
  -16    8   12      0.80      0.00
  -16    8   11     -3.06      0.00
  -16    8   10      0.77      0.00
  -16    8    9      1.43      0.00
  -16    8    8     -0.11      0.00
  -16    8    7     -0.03      0.00
  -16    8    6      1.75      0.00
  -16    8    5      2.17      0.00
  -16    8    4     -0.67      0.00
  -16    8    3      1.13      0.00
  -16    8    2      0.55      0.00
  -16    8    1      1.56      0.00
   16    8    0     -0.95      0.00
   16    8    1      0.50      0.00
   16    8    2      0.17      0.00
   16    8    3     -0.08      0.00
   16    8    4     -0.42      0.00
   16    8    5      0.86      0.00
  -16   10   15     -0.19      0.00
  -16   10   14     -0.96      0.00
  -16   10   13      0.13      0.00
  -16   10   12     -0.25      0.00
  -16   10   11      1.24      0.00
  -16   10   10     -1.91      0.00
  -16   10    9      0.52      0.00
  -16   10    8      2.20      0.00
  -16   10    7     -0.50      0.00
  -16   10    6      0.93      0.00
  -16   10    5      1.55      0.00
  -16   10    4      0.72      0.00
  -16   10    3     -0.96      0.00
  -16   10    2     -0.36      0.00
  -16   10    1      1.26      0.00
   16   10    0     -0.74      0.00
   16   10    1      1.15      0.00
   16   10    2      0.37      0.00
  -16   12   14     -0.80      0.00
  -16   12   13      1.85      0.00
  -16   12   12      0.87      0.00
  -16   12   11      0.42      0.00
  -16   12   10      1.29      0.00
  -16   12    9      1.23      0.00
  -16   12    8      0.03      0.00
  -16   12    7      0.09      0.00
  -16   12    6     -1.23      0.00
  -16   12    5      0.60      0.00
  -16   12    4     -0.27      0.00
  -16   12    3     -2.82      0.00
  -16   12    2     -2.91      0.00
  -16   12    1     -1.26      0.00
   16   12    0      0.34      0.00
  -16   14   14      0.11      0.00
  -16   14   13     -1.55      0.00
  -16   14   12      2.13      0.00
  -16   14   11      0.10      0.00
  -16   14   10     -0.53      0.00
  -16   14    9     -0.53      0.00
  -16   14    8      2.09      0.00
  -16   14    7     -1.29      0.00
  -16   14    6     -1.67      0.00
  -16   14    5     -2.27      0.00
  -16   14    4      2.90      0.00
  -16   14    3      0.92      0.00
  -16   14    2     -0.46      0.00
  -16   14    1     -0.92      0.00
  -16   16   13      0.76      0.00
  -16   16   12     -0.75      0.00
  -16   16   11      1.02      0.00
  -16   16   10     -1.56      0.00
  -16   16    9     -2.00      0.00
  -16   16    8     -2.51      0.00
  -16   16    7      1.25      0.00
  -16   16    6     -1.39      0.00
  -16   16    5     -0.79      0.00
  -16   16    4     -1.30      0.00
  -16   18    9     -0.64      0.00
  -16   18    8     -0.73      0.00
  -16   18    7      0.48      0.00
  -17    1   19     -0.55      0.00
  -17    1   18     -1.23      0.00
  -17    1   17     -0.50      0.00
  -17    1   16     -0.15      0.00
  -17    1   15     -1.41      0.00
  -17    1   14      0.23      0.00
  -17    1   13      0.58      0.00
  -17    1   12     -1.96      0.00
  -17    1   11     -0.12      0.00
  -17    1   10      1.04      0.00
  -17    1    9      1.53      0.00
  -17    1    8     -1.41      0.00
  -17    1    7      0.18      0.00
  -17    1    6      2.18      0.00
  -17    1    5      1.76      0.00
  -17    1    4      0.80      0.00
  -17    1    3     -0.81      0.00
  -17    1    2      0.74      0.00
  -17    1    1     -0.78      0.00
   17    1    0     -0.70      0.00
   17    1    1      0.68      0.00
   17    1    2     -0.49      0.00
   17    1    3      0.07      0.00
   17    1    4     -0.59      0.00
   17    1    5     -0.85      0.00
   17    1    6     -1.24      0.00
  -17    3   20      0.46      0.00
  -17    3   19      0.58      0.00
  -17    3   18      1.21      0.00
  -17    3   17     -0.78      0.00
  -17    3   16      1.26      0.00
  -17    3   15      0.09      0.00
  -17    3   14      0.15      0.00
  -17    3   13      0.75      0.00
  -17    3   12      0.34      0.00
  -17    3   11     -0.60      0.00
  -17    3   10     -0.97      0.00
  -17    3    9      3.62      0.00
  -17    3    8     -0.10      0.00
  -17    3    7     -0.59      0.00
  -17    3    6     -0.82      0.00
  -17    3    5      0.11      0.00
  -17    3    4      0.58      0.00
  -17    3    3     -1.10      0.00
  -17    3    2     -0.42      0.00
  -17    3    1     -0.32      0.00
   17    3    0     -0.29      0.00
   17    3    1      1.52      0.00
   17    3    2      1.47      0.00
   17    3    3      0.02      0.00
   17    3    4     -0.57      0.00
   17    3    5     -1.08      0.00
   17    3    6      1.63      0.00
  -17    5   19     -1.46      0.00
  -17    5   18     -1.06      0.00
  -17    5   17     -0.45      0.00
  -17    5   16     -1.61      0.00
  -17    5   15     -1.33      0.00
  -17    5   14     -0.78      0.00
  -17    5   13     -0.24      0.00
  -17    5   12      2.67      0.00
  -17    5   11      0.25      0.00
  -17    5   10      1.59      0.00
  -17    5    9     -0.08      0.00
  -17    5    8      1.27      0.00
  -17    5    7     -0.05      0.00
  -17    5    6     -1.66      0.00
  -17    5    5     -0.35      0.00
  -17    5    4     -0.91      0.00
  -17    5    3      0.23      0.00
  -17    5    2     -1.17      0.00
  -17    5    1      0.60      0.00
   17    5    0      1.05      0.00
   17    5    1      1.77      0.00
   17    5    2     -0.38      0.00
   17    5    3     -1.13      0.00
   17    5    4      0.92      0.00
   17    5    5      1.77      0.00
   17    5    6      0.15      0.00
   17    5    7     -0.39      0.00
  -17    7   17      1.02      0.00
  -17    7   16      1.90      0.00
  -17    7   15      2.51      0.00
  -17    7   14      0.21      0.00
  -17    7   13     -1.15      0.00
  -17    7   12      0.87      0.00
  -17    7   11      0.00      0.00
  -17    7   10     -1.78      0.00
  -17    7    9     -1.32      0.00
  -17    7    8      0.60      0.00
  -17    7    7     -1.34      0.00
  -17    7    6     -1.44      0.00
  -17    7    5     -0.38      0.00
  -17    7    4     -1.22      0.00
  -17    7    3      0.75      0.00
  -17    7    2     -1.36      0.00
  -17    7    1      0.36      0.00
   17    7    0      0.76      0.00
   17    7    1     -1.72      0.00
   17    7    2     -0.90      0.00
   17    7    3     -0.06      0.00
   17    7    4      0.79      0.00
   17    7    5     -1.34      0.00
  -17    9   15      0.58      0.00
  -17    9   14      0.33      0.00
  -17    9   13      0.19      0.00
  -17    9   12     -3.05      0.00
  -17    9   11      2.07      0.00
  -17    9   10      0.06      0.00
  -17    9    9     -2.29      0.00
  -17    9    8     -0.17      0.00
  -17    9    7      0.94      0.00
  -17    9    6      0.23      0.00
  -17    9    5     -0.92      0.00
  -17    9    4      1.59      0.00
  -17    9    3      0.50      0.00
  -17    9    2      0.69      0.00
  -17    9    1     -0.01      0.00
   17    9    0      0.84      0.00
   17    9    1     -0.59      0.00
   17    9    2     -0.32      0.00
  -17   11   14     -0.29      0.00
  -17   11   13     -0.88      0.00
  -17   11   12     -0.22      0.00
  -17   11   11     -2.09      0.00
  -17   11   10      0.44      0.00
  -17   11    9      0.62      0.00
  -17   11    8     -1.28      0.00
  -17   11    7      1.14      0.00
  -17   11    6      1.15      0.00
  -17   11    5      0.10      0.00
  -17   11    4      1.45      0.00
  -17   11    3      1.87      0.00
  -17   11    2      1.64      0.00
  -17   11    1     -0.57      0.00
  -17   13   13     -0.96      0.00
  -17   13   12     -0.22      0.00
  -17   13   11      0.64      0.00
  -17   13   10      0.63      0.00
  -17   13    9      0.31      0.00
  -17   13    8      0.72      0.00
  -17   13    7      0.91      0.00
  -17   13    6      2.09      0.00
  -17   13    5     -0.74      0.00
  -17   13    4     -1.96      0.00
  -17   13    3     -1.09      0.00
  -17   15   11      0.71      0.00
  -17   15   10      1.52      0.00
  -17   15    9      2.41      0.00
  -17   15    8     -0.44      0.00
  -17   15    7     -0.34      0.00
  -17   15    6     -0.33      0.00
  -18    0   16      1.13      0.00
  -18    0   14     -1.11      0.00
  -18    0   12      0.78      0.00
  -18    0   10     -1.84      0.00
  -18    0    8      0.48      0.00
  -18    0    6     -2.20      0.00
  -18    0    4      0.56      0.00
  -18    0    2      0.86      0.00
   18    0    0      0.50      0.00
   18    0    2      0.73      0.00
   18    0    4     -0.89      0.00
  -18    2   19     -1.86      0.00
  -18    2   18     -0.09      0.00
  -18    2   17     -0.40      0.00
  -18    2   16     -1.03      0.00
  -18    2   15      0.02      0.00
  -18    2   14     -0.32      0.00
  -18    2   13     -2.05      0.00
  -18    2   12      0.81      0.00
  -18    2   11      1.04      0.00
  -18    2   10     -2.39      0.00
  -18    2    9     -0.90      0.00
  -18    2    8      0.75      0.00
  -18    2    7      1.83      0.00
  -18    2    6      0.66      0.00
  -18    2    5      0.39      0.00
  -18    2    4     -0.05      0.00
  -18    2    3      1.03      0.00
  -18    2    2      0.47      0.00
  -18    2    1      0.01      0.00
   18    2    0      0.98      0.00
   18    2    1      1.46      0.00
   18    2    2      0.14      0.00
   18    2    3      0.11      0.00
   18    2    4     -0.53      0.00
  -18    4   19      1.32      0.00
  -18    4   18     -0.19      0.00
  -18    4   17      1.66      0.00
  -18    4   16      1.32      0.00
  -18    4   15      0.61      0.00
  -18    4   14      1.51      0.00
  -18    4   13     -1.11      0.00
  -18    4   12     -0.66      0.00
  -18    4   11     -0.83      0.00
  -18    4   10      1.58      0.00
  -18    4    9     -2.21      0.00
  -18    4    8      0.22      0.00
  -18    4    7      1.34      0.00
  -18    4    6      0.20      0.00
  -18    4    5      1.55      0.00
  -18    4    4     -0.74      0.00
  -18    4    3      0.20      0.00
  -18    4    2     -0.62      0.00
  -18    4    1     -0.92      0.00
   18    4    0     -0.46      0.00
   18    4    1     -1.03      0.00
   18    4    2     -0.97      0.00
   18    4    3      0.57      0.00
   18    4    4      1.91      0.00
   18    4    5     -0.56      0.00
  -18    6   17     -1.76      0.00
  -18    6   16     -2.42      0.00
  -18    6   15     -0.92      0.00
  -18    6   14     -0.51      0.00
  -18    6   13      1.16      0.00
  -18    6   12     -0.30      0.00
  -18    6   11      1.82      0.00
  -18    6   10      1.62      0.00
  -18    6    9      0.12      0.00
  -18    6    8      0.39      0.00
  -18    6    7      0.28      0.00
  -18    6    6      0.81      0.00
  -18    6    5      0.14      0.00
  -18    6    4     -0.14      0.00
  -18    6    3      0.19      0.00
  -18    6    2     -0.06      0.00
  -18    6    1      0.14      0.00
   18    6    0     -2.59      0.00
   18    6    1     -0.13      0.00
   18    6    2      0.30      0.00
   18    6    3      0.27      0.00
   18    6    4     -1.23      0.00
   18    6    5     -0.47      0.00
  -18    8   15     -0.34      0.00
  -18    8   14     -0.41      0.00
  -18    8   13      2.58      0.00
  -18    8   12     -0.75      0.00
  -18    8   11     -0.70      0.00
  -18    8   10      1.02      0.00
  -18    8    9      1.23      0.00
  -18    8    8     -1.64      0.00
  -18    8    7     -1.66      0.00
  -18    8    6      0.16      0.00
  -18    8    5     -2.06      0.00
  -18    8    4      0.04      0.00
  -18    8    3     -1.79      0.00
  -18    8    2      0.33      0.00
  -18    8    1      0.10      0.00
   18    8    0      0.31      0.00
   18    8    1      0.23      0.00
   18    8    2      0.61      0.00
  -18   10   13     -1.05      0.00
  -18   10   12      2.53      0.00
  -18   10   11     -0.78      0.00
  -18   10   10     -1.91      0.00
  -18   10    9      1.09      0.00
  -18   10    8      0.19      0.00
  -18   10    7     -1.00      0.00
  -18   10    6     -0.95      0.00
  -18   10    5     -0.02      0.00
  -18   10    4     -1.07      0.00
  -18   10    3     -0.63      0.00
  -18   10    2      0.43      0.00
  -18   10    1      0.45      0.00
  -18   12   10     -0.95      0.00
  -18   12    9     -1.87      0.00
  -18   12    8     -0.08      0.00
  -18   12    7     -0.36      0.00
  -18   12    6     -0.30      0.00
  -19    1   17      0.92      0.00
  -19    1   16      0.05      0.00
  -19    1   15     -0.41      0.00
  -19    1   14      1.61      0.00
  -19    1   13      0.33      0.00
  -19    1   12     -0.94      0.00
  -19    1   11      0.51      0.00
  -19    1   10      1.22      0.00
  -19    1    9     -0.14      0.00
  -19    1    8     -1.50      0.00
  -19    1    7     -1.54      0.00
  -19    1    6     -0.48      0.00
  -19    1    5      0.02      0.00
  -19    1    4     -0.70      0.00
  -19    1    3     -0.02      0.00
  -19    1    2     -0.30      0.00
  -19    1    1     -0.16      0.00
   19    1    0      1.27      0.00
   19    1    1     -1.02      0.00
   19    1    2     -0.18      0.00
  -19    3   18     -0.97      0.00
  -19    3   17     -1.56      0.00
  -19    3   16     -0.45      0.00
  -19    3   15     -1.33      0.00
  -19    3   14     -1.00      0.00
  -19    3   13      1.20      0.00
  -19    3   12      0.58      0.00
  -19    3   11     -2.50      0.00
  -19    3   10      1.95      0.00
  -19    3    9      0.51      0.00
  -19    3    8     -0.61      0.00
  -19    3    7     -0.06      0.00
  -19    3    6     -0.64      0.00
  -19    3    5      0.07      0.00
  -19    3    4      0.64      0.00
  -19    3    3      1.09      0.00
  -19    3    2      0.40      0.00
  -19    3    1      1.29      0.00
   19    3    0     -1.13      0.00
   19    3    1     -1.22      0.00
   19    3    2      0.06      0.00
   19    3    3      1.82      0.00
  -19    5   17      2.07      0.00
  -19    5   16      0.85      0.00
  -19    5   15      1.98      0.00
  -19    5   14     -1.07      0.00
  -19    5   13     -0.22      0.00
  -19    5   12     -1.45      0.00
  -19    5   11     -1.03      0.00
  -19    5   10     -1.87      0.00
  -19    5    9      0.74      0.00
  -19    5    8      0.56      0.00
  -19    5    7     -1.18      0.00
  -19    5    6      1.55      0.00
  -19    5    5     -0.25      0.00
  -19    5    4      0.20      0.00
  -19    5    3     -0.12      0.00
  -19    5    2     -0.48      0.00
  -19    5    1      0.85      0.00
   19    5    0      0.72      0.00
   19    5    1      0.32      0.00
   19    5    2      0.09      0.00
   19    5    3     -1.15      0.00
  -19    7   14     -0.61      0.00
  -19    7   12      1.08      0.00
  -19    7   11      0.22      0.00
  -19    7   10     -1.04      0.00
  -19    7    9      1.25      0.00
  -19    7    8      1.89      0.00
  -19    7    7      0.90      0.00
  -19    7    6      1.16      0.00
  -19    7    5      0.30      0.00
  -19    7    4      1.40      0.00
  -19    7    3     -0.51      0.00
  -19    7    2     -0.41      0.00
  -19    7    1     -1.89      0.00
   19    7    0     -0.26      0.00
   19    7    1      0.33      0.00
   19    7    2     -0.80      0.00
  -19    9    9     -1.01      0.00
  -19    9    8     -0.52      0.00
  -19    9    7      1.06      0.00
  -19    9    6     -1.08      0.00
  -19    9    5      0.55      0.00
  -19    9    4     -0.53      0.00
  -19    9    3     -0.04      0.00
  -19    9    2     -0.18      0.00
  -19    9    1     -0.56      0.00
  -19   11    6     -1.32      0.00
  -19   11    5     -1.62      0.00
  -20    0   14     -0.95      0.00
  -20    0   12      0.06      0.00
  -20    0   10     -0.10      0.00
  -20    0    8      1.97      0.00
  -20    0    6      0.23      0.00
  -20    0    4     -0.12      0.00
  -20    0    2     -0.26      0.00
  -20    2   17      0.31      0.00
  -20    2   16      0.61      0.00
  -20    2   15      1.62      0.00
  -20    2   14     -0.64      0.00
  -20    2   12      1.84      0.00
  -20    2   11     -0.30      0.00
  -20    2   10     -1.03      0.00
  -20    2    9     -0.30      0.00
  -20    2    8     -0.10      0.00
  -20    2    7     -0.26      0.00
  -20    2    6     -0.02      0.00
  -20    2    5     -0.92      0.00
  -20    2    4     -0.74      0.00
  -20    2    3     -0.63      0.00
  -20    2    2     -0.67      0.00
  -20    2    1      1.20      0.00
   20    2    0     -0.42      0.00
  -20    4   17     -0.65      0.00
  -20    4   16     -1.77      0.00
  -20    4   15     -0.32      0.00
  -20    4   14      0.96      0.00
  -20    4   11      2.93      0.00
  -20    4   10     -0.77      0.00
  -20    4    9     -1.23      0.00
  -20    4    8      1.00      0.00
  -20    4    7     -1.52      0.00
  -20    4    6     -0.48      0.00
  -20    4    5     -0.08      0.00
  -20    4    4      0.71      0.00
  -20    4    3      0.34      0.00
  -20    4    2      0.92      0.00
  -20    4    1     -0.55      0.00
   20    4    0      0.79      0.00
   20    4    1      0.34      0.00
  -20    6   10     -0.20      0.00
  -20    6    9     -1.32      0.00
  -20    6    8     -1.67      0.00
  -20    6    7      0.91      0.00
  -20    6    6     -0.58      0.00
  -20    6    5     -0.66      0.00
  -20    6    4      0.48      0.00
  -20    6    3      0.37      0.00
  -20    6    2      1.82      0.00
  -20    6    1      1.13      0.00
   20    6    0      0.51      0.00
   20    6    1     -0.05      0.00
  -20    8    9      1.34      0.00
  -20    8    8      0.03      0.00
  -20    8    7      1.08      0.00
  -20    8    6      0.30      0.00
  -20    8    5      1.01      0.00
  -20    8    4     -0.62      0.00
  -20    8    3     -0.26      0.00
  -20    8    2     -0.45      0.00
  -20    8    1     -0.24      0.00
  -20   10    7      0.52      0.00
  -20   10    6      1.24      0.00
  -20   10    5      0.88      0.00
  -21    1   15     -0.24      0.00
  -21    3   16      0.97      0.00
  -21    3   15     -1.04      0.00
  -21    3    9     -0.12      0.00
  -21    3    8      0.27      0.00
  -21    3    7      0.81      0.00
  -21    3    6     -0.24      0.00
  -21    3    5     -0.68      0.00
  -21    3    4     -0.80      0.00
  -21    5    9      1.62      0.00
  -21    5    8     -1.96      0.00
  -21    5    7     -0.27      0.00
  -21    5    6      0.12      0.00
  -21    5    5      0.13      0.00
  -21    5    4     -0.26      0.00
  -21    5    3     -0.43      0.00
  -21    5    2     -0.96      0.00
  -21    7    9     -1.01      0.00
  -21    7    8     -0.01      0.00
  -21    7    7     -1.00      0.00
  -21    7    6     -0.87      0.00
  -21    7    5      1.02      0.00
  -21    7    4      0.61      0.00
  -21    7    3      1.39      0.00
  -21    7    2      0.85      0.00
  -21    9    8     -0.14      0.00
  -21    9    7     -0.51      0.00
  -21    9    6     -0.27      0.00
  -21    9    5     -0.30      0.00
    2    0    0      2.57      0.00
   20    0    0     -2.42      0.00
    1    1    0    -61.27      0.00
    0    2    0    -65.67      0.00
   19    9    0      0.04      0.00
   18   10    0      0.16      0.00
   17   11    0      0.19      0.00
   17   13    0     -1.58      0.00
   16   14    0      0.12      0.00
   14   18    0     -0.42      0.00
    1   23    0      0.37      0.00
    3   23    0     -0.21      0.00
    0   24    0      0.03      0.00
    2   24    0      0.71      0.00
    4   24    0     -1.06      0.00
   -1    1    1    155.29      0.00
    1    1    1    -14.71      0.00
   -2    2    1    -75.98      0.00
    0    2    1    -63.25      0.00
   20    2    1      0.46      0.00
   18   10    1      0.22      0.00
   17   11    1     -1.13      0.00
  -18   12    1      1.16      0.00
   16   12    1      1.21      0.00
  -17   13    1     -0.61      0.00
   17   13    1      1.01      0.00
   16   14    1     -1.55      0.00
   15   15    1     -0.58      0.00
  -16   16    1      0.39      0.00
  -15   17    1     -0.22      0.00
   -1   23    1      0.31      0.00
    1   23    1     -1.33      0.00
    3   23    1      1.49      0.00
    5   23    1      0.56      0.00
   -4   24    1     -0.81      0.00
   -2   24    1      0.87      0.00
    0   24    1      0.63      0.00
    2   24    1     -0.71      0.00
    4   24    1      0.14      0.00
   -2    0    2   -169.23      0.00
    0    0    2      1.77      0.00
  -21    1    2     -0.60      0.00
   -1    1    2     41.23      0.00
  -21    3    2      0.18      0.00
  -19   11    2     -0.68      0.00
   17   11    2      0.13      0.00
  -18   12    2      0.77      0.00
   16   12    2     -1.40      0.00
  -17   13    2     -0.15      0.00
   16   14    2      0.15      0.00
  -17   15    2     -0.85      0.00
   15   15    2     -1.21      0.00
  -16   16    2      1.28      0.00
   14   16    2     -0.78      0.00
  -11   21    2     -1.23      0.00
    8   22    2     -1.15      0.00
    1   23    2      0.15      0.00
    3   23    2     -0.28      0.00
    5   23    2     -0.34      0.00
   -2   24    2      0.51      0.00
    0   24    2     -0.69      0.00
    2   24    2      1.37      0.00
  -21    1    3     -0.30      0.00
   19    1    3      0.09      0.00
  -21    3    3     -1.22      0.00
   18    8    3     -1.22      0.00
   17    9    3      0.62      0.00
   16   10    3     -0.57      0.00
  -19   11    3     -0.32      0.00
   17   11    3      0.26      0.00
  -18   12    3      1.11      0.00
   16   12    3      0.12      0.00
   15   13    3     -0.78      0.00
  -17   15    3     -1.17      0.00
  -16   16    3      2.04      0.00
   14   16    3     -0.83      0.00
   13   17    3     -0.20      0.00
  -11   21    3     -1.34      0.00
  -10   22    3      2.27      0.00
    4   22    3     -0.15      0.00
    6   22    3     -1.79      0.00
    3   23    3     -0.71      0.00
    5   23    3      2.04      0.00
    0   24    3      0.91      0.00
    2   24    3     -0.13      0.00
  -21    1    4      0.59      0.00
   17    9    4     -0.85      0.00
   16   10    4      0.06      0.00
  -19   11    4     -1.25      0.00
   15   11    4     -0.02      0.00
  -18   12    4      1.57      0.00
   16   12    4      0.30      0.00
   15   13    4      0.66      0.00
  -18   14    4      0.54      0.00
   14   14    4     -0.62      0.00
  -17   15    4     -1.55      0.00
   12   18    4      0.25      0.00
  -11   21    4     -1.15      0.00
  -10   22    4      0.17      0.00
    4   22    4     -1.64      0.00
    6   22    4      1.03      0.00
    3   23    4     -0.31      0.00
    0   24    4     -1.21      0.00
  -21    1    5      0.06      0.00
   18    2    5      2.02      0.00
   15    9    5     -0.10      0.00
   16   10    5     -0.41      0.00
   15   11    5     -0.09      0.00
  -18   12    5      2.04      0.00
   14   12    5      0.15      0.00
  -18   14    5      0.69      0.00
   14   14    5      1.08      0.00
  -17   15    5      1.20      0.00
   13   15    5     -1.01      0.00
   12   16    5      0.86      0.00
  -11   21    5     -0.75      0.00
  -10   22    5      1.18      0.00
    4   22    5      0.55      0.00
    6   22    5      0.43      0.00
    3   23    5     -1.66      0.00
  -21    1    6      0.88      0.00
   16    8    6     -1.49      0.00
   15    9    6      0.74      0.00
   14   10    6      0.04      0.00
   15   11    6     -0.26      0.00
   14   12    6      0.57      0.00
   13   13    6     -0.53      0.00
  -18   14    6     -0.12      0.00
   13   15    6      0.69      0.00
   12   16    6     -0.99      0.00
   11   17    6      0.88      0.00
   10   18    6     -0.07      0.00
  -12   20    6      2.24      0.00
  -11   21    6     -2.07      0.00
    2   22    6      1.57      0.00
    4   22    6     -0.79      0.00
  -21    1    7      0.26      0.00
   15    9    7     -1.42      0.00
   14   10    7      0.62      0.00
  -19   11    7     -0.47      0.00
   13   11    7     -0.75      0.00
   14   12    7      0.10      0.00
   13   13    7      0.96      0.00
  -18   14    7      1.42      0.00
   12   14    7     -0.88      0.00
   11   15    7      1.59      0.00
  -12   20    7      1.76      0.00
  -11   21    7     -0.51      0.00
   -8   22    7      0.76      0.00
    2   22    7      0.31      0.00
   16    0    8      0.89      0.00
  -21    1    8      0.23      0.00
   15    7    8     -0.97      0.00
   14    8    8      1.30      0.00
   13    9    8     -0.30      0.00
  -20   10    8      1.28      0.00
   14   10    8     -0.78      0.00
  -19   11    8     -0.75      0.00
   13   11    8     -0.03      0.00
   12   12    8     -1.35      0.00
   11   13    8     -0.10      0.00
  -18   14    8      0.85      0.00
   12   14    8      0.57      0.00
   11   15    8     -0.39      0.00
   10   16    8      0.98      0.00
    9   17    8     -0.95      0.00
  -12   20    8     -0.52      0.00
   -9   21    8      0.17      0.00
   -8   22    8     -0.57      0.00
    2   22    8      0.63      0.00
  -21    1    9      0.81      0.00
   14    8    9     -1.07      0.00
   13    9    9      1.15      0.00
  -20   10    9      0.18      0.00
   12   10    9      0.04      0.00
  -19   11    9      0.31      0.00
   11   11    9      1.21      0.00
   12   12    9     -0.79      0.00
   11   13    9     -0.93      0.00
  -18   14    9     -0.07      0.00
   10   14    9     -0.13      0.00
    9   15    9     -1.31      0.00
  -13   19    9      1.02      0.00
  -11   19    9      0.18      0.00
  -12   20    9      0.51      0.00
  -10   20    9     -1.35      0.00
   -9   21    9      0.51      0.00
   -6   22    9      0.17      0.00
   14    0   10     -1.10      0.00
  -21    1   10      0.43      0.00
  -21    3   10      1.12      0.00
  -21    5   10      0.40      0.00
  -21    7   10     -1.14      0.00
   13    7   10      1.11      0.00
  -20    8   10      1.03      0.00
   12    8   10     -0.42      0.00
  -19    9   10      0.17      0.00
   11    9   10     -0.06      0.00
  -20   10   10     -0.39      0.00
   12   10   10      0.57      0.00
  -19   11   10      2.15      0.00
   11   11   10      0.85      0.00
   10   12   10      0.81      0.00
    9   13   10      0.64      0.00
   10   14   10     -0.40      0.00
    9   15   10     -0.27      0.00
    8   16   10     -0.56      0.00
    7   17   10      0.15      0.00
    6   18   10     -0.21      0.00
  -13   19   10     -1.45      0.00
  -11   19   10      1.89      0.00
  -10   20   10     -0.04      0.00
   -8   20   10     -0.17      0.00
   -9   21   10      0.73      0.00
   -7   21   10     -0.55      0.00
   -5   21   10     -0.21      0.00
  -21    1   11      0.63      0.00
  -21    3   11     -0.15      0.00
  -21    5   11     -0.66      0.00
  -20    6   11     -0.28      0.00
  -21    7   11     -0.71      0.00
  -20    8   11     -0.70      0.00
   12    8   11      0.88      0.00
  -19    9   11      1.94      0.00
   11    9   11     -0.20      0.00
   10   10   11     -0.62      0.00
  -19   11   11     -0.06      0.00
    9   11   11     -0.68      0.00
  -18   12   11     -0.02      0.00
   10   12   11      0.94      0.00
    9   13   11      0.29      0.00
    8   14   11      0.66      0.00
    7   15   11      0.89      0.00
    6   16   11      0.46      0.00
  -12   18   11     -0.89      0.00
  -11   19   11     -0.69      0.00
   -9   19   11      0.02      0.00
  -10   20   11     -0.46      0.00
   -8   20   11      0.67      0.00
   -7   21   11     -0.61      0.00
   -5   21   11     -0.63      0.00
   -3   21   11      0.14      0.00
  -21    1   12     -0.51      0.00
  -21    3   12     -1.88      0.00
  -20    4   12     -0.09      0.00
  -21    5   12      1.53      0.00
  -20    6   12     -0.76      0.00
   11    7   12     -0.23      0.00
  -20    8   12     -1.16      0.00
   10    8   12     -0.84      0.00
  -19    9   12      0.43      0.00
    9    9   12      0.21      0.00
   10   10   12     -0.18      0.00
  -19   11   12     -0.24      0.00
    9   11   12     -0.95      0.00
  -18   12   12     -1.11      0.00
    8   12   12     -0.41      0.00
    7   13   12     -0.40      0.00
    6   14   12     -0.89      0.00
    8   14   12      0.10      0.00
    7   15   12      0.25      0.00
    6   16   12      0.56      0.00
    5   17   12      0.42      0.00
  -12   18   12      0.62      0.00
  -11   19   12      0.22      0.00
   -8   20   12      0.67      0.00
  -21    1   13     -0.45      0.00
  -20    2   13     -0.80      0.00
  -21    3   13      0.65      0.00
  -20    4   13      0.87      0.00
  -21    5   13      0.60      0.00
  -20    6   13     -1.15      0.00
  -19    7   13     -0.33      0.00
  -20    8   13     -0.03      0.00
   10    8   13     -0.32      0.00
  -19    9   13     -1.54      0.00
    9    9   13     -0.61      0.00
    8   10   13      0.61      0.00
    7   11   13      0.84      0.00
  -18   12   13     -0.02      0.00
    6   12   13      0.20      0.00
    8   12   13     -0.80      0.00
    7   13   13     -0.21      0.00
    6   14   13     -0.18      0.00
    5   15   13     -0.46      0.00
    4   16   13     -0.84      0.00
    3   17   13      0.80      0.00
  -12   18   13     -0.62      0.00
   10    0   14      0.05      0.00
  -21    1   14      0.51      0.00
  -21    3   14     -0.48      0.00
  -20    6   14      0.22      0.00
    9    7   14     -0.38      0.00
    8    8   14      1.34      0.00
  -19    9   14      1.62      0.00
    7    9   14     -0.26      0.00
  -18   10   14      0.49      0.00
    6   10   14     -0.73      0.00
    8   10   14      0.02      0.00
    5   11   14     -1.06      0.00
    7   11   14      0.73      0.00
    6   12   14      0.81      0.00
  -15   13   14      0.23      0.00
    5   13   14     -0.01      0.00
  -14   14   14      0.09      0.00
    4   14   14      0.32      0.00
  -15   15   14     -0.08      0.00
    3   15   14      0.65      0.00
    2   16   14     -0.53      0.00
    1   17   14      0.33      0.00
    9    1   15      0.72      0.00
  -19    7   15     -0.55      0.00
    6    8   15      0.44      0.00
    5    9   15     -0.20      0.00
    7    9   15      0.19      0.00
  -18   10   15     -0.18      0.00
    4   10   15      2.00      0.00
    6   10   15     -0.39      0.00
  -17   11   15     -0.29      0.00
    5   11   15     -1.11      0.00
  -16   12   15      0.23      0.00
    4   12   15     -0.55      0.00
  -15   13   15     -0.31      0.00
    3   13   15     -0.04      0.00
    2   14   15     -0.82      0.00
    1   15   15      0.81      0.00
    0   16   15     -0.96      0.00
   -1   17   15      1.20      0.00
  -20    0   16      0.25      0.00
  -18    8   16      0.69      0.00
    6    8   16     -0.34      0.00
  -17    9   16     -1.07      0.00
    3    9   16     -1.29      0.00
    5    9   16      0.70      0.00
  -16   10   16      0.45      0.00
    2   10   16     -0.73      0.00
    4   10   16      0.38      0.00
  -15   11   16     -0.51      0.00
    3   11   16      1.62      0.00
  -16   12   16      0.16      0.00
  -14   12   16      0.68      0.00
    2   12   16     -0.06      0.00
  -15   13   16      0.26      0.00
    1   13   16      1.52      0.00
    0   14   16     -1.02      0.00
   -3   15   16      0.58      0.00
   -1   15   16      1.26      0.00
   -4   16   16     -0.43      0.00
   -2   16   16     -1.14      0.00
    4    8   17     -1.32      0.00
  -17    9   17     -1.03      0.00
    3    9   17      0.08      0.00
  -16   10   17      0.20      0.00
    0   10   17      1.27      0.00
    2   10   17     -1.44      0.00
  -15   11   17     -0.49      0.00
   -1   11   17      0.68      0.00
    1   11   17     -0.73      0.00
  -14   12   17      1.20      0.00
   -2   12   17      1.54      0.00
    0   12   17     -1.67      0.00
  -13   13   17     -0.99      0.00
   -3   13   17      1.44      0.00
   -1   13   17      0.26      0.00
  -12   14   17     -0.01      0.00
  -10   14   17      0.83      0.00
   -6   14   17     -0.77      0.00
   -4   14   17     -0.48      0.00
   -2   14   17     -1.03      0.00
   -9   15   17      0.76      0.00
   -7   15   17     -1.85      0.00
   -5   15   17      1.35      0.00
  -18    0   18      1.49      0.00
    4    0   18      0.66      0.00
  -17    7   18     -0.27      0.00
  -16    8   18     -2.41      0.00
    2    8   18      0.72      0.00
  -15    9   18      0.69      0.00
    1    9   18      0.29      0.00
  -14   10   18      0.00      0.00
   -2   10   18     -0.26      0.00
    0   10   18      1.18      0.00
  -13   11   18      0.68      0.00
  -11   11   18     -0.96      0.00
   -3   11   18     -1.02      0.00
   -1   11   18      1.73      0.00
  -12   12   18      0.07      0.00
  -10   12   18      0.48      0.00
   -6   12   18      0.01      0.00
   -4   12   18     -2.38      0.00
   -2   12   18      0.17      0.00
  -11   13   18     -0.17      0.00
   -9   13   18     -0.11      0.00
   -7   13   18      1.78      0.00
   -5   13   18      0.20      0.00
   -3   13   18      1.59      0.00
   -8   14   18      2.10      0.00
   -6   14   18     -1.96      0.00
  -14    8   19     -0.55      0.00
    0    8   19     -0.09      0.00
  -13    9   19     -0.92      0.00
  -11    9   19     -0.84      0.00
   -1    9   19     -0.25      0.00
  -12   10   19      0.99      0.00
  -10   10   19     -0.46      0.00
   -4   10   19     -0.34      0.00
   -2   10   19     -1.87      0.00
  -11   11   19      0.02      0.00
   -9   11   19      0.96      0.00
   -5   11   19      1.98      0.00
   -3   11   19     -0.33      0.00
   -8   12   19     -0.72      0.00
   -6   12   19      1.27      0.00
  -16    0   20      0.39      0.00
    0    0   20     -1.20      0.00
   -1    1   20     -0.77      0.00
    0    2   20      0.96      0.00
  -13    7   20     -1.88      0.00
  -12    8   20     -0.45      0.00
  -10    8   20      1.47      0.00
  -11    9   20      0.36      0.00
  -11    1   21     -0.58      0.00
   -9    1   21     -0.04      0.00
   -7    1   21      0.25      0.00
   -5    1   21     -0.18      0.00
   -3    1   21      0.32      0.00
  -10    2   21      0.54      0.00
   -8    2   21      0.61      0.00
   -6    2   21     -0.37      0.00
   -4    2   21     -0.12      0.00
   -9    3   21     -0.18      0.00
   -5    3   21      0.84      0.00
   -3    3   21     -0.65      0.00
  -10    6   21     -0.26      0.00
    0    0    0      0.00      0.00
# SQUEEZE RESULTS (Version = 270416)
# Note: Data are Listed for all Voids in the P1 Unit Cell
# i.e. Centre of Gravity, Solvent Accessible Volume,
# Recovered number of Electrons in the Void and
# Details about the Squeezed Material
loop_
  _platon_squeeze_void_nr
  _platon_squeeze_void_average_x
  _platon_squeeze_void_average_y
  _platon_squeeze_void_average_z
  _platon_squeeze_void_volume
  _platon_squeeze_void_count_electrons
  _platon_squeeze_void_content
   1  0.180  0.250 -0.070       433        99 ' '
   2  0.680  0.750 -0.070       433        99 ' '
# Missing Reflections Below sin(th)/lambda = 0.25
loop_
  _platon_missing_refln_index_h
  _platon_missing_refln_index_k
  _platon_missing_refln_index_l
  _platon_missing_refln_theta
    2    0    0     2.588
    1    1    0     1.684
    0    2    0     2.156
   -1    1    1     1.807
    1    1    1     2.422
   -2    2    1     3.238
    0    2    1     2.526
   -2    0    2     2.901
    0    0    2     2.630
   -1    1    2     2.675
_platon_squeeze_void_probe_radius                  1.20
_platon_squeeze_details
)
TITL dsmsalnh2 in C2/c; 130K; Xcalibur
CELL   17.0298   18.8904   16.7611     90.00    112.45     90.00
SPGR C2/c
# Solvent Accessible Volume =       865
# Electrons Found in S.A.V. =       196
# Note: Atoms in Void as Cxxx and Qxxx all others
C101 0.500 0.078 0.247 !       3.42 eA-3
C102 1.000 0.359 0.741 !       2.91 eA-3
Q103 0.277 0.390 0.067 !       2.08 eA-3
C104 0.748 0.225 0.496 !       1.60 eA-3
C105 0.720 0.341 0.453 !       1.44 eA-3
C106 0.483 0.202 0.237 !       1.36 eA-3
Q107 0.512 0.402 0.500 !       1.08 eA-3
C108 0.323 0.193 0.068 !       1.07 eA-3
Q109 0.689 0.391 0.351 !       0.83 eA-3
Q110 0.018 0.093 0.578 !       0.61 eA-3
Q111 0.797 0.390 0.061 !       0.61 eA-3
Q112 0.252 0.435 0.416 !       0.59 eA-3
Q113 0.747 0.189 0.911 !       0.55 eA-3
Q114 0.455 0.356 0.365 !       0.54 eA-3
Q115 0.904 0.099 0.783 !       0.54 eA-3
Q116 0.488 0.265 0.432 !       0.53 eA-3
Q117 0.920 0.080 0.803 !       0.52 eA-3
)
;
_shelx_fab_checksum              19637
loop_
_space_group_symop_operation_xyz
'x, y, z'
'-x, y, -z+1/2'
'x+1/2, y+1/2, z'
'-x+1/2, y+1/2, -z+1/2'
'-x, -y, -z'
'x, -y, z-1/2'
'-x+1/2, -y+1/2, -z'
'x+1/2, -y+1/2, z-1/2'
loop_
_atom_site_label
_atom_site_type_symbol
_atom_site_fract_x
_atom_site_fract_y
_atom_site_fract_z
_atom_site_U_iso_or_equiv
_atom_site_adp_type
_atom_site_occupancy
_atom_site_site_symmetry_order
_atom_site_calc_flag
_atom_site_refinement_flags_posn
_atom_site_refinement_flags_adp
_atom_site_refinement_flags_occupancy
_atom_site_disorder_assembly
_atom_site_disorder_group
Zn1 Zn 0.24828(2) 0.37168(2) 0.41939(2) 0.02257(11) Uani 1 1 d . . . . .
Li1 Li 0.0821(3) 0.3833(2) 0.2470(3) 0.0292(9) Uani 1 1 d . . . . .
N1 N 0.34165(14) 0.36492(11) 0.53979(14) 0.0269(5) Uani 1 1 d . . . . .
C1 C 0.38743(16) 0.30652(13) 0.57197(16) 0.0275(5) Uani 1 1 d . . . . .
H1 H 0.3766 0.2654 0.5367 0.033 Uiso 1 1 calc R U . . .
C2 C 0.44937(16) 0.30342(13) 0.65382(16) 0.0283(5) Uani 1 1 d . . . . .
H2 H 0.4802 0.2609 0.6744 0.034 Uiso 1 1 calc R U . . .
C3 C 0.46640(16) 0.36324(13) 0.70605(17) 0.0280(5) Uani 1 1 d . . . . .
C4 C 0.41859(19) 0.42355(15) 0.67277(19) 0.0423(8) Uani 1 1 d . . . . .
H4 H 0.4280 0.4654 0.7066 0.051 Uiso 1 1 calc R U . . .
C5 C 0.35733(19) 0.42239(15) 0.59030(19) 0.0418(8) Uani 1 1 d . . . . .
H5 H 0.3249 0.4640 0.5684 0.050 Uiso 1 1 calc R U . . .
O11 O 0.25717(12) 0.28280(10) 0.36914(12) 0.0316(4) Uani 1 1 d . . . . .
O12 O 0.14348(12) 0.29964(9) 0.24782(12) 0.0312(4) Uani 1 1 d . . . . .
O13 O 0.34427(13) -0.03860(10) 0.22616(14) 0.0398(5) Uani 1 1 d . . . . .
O14 O 0.21846(13) -0.03949(11) 0.11749(15) 0.0429(5) Uani 1 1 d . . . . .
C11 C 0.20541(16) 0.26363(13) 0.29422(17) 0.0270(5) Uani 1 1 d . . . . .
C12 C 0.22292(16) 0.19315(13) 0.26407(17) 0.0280(5) Uani 1 1 d . . . . .
C13 C 0.17542(19) 0.16997(15) 0.18100(19) 0.0390(7) Uani 1 1 d . . . . .
C14 C 0.1902(2) 0.10297(17) 0.1538(2) 0.0440(8) Uani 1 1 d . . . . .
C15 C 0.25406(18) 0.05990(14) 0.21011(18) 0.0330(6) Uani 1 1 d . . . . .
C16 C 0.30069(19) 0.08420(15) 0.29301(18) 0.0378(7) Uani 1 1 d . . . . .
H16 H 0.3440 0.0551 0.3317 0.045 Uiso 1 1 calc R U . . .
C17 C 0.28544(19) 0.14941(16) 0.32005(18) 0.0370(7) Uani 1 1 d . . . . .
H17 H 0.3177 0.1648 0.3772 0.044 Uiso 1 1 calc R U . . .
C18 C 0.27466(18) -0.01061(14) 0.18394(18) 0.0335(6) Uani 1 1 d . . . . .
N11 N 0.1239(4) 0.2123(4) 0.1144(4) 0.0667(19) Uani 0.5 1 d . . P . .
H11A H 0.1194 0.2578 0.1231 0.080 Uiso 0.5 1 calc R U P . .
H11B H 0.0956 0.1937 0.0632 0.080 Uiso 0.5 1 calc R U P . .
N12 N 0.1319(4) 0.0823(3) 0.0729(4) 0.076(3) Uani 0.5 1 d . . P . .
H12A H 0.1338 0.0392 0.0539 0.092 Uiso 0.5 1 calc R U P . .
H12B H 0.0933 0.1125 0.0410 0.092 Uiso 0.5 1 calc R U P . .
O21 O 0.15492(11) 0.39447(11) 0.45399(11) 0.0337(4) Uani 1 1 d . . . . .
O22 O 0.03291(11) 0.38226(9) 0.34054(11) 0.0256(4) Uani 1 1 d . . . . .
C21 C 0.07665(15) 0.40677(13) 0.41375(15) 0.0251(5) Uani 1 1 d . . . . .
C22 C 0.03646(16) 0.45406(14) 0.45868(15) 0.0264(5) Uani 1 1 d . . . . .
C23 C -0.04747(17) 0.44400(15) 0.45042(17) 0.0307(6) Uani 1 1 d . . . . .
C24 C -0.08395(17) 0.48951(16) 0.49123(17) 0.0336(6) Uani 1 1 d . . . . .
N21 N -0.0985(7) 0.3922(6) 0.4056(7) 0.048(3) Uani 0.25 1 d . . P . .
H21A H -0.1507 0.3892 0.4039 0.057 Uiso 0.25 1 calc R U P . .
H21B H -0.0801 0.3611 0.3778 0.057 Uiso 0.25 1 calc R U P . .
N22 N -0.1623(6) 0.4681(5) 0.4885(7) 0.041(3) Uani 0.25 1 d . . P . .
H22A H -0.1849 0.4284 0.4623 0.049 Uiso 0.25 1 calc R U P . .
H22B H -0.1897 0.4941 0.5130 0.049 Uiso 0.25 1 calc R U P . .
O1G O 0.5109(4) 0.3041(4) 0.4644(5) 0.093(2) Uani 0.5 1 d . U P A 1
C1G C 0.4572(5) 0.3042(5) 0.3912(6) 0.0622(19) Uani 0.5 1 d . U P A 1
H1G H 0.4327 0.2603 0.3663 0.075 Uiso 0.5 1 calc R U P A 1
N1G N 0.4320(4) 0.3616(4) 0.3457(5) 0.0588(16) Uani 0.5 1 d . U P A 1
C2G C 0.4644(5) 0.4299(7) 0.3788(9) 0.107(4) Uani 0.5 1 d . U P A 1
H2G1 H 0.4220 0.4661 0.3492 0.160 Uiso 0.5 1 calc R U P A 1
H2G2 H 0.5167 0.4390 0.3690 0.160 Uiso 0.5 1 calc R U P A 1
H2G3 H 0.4766 0.4315 0.4408 0.160 Uiso 0.5 1 calc R U P A 1
C3G C 0.3746(6) 0.3610(7) 0.2594(7) 0.089(3) Uani 0.5 1 d . U P A 1
H3G1 H 0.3249 0.3900 0.2536 0.134 Uiso 0.5 1 calc R U P A 1
H3G2 H 0.3564 0.3123 0.2418 0.134 Uiso 0.5 1 calc R U P A 1
H3G3 H 0.4023 0.3804 0.2226 0.134 Uiso 0.5 1 calc R U P A 1
O1W O 0.5064(15) 0.4054(13) 0.4873(18) 0.072(6) Uani 0.125 1 d . U P B 2
O2W O 0.3081(19) 0.4025(16) 0.148(2) 0.093(8) Uani 0.125 1 d . U P C 2
loop_
_atom_site_aniso_label
_atom_site_aniso_U_11
_atom_site_aniso_U_22
_atom_site_aniso_U_33
_atom_site_aniso_U_23
_atom_site_aniso_U_13
_atom_site_aniso_U_12
Zn1 0.02056(17) 0.01847(16) 0.02057(17) -0.00006(10) -0.00122(12) 0.00075(10)
Li1 0.023(2) 0.024(2) 0.032(2) -0.0019(17) 0.0001(18) 0.0011(17)
N1 0.0230(10) 0.0239(11) 0.0238(11) -0.0012(8) -0.0025(9) 0.0007(8)
C1 0.0297(13) 0.0209(12) 0.0230(12) -0.0005(9) -0.0001(10) 0.0019(10)
C2 0.0283(13) 0.0223(12) 0.0256(12) 0.0037(10) 0.0007(10) 0.0043(10)
C3 0.0220(12) 0.0259(13) 0.0259(13) -0.0006(10) -0.0022(10) -0.0008(10)
C4 0.0402(16) 0.0256(14) 0.0363(15) -0.0087(12) -0.0131(13) 0.0047(12)
C5 0.0386(15) 0.0246(14) 0.0373(15) -0.0048(12) -0.0135(12) 0.0089(12)
O11 0.0341(10) 0.0267(9) 0.0281(9) -0.0079(7) 0.0051(8) 0.0043(8)
O12 0.0302(9) 0.0246(9) 0.0340(10) -0.0015(8) 0.0068(8) 0.0072(8)
O13 0.0407(11) 0.0261(10) 0.0431(11) -0.0046(8) 0.0055(9) 0.0114(9)
O14 0.0375(11) 0.0286(10) 0.0516(13) -0.0154(9) 0.0048(10) 0.0052(9)
C11 0.0282(12) 0.0216(12) 0.0295(13) -0.0008(10) 0.0090(11) 0.0001(10)
C12 0.0265(12) 0.0248(12) 0.0280(13) -0.0042(10) 0.0051(10) 0.0039(10)
C13 0.0335(15) 0.0302(14) 0.0377(15) -0.0072(12) -0.0038(12) 0.0091(12)
C14 0.0456(17) 0.0326(15) 0.0359(15) -0.0104(13) -0.0044(13) 0.0094(14)
C15 0.0351(14) 0.0256(13) 0.0330(14) -0.0041(11) 0.0071(12) 0.0052(11)
C16 0.0416(16) 0.0304(14) 0.0296(14) -0.0004(11) 0.0003(12) 0.0129(12)
C17 0.0397(15) 0.0332(14) 0.0267(13) -0.0045(12) 0.0000(12) 0.0097(13)
C18 0.0372(14) 0.0231(13) 0.0361(14) -0.0031(11) 0.0092(12) 0.0025(11)
N11 0.066(4) 0.053(4) 0.055(4) -0.014(3) -0.005(3) 0.021(3)
N12 0.081(5) 0.048(4) 0.047(3) -0.029(3) -0.035(3) 0.038(3)
O21 0.0236(9) 0.0475(11) 0.0213(9) -0.0045(8) -0.0012(7) 0.0112(8)
O22 0.0238(9) 0.0277(9) 0.0197(8) -0.0042(7) 0.0020(7) 0.0008(7)
C21 0.0236(12) 0.0265(12) 0.0201(11) 0.0007(10) 0.0027(10) 0.0030(10)
C22 0.0234(12) 0.0313(13) 0.0180(11) -0.0017(10) 0.0008(9) 0.0036(10)
C23 0.0263(13) 0.0343(14) 0.0264(13) -0.0080(11) 0.0044(10) -0.0022(11)
C24 0.0236(12) 0.0417(16) 0.0298(13) -0.0088(12) 0.0040(11) -0.0010(11)
N21 0.047(6) 0.054(7) 0.046(6) -0.016(5) 0.023(5) 0.008(5)
N22 0.028(5) 0.040(5) 0.061(6) -0.034(5) 0.023(5) -0.005(4)
O1G 0.063(4) 0.130(6) 0.083(5) 0.002(4) 0.023(4) -0.016(4)
C1G 0.037(3) 0.081(5) 0.074(5) -0.015(4) 0.027(3) -0.014(3)
N1G 0.033(3) 0.073(4) 0.076(4) 0.007(3) 0.028(3) -0.011(3)
C2G 0.035(4) 0.117(8) 0.158(10) 0.003(8) 0.025(5) -0.020(5)
C3G 0.058(5) 0.152(9) 0.071(6) 0.020(6) 0.039(5) 0.001(5)
O1W 0.056(9) 0.066(9) 0.094(10) 0.003(8) 0.027(8) -0.009(7)
O2W 0.091(11) 0.091(11) 0.110(12) -0.016(9) 0.052(9) 0.003(8)
loop_
_atom_type_symbol
_atom_type_description
_atom_type_scat_dispersion_real
_atom_type_scat_dispersion_imag
_atom_type_scat_source
C C 0.0033 0.0016 'International Tables Vol C Tables 4.2.6.8 and 6.1.1.4'
H H 0.0000 0.0000 'International Tables Vol C Tables 4.2.6.8 and 6.1.1.4'
Li Li -0.0003 0.0001 'International Tables Vol C Tables 4.2.6.8 and 6.1.1.4'
N N 0.0061 0.0033 'International Tables Vol C Tables 4.2.6.8 and 6.1.1.4'
O O 0.0106 0.0060 'International Tables Vol C Tables 4.2.6.8 and 6.1.1.4'
Zn Zn 0.2839 1.4301 'International Tables Vol C Tables 4.2.6.8 and 6.1.1.4'
loop_
_geom_angle_atom_site_label_1
_geom_angle_atom_site_label_2
_geom_angle_atom_site_label_3
_geom_angle
_geom_angle_site_symmetry_1
_geom_angle_site_symmetry_3
_geom_angle_publ_flag
N1 Zn1 Li1 170.86(11) . . ?
O11 Zn1 Li1 81.55(10) . . ?
O11 Zn1 N1 102.59(8) . . yes
O11 Zn1 O14 122.42(10) . 4 yes
O11 Zn1 O21 122.66(9) . . yes
O14 Zn1 Li1 85.30(10) 4 . ?
O14 Zn1 N1 99.01(9) 4 . yes
O21 Zn1 Li1 73.15(10) . . ?
O21 Zn1 N1 97.85(8) . . yes
O21 Zn1 O14 105.97(9) . 4 yes
Li1 Li1 Zn1 120.9(2) 2 . ?
O12 Li1 Zn1 68.85(14) . . ?
O12 Li1 Li1 123.31(15) . 2 ?
O12 Li1 O22 112.0(2) . . yes
O12 Li1 O22 113.0(2) . 2 yes
O12 Li1 N21 78.5(3) . 2 yes
O13 Li1 Zn1 63.65(13) 4 . ?
O13 Li1 Li1 124.67(18) 4 2 ?
O13 Li1 O12 109.8(2) 4 . yes
O13 Li1 O22 104.8(2) 4 . yes
O13 Li1 O22 125.2(2) 4 2 yes
O13 Li1 N21 82.9(3) 4 2 yes
O22 Li1 Zn1 77.62(14) . . ?
O22 Li1 Zn1 166.2(2) 2 . ?
O22 Li1 Li1 43.37(14) . 2 ?
O22 Li1 Li1 45.99(13) 2 2 ?
O22 Li1 O22 89.4(2) 2 . yes
O22 Li1 N21 74.0(3) 2 2 yes
O22 Li1 N21 163.0(3) . 2 yes
N21 Li1 Zn1 119.3(3) 2 . ?
N21 Li1 Li1 119.8(3) 2 2 ?
C1 N1 Zn1 124.29(17) . . ?
C5 N1 Zn1 117.79(17) . . ?
C5 N1 C1 117.9(2) . . ?
N1 C1 H1 118.5 . . ?
N1 C1 C2 122.9(2) . . ?
C2 C1 H1 118.5 . . ?
C1 C2 H2 120.3 . . ?
C1 C2 C3 119.3(2) . . ?
C3 C2 H2 120.3 . . ?
C2 C3 C3 121.51(17) . 2_656 ?
C4 C3 C2 117.7(2) . . ?
C4 C3 C3 120.79(18) . 2_656 ?
C3 C4 H4 120.2 . . ?
C5 C4 C3 119.6(3) . . ?
C5 C4 H4 120.2 . . ?
N1 C5 C4 122.6(3) . . ?
N1 C5 H5 118.7 . . ?
C4 C5 H5 118.7 . . ?
C11 O11 Zn1 122.70(17) . . ?
C11 O12 Li1 142.6(2) . . ?
C18 O13 Li1 151.1(2) . 4_545 ?
C18 O14 Zn1 115.61(18) . 4_545 ?
O11 C11 C12 115.6(2) . . ?
O12 C11 O11 124.0(2) . . ?
O12 C11 C12 120.4(2) . . ?
C13 C12 C11 120.4(2) . . ?
C13 C12 C17 119.5(2) . . ?
C17 C12 C11 120.1(2) . . ?
C12 C13 C14 120.3(2) . . ?
N11 C13 C12 125.2(4) . . ?
N11 C13 C14 113.4(4) . . ?
C15 C14 C13 119.8(3) . . ?
N12 C14 C13 114.8(3) . . ?
N12 C14 C15 125.1(3) . . ?
C14 C15 C18 122.2(3) . . ?
C16 C15 C14 118.9(3) . . ?
C16 C15 C18 118.8(2) . . ?
C15 C16 H16 119.4 . . ?
C17 C16 C15 121.3(3) . . ?
C17 C16 H16 119.4 . . ?
C12 C17 H17 119.9 . . ?
C16 C17 C12 120.2(3) . . ?
C16 C17 H17 119.9 . . ?
O13 C18 O14 123.2(2) . . ?
O13 C18 C15 119.6(2) . . ?
O14 C18 C15 117.2(2) . . ?
C13 N11 H11A 120.0 . . ?
C13 N11 H11B 120.0 . . ?
H11A N11 H11B 120.0 . . ?
C14 N12 H12A 120.0 . . ?
C14 N12 H12B 120.0 . . ?
H12A N12 H12B 120.0 . . ?
C21 O21 Zn1 134.39(17) . . ?
Li1 O22 Li1 90.6(2) 2 . yes
C21 O22 Li1 118.9(2) . . ?
C21 O22 Li1 141.5(2) . 2 ?
O21 C21 C22 115.7(2) . . ?
O22 C21 O21 124.4(2) . . ?
O22 C21 C22 119.9(2) . . ?
C23 C22 C21 121.2(2) . . ?
C23 C22 C24 119.8(2) . 5_566 ?
C24 C22 C21 119.0(2) 5_566 . ?
C24 C23 C22 120.2(2) . . ?
N21 C23 C22 125.4(5) . . ?
N21 C23 C24 114.5(5) . . ?
C23 C24 C22 120.1(2) . 5_566 ?
N22 C24 C22 124.8(4) . 5_566 ?
N22 C24 C23 114.4(4) . . ?
Li1 N21 H21A 115.8 2 . ?
Li1 N21 H21B 42.6 2 . ?
C23 N21 Li1 107.5(7) . 2 ?
C23 N21 H21A 120.0 . . ?
C23 N21 H21B 120.0 . . ?
H21A N21 H21B 120.0 . . ?
C24 N22 H22A 120.0 . . ?
C24 N22 H22B 120.0 . . ?
H22A N22 H22B 120.0 . . ?
O1G C1G H1G 118.5 . . ?
O1G C1G N1G 123.0(9) . . ?
N1G C1G H1G 118.5 . . ?
C1G N1G C2G 122.2(9) . . ?
C1G N1G C3G 122.9(8) . . ?
C3G N1G C2G 114.9(9) . . ?
N1G C2G H2G1 109.5 . . ?
N1G C2G H2G2 109.5 . . ?
N1G C2G H2G3 109.5 . . ?
H2G1 C2G H2G2 109.5 . . ?
H2G1 C2G H2G3 109.5 . . ?
H2G2 C2G H2G3 109.5 . . ?
N1G C3G H3G1 109.5 . . ?
N1G C3G H3G2 109.5 . . ?
N1G C3G H3G3 109.5 . . ?
H3G1 C3G H3G2 109.5 . . ?
H3G1 C3G H3G3 109.5 . . ?
H3G2 C3G H3G3 109.5 . . ?
loop_
_geom_bond_atom_site_label_1
_geom_bond_atom_site_label_2
_geom_bond_distance
_geom_bond_site_symmetry_2
_geom_bond_publ_flag
Zn1 Li1 3.188(4) . ?
Zn1 N1 2.041(2) . yes
Zn1 O11 1.9102(18) . yes
Zn1 O14 1.9457(19) 4 yes
Zn1 O21 1.9375(19) . yes
Li1 Li1 2.837(9) 2 ?
Li1 O12 1.891(5) . yes
Li1 O13 1.877(5) 4 yes
Li1 O22 1.948(5) 2 yes
Li1 O22 2.041(5) . yes
Li1 N21 2.683(12) 2 yes
N1 C1 1.340(3) . ?
N1 C5 1.339(3) . ?
C1 H1 0.9500 . ?
C1 C2 1.376(3) . ?
C2 H2 0.9500 . ?
C2 C3 1.390(4) . ?
C3 C3 1.481(5) 2_656 ?
C3 C4 1.388(4) . ?
C4 H4 0.9500 . ?
C4 C5 1.378(4) . ?
C5 H5 0.9500 . ?
O11 C11 1.280(3) . ?
O12 C11 1.246(3) . ?
O13 Li1 1.877(5) 4_545 ?
O13 C18 1.243(3) . ?
O14 Zn1 1.9457(19) 4_545 ?
O14 C18 1.281(3) . ?
C11 C12 1.494(3) . ?
C12 C13 1.387(4) . ?
C12 C17 1.391(4) . ?
C13 C14 1.400(4) . ?
C13 N11 1.381(7) . ?
C14 C15 1.398(4) . ?
C14 N12 1.395(6) . ?
C15 C16 1.389(4) . ?
C15 C18 1.485(4) . ?
C16 H16 0.9500 . ?
C16 C17 1.371(4) . ?
C17 H17 0.9500 . ?
N11 H11A 0.8800 . ?
N11 H11B 0.8800 . ?
N12 H12A 0.8800 . ?
N12 H12B 0.8800 . ?
O21 C21 1.265(3) . ?
O22 Li1 1.948(5) 2 ?
O22 C21 1.256(3) . ?
C21 C22 1.492(3) . ?
C22 C23 1.395(4) . ?
C22 C24 1.406(4) 5_566 ?
C23 C24 1.385(4) . ?
C23 N21 1.334(12) . ?
C24 C22 1.406(4) 5_566 ?
C24 N22 1.379(9) . ?
N21 Li1 2.683(12) 2 ?
N21 H21A 0.8800 . ?
N21 H21B 0.8800 . ?
N22 H22A 0.8800 . ?
N22 H22B 0.8800 . ?
O1G C1G 1.218(10) . ?
C1G H1G 0.9500 . ?
C1G N1G 1.301(11) . ?
N1G C2G 1.430(13) . ?
N1G C3G 1.402(12) . ?
C2G H2G1 0.9800 . ?
C2G H2G2 0.9800 . ?
C2G H2G3 0.9800 . ?
C3G H3G1 0.9800 . ?
C3G H3G2 0.9800 . ?
C3G H3G3 0.9800 . ?
