#------------------------------------------------------------------------------
#$Date: 2019-11-23 03:39:44 +0200 (Sat, 23 Nov 2019) $
#$Revision: 232026 $
#$URL: file:///home/coder/svn-repositories/cod/cif/4/34/68/4346859.cif $
#------------------------------------------------------------------------------
#
# This file is available in the Crystallography Open Database (COD),
# http://www.crystallography.net/
#
# All data on this site have been placed in the public domain by the
# contributors.
#
data_4346859
loop_
_publ_author_name
'\/Oien-\/Odegaard, Sigurd'
'Bouchevreau, Boris'
'Hylland, Knut'
'Wu, Lianpao'
'Blom, Richard'
'Grande, Carlos'
'Olsbye, Unni'
'Tilset, Mats'
'Lillerud, Karl P.'
_publ_section_title
;
 UiO-67-type Metal-Organic Frameworks with Enhanced Water Stability and
 Methane Adsorption Capacity.
;
_journal_issue                   5
_journal_name_full               'Inorganic chemistry'
_journal_page_first              1986
_journal_page_last               1991
_journal_paper_doi               10.1021/acs.inorgchem.5b02257
_journal_volume                  55
_journal_year                    2016
_chemical_formula_moiety         '0.25(C384 H96 O128 Zr24)'
_chemical_formula_sum            'C96 H24 O32 Zr6'
_chemical_formula_weight         2236.47
_chemical_name_common            UiO-67-Me
_space_group_crystal_system      cubic
_space_group_IT_number           225
_space_group_name_Hall           '-F 4 2 3'
_space_group_name_H-M_alt        'F m -3 m'
_atom_sites_solution_hydrogens   difmap
_audit_creation_date             2015-12-07
_audit_creation_method
;
Olex2 1.2
(compiled 2015.09.30 svn.r3233 for OlexSys, GUI svn.r5103)
;
_cell_angle_alpha                90
_cell_angle_beta                 90
_cell_angle_gamma                90
_cell_formula_units_Z            4
_cell_length_a                   26.8690(3)
_cell_length_b                   26.8690(3)
_cell_length_c                   26.8690(3)
_cell_measurement_reflns_used    9920
_cell_measurement_temperature    100(2)
_cell_measurement_theta_max      30.42
_cell_measurement_theta_min      2.65
_cell_volume                     19397.9(4)
_computing_cell_refinement       'APEX2 v2014.11-0 (Bruker-AXS, 2014)'
_computing_data_collection       'APEX2 v2014.11-0 (Bruker-AXS, 2014)'
_computing_data_reduction        'SAINT v8.34A (Bruker-AXS, 2014)'
_computing_molecular_graphics    'Diamond v4.0.1 (Brandenburg, 2014)'
_computing_publication_material  'Olex2 (Dolomanov et al., 2009)'
_computing_structure_refinement  'XL (Sheldrick, 2015)'
_computing_structure_solution    'XS (Sheldrick, 2013)'
_diffrn_ambient_temperature      100.0
_diffrn_detector                 'CCD area detector'
_diffrn_detector_area_resol_mean 13.6986
_diffrn_detector_type            'Marmosaic 225'
_diffrn_measured_fraction_theta_full 0.980
_diffrn_measured_fraction_theta_max 0.984
_diffrn_measurement_device       '\k-geometry diffractometer'
_diffrn_measurement_device_type  'MD2 microdiffractometer with MK3 mini-kappa'
_diffrn_measurement_method       '\f scans'
_diffrn_radiation_collimation    'Rh-coated Si focusing mirrors'
_diffrn_radiation_monochromator  'Silicon 111'
_diffrn_radiation_probe          x-ray
_diffrn_radiation_wavelength     0.750
_diffrn_reflns_av_R_equivalents  0.0161
_diffrn_reflns_av_unetI/netI     0.0099
_diffrn_reflns_Laue_measured_fraction_full 0.980
_diffrn_reflns_Laue_measured_fraction_max 0.984
_diffrn_reflns_limit_h_max       36
_diffrn_reflns_limit_h_min       -34
_diffrn_reflns_limit_k_max       36
_diffrn_reflns_limit_k_min       -27
_diffrn_reflns_limit_l_max       35
_diffrn_reflns_limit_l_min       -13
_diffrn_reflns_number            10712
_diffrn_reflns_point_group_measured_fraction_full 0.980
_diffrn_reflns_point_group_measured_fraction_max 0.984
_diffrn_reflns_theta_full        26.744
_diffrn_reflns_theta_max         30.418
_diffrn_reflns_theta_min         2.653
_diffrn_source                   synchrotron
_diffrn_source_type              'Wiggler, Station I911-3, MAX II, MAXLAB'
_diffrn_standards_number         0
_exptl_absorpt_coefficient_mu    0.406
_exptl_absorpt_correction_T_max  0.7461
_exptl_absorpt_correction_T_min  0.6527
_exptl_absorpt_correction_type   multi-scan
_exptl_absorpt_process_details
;
SADABS-2014/5 (Bruker,2014/5) was used for absorption correction.
wR2(int) was 0.1000 before and 0.0473 after correction.
The Ratio of minimum to maximum transmission is 0.8748.
The \l/2 correction factor is 0.00400.
;
_exptl_crystal_colour            'clear colourless'
_exptl_crystal_density_diffrn    0.766
_exptl_crystal_description       octahedral
_exptl_crystal_F_000             4384
_exptl_crystal_size_max          0.6
_exptl_crystal_size_mid          0.6
_exptl_crystal_size_min          0.4
_refine_diff_density_max         0.353
_refine_diff_density_min         -0.550
_refine_diff_density_rms         0.047
_refine_ls_extinction_method     none
_refine_ls_goodness_of_fit_ref   1.190
_refine_ls_hydrogen_treatment    refall
_refine_ls_matrix_type           full
_refine_ls_number_parameters     59
_refine_ls_number_reflns         1290
_refine_ls_number_restraints     0
_refine_ls_restrained_S_all      1.190
_refine_ls_R_factor_all          0.0215
_refine_ls_R_factor_gt           0.0210
_refine_ls_shift/su_max          0.001
_refine_ls_shift/su_mean         0.000
_refine_ls_structure_factor_coef Fsqd
_refine_ls_weighting_details
'w=1/[\s^2^(Fo^2^)+(0.0342P)^2^+27.3035P] where P=(Fo^2^+2Fc^2^)/3'
_refine_ls_weighting_scheme      calc
_refine_ls_wR_factor_gt          0.0644
_refine_ls_wR_factor_ref         0.0647
_reflns_Friedel_coverage         0.000
_reflns_number_gt                1245
_reflns_number_total             1290
_reflns_threshold_expression     'I > 2\s(I)'
_cod_data_source_file            ic5b02257_si_009.cif
_cod_data_source_block           soesc30s_sq
_cod_original_cell_volume        19397.9(6)
_cod_database_code               4346859
_shelx_space_group_comment
;
The symmetry employed for this shelxl refinement is uniquely defined
by the following loop, which should always be used as a source of
symmetry information in preference to the above space-group names.
They are only intended as comments.
;
_shelx_estimated_absorpt_t_max   0.854
_shelx_estimated_absorpt_t_min   0.793
_olex2_refinement_description
;
1. Others
 Fixed Sof: O003(0.08333) O1(0.08333) C2(0.5) C3(0.5) C0AA(0.25) H2(0.5)
;
_shelx_res_file
;
    soesc30s_sq.res created by SHELXL-2014/7

TITL SOESC30-new_a.res in Fm-3m
REM Old TITL SOESC30-new in Fm-3m
REM SHELXT solution in Fm-3m
REM R1 0.144, Rweak 0.008, Alpha 0.019, Orientation as input
REM Formula found by SHELXT: C84 O41 Zr6
CELL 0.75 26.869 26.869 26.869 90 90 90
ZERR 4 0.0003 0.0003 0.0003 0 0 0
LATT 4
SYMM -X,-Y,+Z
SYMM -X,+Y,-Z
SYMM +X,-Y,-Z
SYMM +Z,+X,+Y
SYMM +Z,-X,-Y
SYMM -Z,-X,+Y
SYMM -Z,+X,-Y
SYMM +Y,+Z,+X
SYMM -Y,+Z,-X
SYMM +Y,-Z,-X
SYMM -Y,-Z,+X
SYMM +Y,+X,-Z
SYMM -Y,-X,-Z
SYMM +Y,-X,+Z
SYMM -Y,+X,+Z
SYMM +X,+Z,-Y
SYMM -X,+Z,+Y
SYMM -X,-Z,-Y
SYMM +X,-Z,+Y
SYMM +Z,+Y,-X
SYMM +Z,-Y,+X
SYMM -Z,+Y,+X
SYMM -Z,-Y,-X
SFAC C H O Zr
DISP C 0.004 0.002 12.834
DISP H -0 0 0.626
DISP O 0.013 0.007 37.215
DISP Zr -2.087 0.642 2874.76
UNIT 384 96 128 24

L.S. 50 0 9
PLAN  30
SIZE 0.6 0.6 0.4
TEMP -173.15
BOND $H
MORE -1
CONF
ABIN
fmap 2
acta
REM <olex2.extras>
REM <HklSrc "%.\\soesc30s_sq.hkl">
REM </olex2.extras>

WGHT    0.034200   27.303499
FVAR       0.13544
ZR01  4    0.500000    0.092044    0.500000    10.12500    0.01019    0.00499 =
         0.01019    0.00000    0.00000    0.00000
O002  3    0.572395    0.131729    0.500000    10.50000    0.01769    0.01220 =
         0.02654    0.00000    0.00000   -0.00606
O003  3    0.448232    0.051768    0.448232    10.08333    0.01018    0.01018 =
         0.01018    0.00201   -0.00201    0.00201
C004  1    0.617278    0.117278    0.500000    10.25000    0.01785    0.01785 =
         0.02697    0.00000    0.00000   -0.00879
C005  1    0.656720    0.156720    0.500000    10.25000    0.02271    0.02271 =
         0.05047    0.00000    0.00000   -0.01469
C006  1    0.730455    0.230455    0.500000    10.25000    0.02067    0.02067 =
         0.06324    0.00000    0.00000   -0.01144
O1    3    0.461517    0.038483    0.461517    10.08333    0.00846    0.00846 =
         0.00846   -0.00029    0.00029   -0.00029
C2    1    0.682161    0.241366    0.486143    10.50000    0.02490    0.01923 =
         0.09124    0.00560   -0.00650   -0.00994
C3    1    0.644985    0.205276    0.486225    10.50000    0.02194    0.02780 =
         0.08830   -0.00497    0.00082   -0.01365
C0AA  1    0.592075    0.226374    0.465635    10.25000    0.02679    0.02452 =
         0.15539    0.03396   -0.03208   -0.01214
H2    2    0.676444    0.272224    0.477197    10.50000    0.04479
HKLF 4

REM  SOESC30-new_a.res in Fm-3m
REM R1 =  0.0210 for    1245 Fo > 4sig(Fo)  and  0.0215 for all    1290 data
REM     59 parameters refined using      0 restraints

END

WGHT      0.0341     27.3124

REM Highest difference peak  0.353,  deepest hole -0.550,  1-sigma level  0.047
Q1    1   0.4334  0.0666  0.4334  10.16667  0.05    0.35
Q2    1   0.6387  0.1387  0.5000  10.25000  0.05    0.31
Q3    1   0.7500  0.2500  0.5000  10.12500  0.05    0.30
Q4    1   0.5000  0.0628  0.5281  10.50000  0.05    0.29
Q5    1   0.4769  0.0231  0.4334  10.50000  0.05    0.24
Q6    1   0.5896  0.2229  0.5000  10.50000  0.05    0.24
Q7    1   0.5000  0.0189  0.4811  10.25000  0.05    0.24
Q8    1   0.7390  0.2084  0.5000  10.50000  0.05    0.23
Q9    1   0.5705  0.2247  0.5000  10.50000  0.05    0.22
Q10   1   0.5740  0.1427  0.5000  10.50000  0.05    0.20
Q11   1   0.5612  0.1108  0.5000  10.50000  0.05    0.20
Q12   1   0.5610  0.1487  0.5000  10.50000  0.05    0.19
Q13   1   0.7233  0.2233  0.5191  10.50000  0.05    0.18
Q14   1   0.5797  0.1308  0.5000  10.50000  0.05    0.18
Q15   1   0.4698  0.1167  0.5000  10.50000  0.05    0.18
Q16   1   0.6158  0.2125  0.4769  11.00000  0.05    0.17
Q17   1   0.7332  0.2175  0.5116  11.00000  0.05    0.16
Q18   1   0.5686  0.2016  0.4314  10.50000  0.05    0.16
Q19   1   0.5000  0.2351  0.5000  10.12500  0.05    0.15
Q20   1   0.5603  0.1076  0.4888  11.00000  0.05    0.15
Q21   1   0.6675  0.2273  0.5000  10.50000  0.05    0.14
Q22   1   0.5977  0.2585  0.4286  11.00000  0.05    0.12
Q23   1   0.5955  0.2609  0.4467  11.00000  0.05    0.12
Q24   1   0.6626  0.2860  0.5000  10.50000  0.05    0.11
Q25   1   0.5298  0.0968  0.5298  10.50000  0.05    0.10
Q26   1   0.6818  0.1475  0.5000  10.50000  0.05    0.10
Q27   1   0.5272  0.4727  0.5000  10.25000  0.05    0.09
Q28   1   0.5943  0.2344  0.4567  11.00000  0.05    0.09
Q29   1   0.5000  0.3428  0.5000  10.12500  0.05    0.08
Q30   1   0.6222  0.3553  0.5000  10.50000  0.05    0.08
;
_shelx_res_checksum              23822
_shelx_hkl_file
;
  -3   1  -1 2296.57   37.10
  -3   3  -1  380.56    7.00
  -3   3   1  385.56    7.20
  -1  -3   3  393.06    6.60
   4   0  -2  146.99    3.00
   4   0   2  143.49    3.10
  -4   2   0  145.39    3.10
   0   4  -2  143.79    2.90
  -4   2  -2   34.00    1.30
  -4   2   2   33.20    1.40
  -2   4  -2   34.20    1.20
   2  -4   2   32.10    1.30
   4  -2   2   34.40    1.40
  -4   4   0  150.48    3.80
   0  -4   4  148.99    3.40
   4  -4   0  158.88    3.90
  -2   4  -4 1207.28   19.90
   4  -2   4 1184.08   20.10
  -4   4  -4  864.41   14.80
   4  -4   4  841.22   14.80
  -5  -1   1 1169.88   19.20
  -5   1  -1 1175.78   19.40
  -5   1   1 1150.28   19.40
   5   1  -1 1147.79   19.20
   5   1   1 1196.68   19.30
  -3   5   1 1997.40   32.90
   3  -5   1 1950.10   32.80
   5  -3   1 2037.20   32.80
  -5   3  -3 1319.47   21.80
  -5   3   3 1315.27   21.90
   5  -3   3 1266.77   21.80
  -5   5  -1 1255.27   21.40
  -1  -5   5 1266.07   20.80
  -1   5  -5 1249.57   21.00
   1  -5   5 1293.67   21.10
  -6   0   2  920.91   15.30
  -2   6   0  917.31   15.80
   6   0  -2  911.41   15.40
   6  -2   0  920.81   15.50
   0   6  -2  906.61   15.40
  -6   2   0  904.71   15.40
   6   2  -2  968.60   16.00
   6  -2  -2  987.50   16.70
  -6  -2   2  949.01   16.00
  -6   2  -2  955.40   16.50
  -6   2   2  948.81   16.50
  -2   6  -2  953.20   16.50
   2   6  -2  965.60   16.10
   6  -4   0 1589.14   26.60
  -6   4   0 1598.64   26.60
   4  -6   2 1686.63   28.10
   6  -2   4 1718.53   28.20
  -4   6   2 1707.93   28.40
  -2   6  -4 1693.63   27.90
  -6   2   4 1709.53   28.10
  -2  -6   4 1673.93   27.40
  -6   4  -2 1665.23   28.10
  -6   4   2 1647.44   28.20
   2  -6   4 1684.43   27.90
   6  -4   2 1714.63   28.20
  -6   4  -4  668.43   12.10
   4  -6   4  673.83   12.00
   0  -6   6 1895.71   31.10
  -6   6   2 2708.63   44.30
  -2  -6   6 2688.03   43.30
  -2   6  -6 2635.24   43.80
   6  -6   4 4264.87   69.29
   6  -4   6 4264.37   69.39
  -7  -1   1 3735.73   59.69
  -1   7  -1 3662.03   59.99
  -1   7  -3  975.40   16.40
  -7   1   3  942.61   16.50
   7  -3  -1  938.21   16.80
   7   1  -3  969.90   16.40
  -1  -7   3  966.90   16.30
   7  -3   1  966.60   16.80
   7  -1  -3  991.40   16.70
   1   7  -3  978.90   16.20
  -7   3   1  982.60   16.70
   7   3  -3  558.54    9.70
  -7   3   3  561.14   10.40
  -3   7  -3  583.04   10.30
   7  -1   5 1290.47   21.60
   7  -5  -1 1258.07   22.00
  -7   1   5 1286.27   21.50
  -1  -7   5 1269.07   21.00
   1  -5   7 1287.17   21.40
   1  -7   5 1247.38   21.30
  -7   5   1 1286.27   21.70
   1   7  -5 1255.17   21.00
   7  -3   5 1310.47   22.80
   5  -7   3 1357.26   22.90
  -5   7   3 1316.07   23.10
  -7   3   5 1365.86   23.00
  -3   7  -5 1342.17   22.60
  -7   5  -3 1340.87   22.90
  -7  -3   5 1330.97   21.90
   3  -7   5 1336.27   22.60
   5  -3   7 1343.47   22.90
   7  -5   3 1362.66   22.90
   7   5  -3 1357.96   21.70
  -7   5  -5 3215.88   52.19
  -5   7  -5 3157.98   52.09
   5  -5   7 3211.18   52.19
   7  -5   5 3144.79   51.99
  -7   7  -1   50.29    2.20
  -7   7   1   49.50    2.20
  -1  -7   7   47.30    1.60
   1  -7   7   44.90    1.70
   7  -7  -1   45.10    2.40
   7  -7   1   50.09    2.40
   7  -3   7 3226.08   53.09
  -7   7  -5 7594.74  122.49
  -8   0   2  224.98    4.40
  -2   8   0  224.48    5.00
   8   0   2  231.28    4.80
   8  -2   0  221.08    4.90
   8   2   0  221.58    4.60
  -8   2   0  229.18    4.70
   8   2  -2 3028.10   49.50
   8  -2   2 3095.29   49.90
   2   8  -2 3087.99   49.60
  -8   2  -2 3022.20   49.99
  -8   0   4  629.34   11.20
   0  -8   4  640.84   11.30
   0   8  -4  640.24   11.10
   8   4   0  636.64   11.00
  -8   4   0  618.94   11.50
  -4   8   2  481.95    9.40
   4  -8   2  479.55    9.30
   8  -2   4  490.65    9.20
   8  -4  -2  473.25    9.40
  -2   8  -4  492.25    8.70
  -8   4   2  474.65    9.10
  -4   8  -2  480.75    9.10
  -8  -2   4  476.65    8.40
   4  -4   8  265.67    5.80
  -4   8  -4  270.87    5.60
   8   4  -4  279.47    5.10
   4   8  -4  281.67    4.90
   8  -4   4  266.97    5.70
  -8   0   6   10.90    1.00
   0   8  -6   11.10    1.00
   8  -6   0   10.00    1.40
   0  -8   6    9.10    0.90
  -6   8   0    9.80    1.20
   0  -6   8   10.50    1.00
   6  -8   0    8.70    1.30
  -8   6   0    9.70    1.10
  -8   2   6  427.66    8.30
   8  -6  -2  406.16    8.60
  -2   8  -6  423.56    8.00
   8  -2   6  426.16    8.40
   2  -6   8  434.16    8.10
  -2  -8   6  429.36    7.60
  -8   6  -2  406.56    8.10
   6  -8   2  414.56    8.40
  -6   8   2  412.36    8.60
  -8  -2   6  409.36    7.60
  -2  -6   8  428.86    7.60
   8  -6   2  423.26    8.40
   8  -4   6 2847.92   46.30
  -4   8  -6 2770.52   46.10
   4  -6   8 2845.02   46.10
  -8   6  -4 2812.12   46.30
  -8   6   4 2787.32   46.60
   6  -4   8 2727.63   46.20
   6  -6   8 7305.07  117.99
   0  -8   8 1970.80   32.20
   8  -8   0 1942.91   33.40
  -8   8  -2    8.60    1.10
  -8   8   2   11.40    1.30
  -2  -8   8    9.50    0.80
   2  -8   8    9.30    1.00
   8  -8   2    9.50    1.20
   8  -2   8    8.80    1.30
  -8   8   4 2825.32   46.90
   4  -8   8 2798.42   46.10
   8  -8   4 2782.62   46.30
  -8   8   6 5751.22   93.89
  -8   8  -8 4359.76   72.69
   8  -8   8 4515.65   72.39
  -9   1   3  242.88    5.10
   9  -3  -1  246.38    5.40
  -3   9   1  234.08    5.40
   9  -1   3  242.18    5.30
   9   1  -3  248.08    5.10
   9  -1  -3  245.68    5.40
  -9  -1   3  239.38    4.70
   1   9  -3  245.58    4.90
   1  -9   3  249.18    5.30
  -3   9  -1  244.68    5.20
  -9  -3   3  155.18    3.20
  -9   3   3  145.29    3.70
  -3   9  -3  151.98    3.70
   9   3  -3  154.58    3.30
   3   9  -3  144.09    3.20
   3  -9   3  149.29    3.90
   9  -3   3  149.29    3.70
   5  -9   1   64.39    2.60
   9  -5  -1   59.99    2.70
  -1  -9   5   63.89    2.10
  -1   9  -5   60.09    2.10
  -5   9   1   58.19    2.50
   9  -1   5   58.59    2.40
  -9   5  -1   61.89    2.20
   9  -5   1   64.99    2.60
  -5   9  -1   59.09    2.40
  -9  -1   5   58.99    1.90
   9   5  -1   62.89    1.90
  -9   5   1   60.29    2.40
   1   9  -5   60.69    1.90
   5  -9   3  386.36    7.80
   5   9  -3  378.26    6.70
  -3   9  -5  383.06    7.50
   3  -9   5  370.76    7.50
   3   9  -5  369.26    6.70
  -9  -3   5  378.06    6.70
   9   5  -3  384.66    6.70
  -5   9  -3  370.76    7.60
   9  -5   5  945.71   16.60
   5  -9   5  927.51   16.60
  -9   5   5  967.90   17.10
  -5   9  -5  936.11   16.70
   5   9  -5  932.61   15.40
   9  -7  -1  586.44   11.40
   7  -9   1  598.24   11.40
  -7   9   1  595.74   11.00
  -9   7  -1  574.34   11.00
  -1   9  -7  560.34   10.50
  -9   1   7  574.64   10.80
  -9  -1   7  585.94   10.50
   1  -9   7  588.04   10.60
  -7   9  -1  559.64   11.00
  -7   9   3  167.08    4.70
  -9   7  -3  166.78    4.30
   9  -3   7  171.78    4.40
   7  -9   3  168.68    4.30
  -9   3   7  170.28    4.40
   3  -7   9  172.28    4.20
  -9   7   3  166.28    4.30
   9   7  -3  175.18    3.20
  -3  -7   9  173.18    3.60
   3  -9   7  167.28    4.10
   9  -7   3  172.98    4.30
   7  -3   9  168.98    4.40
   5  -7   9 3021.00   50.29
  -9   5   7 3059.49   50.69
  -9   7  -5 3056.89   50.39
  -7   9   5 3051.09   50.89
  -7   9  -7 3997.10   66.19
   7  -9   7 4065.09   66.19
   9  -7   7 4035.60   65.99
   1  -9   9 7021.00  112.09
   9  -9  -1 6910.81  113.19
   9  -9   1 6955.30  113.19
  -3  -9   9 1958.20   31.70
   3  -9   9 1934.31   32.20
   9  -3   9 1898.61   32.70
  -9  -5   9    1.50    0.50
  -9   9  -5    1.70    0.90
  -9   9   5    1.30    1.20
  -5  -9   9    1.70    0.40
   5  -9   9    1.60    0.80
   9  -9   5    1.00    0.80
   9  -5   9    0.90    1.00
  -9   9   7   81.09    3.30
   7  -9   9   87.09    2.90
   9  -9   7   85.79    3.10
   9  -7   9   90.89    3.20
   9  -9   9 1832.72   31.30
 -10   0   2 1552.54   25.90
  10   0  -2 1573.24   26.10
  10   0   2 1526.15   26.10
   0  10  -2 1552.14   26.10
  10   2   2 3145.59   52.69
 -10   2   2 3203.78   52.69
  -2  10  -2 3248.97   52.89
   2  10  -2 3286.77   52.59
  10   2  -2 3144.59   52.39
  10  -2  -2 3301.27   52.99
 -10   4   0   36.80    1.70
  10   0   4   34.30    2.00
  10   4   0   35.30    1.70
 -10   0   4   34.20    1.60
  -4  10   0   33.90    2.00
  10   0  -4   37.50    2.00
  10  -4   0   38.70    2.10
   0  10  -4   36.20    1.60
  -4  10   2   21.60    1.80
   4 -10   2   22.00    1.80
  -2  10  -4   24.00    1.50
 -10   2   4   21.30    1.40
 -10   4  -2   23.70    1.60
  10   2  -4   23.50    1.50
  10  -2   4   21.30    1.60
   2  10  -4   22.80    1.20
  10   2   4   21.70    1.60
   2 -10   4   21.70    1.60
 -10   4   2   24.00    1.60
  10  -4   2   21.00    1.70
  10   4  -2   22.30    1.20
 -10  -2   4   23.70    1.10
  10  -4   4   22.80    1.50
  10   4  -4   21.30    1.30
   4  10  -4   19.20    1.00
   4 -10   4   21.40    1.70
 -10   4  -4   17.50    1.60
 -10  -4   4   20.10    1.00
 -10   4   4   20.60    1.70
  -4  10  -4   18.90    1.50
   0  -6  10    2.80    0.80
  -6  10   0    2.50    0.90
 -10   0   6    3.70    0.70
 -10   6   0    2.40    0.90
  10  -6   0    2.60    1.10
   0 -10   6    3.40    0.80
   0  10  -6    2.50    0.70
  -2 -10   6  176.38    3.90
 -10   2   6  170.08    4.30
 -10   6  -2  168.58    4.40
  -2  10  -6  164.48    4.10
  10  -6  -2  178.78    4.80
  10  -2   6  170.58    4.40
  -6  10   2  168.38    4.70
   2  -6  10  178.18    4.10
   6 -10   2  171.08    4.70
  -6  10  -2  170.88    4.40
   2 -10   6  170.78    4.20
   2  10  -6  174.98    3.70
 -10   6  -4  243.78    5.60
  10  -4   6  247.18    5.60
   4  -6  10  248.98    5.60
  -4  10  -6  244.58    5.50
 -10   4   6  244.38    5.70
  -6  10   4  232.28    5.90
 -10  -4   6  238.88    4.50
   4 -10   6  239.48    5.40
  10  -6   4  238.08    5.60
 -10   6   4  247.48    5.50
  10   6  -4  240.88    4.40
   6  -4  10  250.17    5.60
  -6  10  -4  235.08    5.30
   4  10  -6  236.78    4.50
  10  -6   6 1891.31   31.80
   6  -6  10 1909.51   32.10
 -10   6  -6 1864.91   31.80
 -10   6   6 1904.91   32.40
   6 -10   6 1910.11   31.80
  -6  10  -6 1846.92   31.90
 -10   8   0 6005.10   98.49
   8 -10   0 6123.39   98.99
  10  -8   0 6069.99   98.99
   8 -10   2 5984.80   95.09
   2 -10   8 5727.63   94.19
 -10  -2   8 5754.62   93.89
   8  10  -4  685.53   11.40
  10  -4   8  688.53   13.00
 -10   8  -4  672.13   13.00
   4  -8  10  684.13   12.80
  -8  10   4  666.33   13.40
 -10   4   8  704.23   13.20
   8  -4  10  699.03   13.00
  -8  10  -4  701.93   12.70
   4 -10   8  687.63   12.80
  10  -8   4  700.03   12.90
  10   8  -4  691.63   11.40
   8 -10   6   24.10    1.70
  10  -6   8   20.30    1.80
  -8  10   6   20.00    2.00
 -10   8  -6   22.90    1.80
 -10   6   8   22.10    2.00
  -8  10  -6   23.80    1.80
 -10  -6   8   23.80    0.70
 -10   8   6   24.10    2.10
  -6  -8  10   23.80    0.90
   6 -10   8   24.90    1.80
   8  -6  10   23.70    1.90
  10  -8   6   24.80    1.90
 -10   8  -8  422.16    8.90
 -10   8   8  415.86    9.20
   8 -10   8  441.36    8.90
   8  -8  10  418.06    8.80
 -10  10   0 3848.52   63.99
   0 -10  10 3917.31   63.29
 -10  10  -2 5351.26   86.49
 -10  10   2 5321.37   86.79
  10 -10   2 5241.18   86.99
  10  -2  10 5328.47   86.59
 -10  -4  10  549.85    9.80
 -10  10   4  538.05   10.90
  -4 -10  10  548.35    9.60
  10  -4  10  549.85   10.90
  10  10  -4  539.05    9.00
 -10  -6  10  124.39    2.60
  -6 -10  10  128.69    2.60
   8 -10  10 2728.13   45.70
  10 -10  10 2982.40   49.99
 -11  -1   1 2137.19   35.10
 -11   1  -1 2139.39   35.30
 -11   1   1 2152.68   35.20
  -1  11  -1 2081.49   35.50
   1  11  -1 2117.59   35.30
  11  -1  -1 2092.19   35.20
 -11   3  -1  272.37    5.90
 -11   1   3  261.17    5.50
  -3  11   1  274.27    6.20
  -1  11  -3  267.37    5.60
   1  11  -3  266.87    5.50
  -3  11  -1  260.07    5.80
  11  -3   1  269.97    6.00
 -11  -1   3  265.87    5.50
  11  -1  -3  276.67    6.10
  11   1   3  269.07    5.80
 -11   3   1  263.57    5.60
 -11   3   3  726.13   13.20
  11  -3   3  726.83   13.20
 -11  -3   3  731.13   12.60
  11   3  -3  717.23   12.80
   3 -11   3  736.03   13.50
   3  11  -3  721.73   12.80
  11  -3  -3  732.73   13.60
  -1  11  -5    4.00    0.80
 -11   5  -1    2.80    0.90
  11  -5  -1    2.30    1.10
 -11   1   5    2.90    0.70
  -5  11   1    2.60    1.10
  11  -1   5    2.60    1.00
  11   5   1    2.80    0.70
  11   1   5    1.70    0.90
  11  -5   1    1.90    0.90
   1 -11   5    2.50    0.90
 -11   5   1    2.00    0.90
   1  11  -5    1.90    0.60
  -5  11  -1    1.80    0.90
  11   5  -1    1.10    0.60
 -11  -1   5    2.40    0.70
  11  -3   5    3.90    1.00
  11  -5  -3    5.20    1.40
  -3  11  -5    6.20    1.00
   5 -11   3    5.40    1.20
   5  11  -3    5.10    0.70
 -11   3   5    5.30    1.00
 -11   5  -3    6.40    1.10
  -5  11   3    4.90    1.20
 -11   5   3    4.20    1.00
  -5  11  -3    3.70    1.00
 -11  -3   5    6.50    0.70
   3 -11   5    5.80    1.10
  11  -5   3    3.60    1.10
  11   5  -3    5.20    0.70
   3  11  -5    5.10    0.70
   5  11  -5  253.07    4.70
  11  -5   5  256.67    5.70
 -11   5  -5  255.87    5.80
  -1 -11   7 2431.36   40.70
 -11   1   7 2509.45   40.90
  11  -7  -1 2437.16   41.70
 -11   7  -1 2455.65   41.00
   1  -7  11 2498.35   40.90
  -1  11  -7 2501.65   40.80
 -11   7   1 2481.35   41.30
  11   7  -1 2429.16   40.30
 -11   7  -3 1885.41   31.80
  -3  11  -7 1877.91   31.50
   7 -11   3 1891.01   32.20
  11  -3   7 1882.71   31.80
 -11   3   7 1859.71   31.80
   3  -7  11 1899.11   31.60
 -11  -3   7 1876.81   30.70
  -7  11  -3 1818.42   31.70
  11  -7   3 1868.21   31.70
   3 -11   7 1871.61   31.60
 -11   7   3 1828.22   31.70
 -11   5   7    2.20    1.00
   5  -7  11    1.60    0.90
   7 -11   5    2.70    0.90
   7  11  -5    1.80    0.30
 -11   7  -5    2.50    1.00
  -7  11   5    1.40    1.20
  11  -5   7    1.80    0.90
  -5  11  -7    0.30    0.80
   7  -5  11    0.90    0.90
   5 -11   7    1.30    0.80
 -11  -5   7    1.40    0.40
  11  -7   5    1.20    1.00
  -7  11  -5    1.70    1.00
 -11   7   5    1.90    1.00
  -7  11  -7   20.30    1.70
   7 -11   7   21.30    1.70
   7  -7  11   25.50    1.90
 -11   7  -7   22.00    1.80
  11  -7   7   25.10    1.80
  11  -9  -1 5071.09   82.89
   9 -11   1 5116.59   82.89
 -11   1   9 5112.99   82.29
 -11   9   1 4950.90   82.49
 -11  -1   9 4978.50   81.99
  -9  11  -1 5048.49   82.49
  11  -3   9 3049.89   50.19
   9 -11   3 3058.39   50.49
  -3  11  -9 2966.70   49.70
  -3 -11   9 3019.40   49.00
  -9  11   3 2942.91   50.29
  -3  -9  11 3036.40   49.10
 -11   9   3 2987.40   50.29
  -9  11  -3 3000.40   49.80
   9  -3  11 3055.39   50.19
  -5  11  -9  259.97    5.80
  11  -5   9  253.37    6.10
 -11   5   9  254.07    6.30
   5  -9  11  251.47    6.00
  -5  -9  11  255.97    4.90
  -9  11  -5  250.87    6.10
 -11  -5   9  257.47    4.80
   5 -11   9  257.57    6.00
 -11   9   5  252.77    6.20
   9  -5  11  256.07    6.20
  11  -7   9  642.24   12.00
 -11   9  -7  618.34   12.20
  -7  -9  11  633.64   10.40
 -11   9   7  616.44   12.60
  -9  11  -7  599.84   12.10
   7 -11   9  634.04   12.20
   9  -7  11  615.54   12.20
  11  -9   7  607.94   12.20
  -9  11  -9 2085.49   35.00
   9 -11   9 2055.89   35.30
   9  -9  11 2073.49   35.00
  11  -9   9 2028.00   35.20
 -11  11  -1 4304.17   71.89
  11 -11   1 4454.45   72.59
  -3 -11  11 2678.43   43.80
  11  -3  11 2662.33   44.90
 -11  -5  11  294.87    5.70
 -11  11  -5  286.37    6.80
 -11  11   5  285.87    7.00
  -5 -11  11  296.77    5.50
  11 -11   5  281.47    6.90
  11  -5  11  288.77    6.80
 -11  11   7 2860.71   48.50
 -11  11   9 2629.74   44.80
  11 -11   9 2613.74   44.40
  11 -11  11 3343.77   55.89
 -12   0   2  681.73   12.20
  -2  12   0  661.13   12.70
  12   0  -2  667.03   12.40
  12   0   2  701.03   12.30
 -12   2   0  664.93   12.40
   0  12  -2  679.83   12.40
  12  -2   2   46.30    2.20
  12  -2  -2   54.59    2.30
 -12   2  -2   51.79    2.20
 -12   2   2   50.99    2.00
 -12  -2   2   50.79    1.90
   2  12  -2   49.20    2.10
  12   2   2   51.79    2.10
  -4  12   0  566.34   11.20
  12   0   4  558.64   11.00
 -12   0   4  576.84   10.40
  12   4   0  582.24   10.50
   0  12  -4  594.24   10.70
  12  -4   0  586.94   11.20
  12  -2   4   34.70    2.10
  12   4   2   39.00    2.00
  12  -4  -2   41.90    2.60
 -12   2   4   38.80    1.90
  -4  12   2   37.10    2.20
 -12   4  -2   35.40    1.90
  12   2  -4   40.40    2.10
  -2  12  -4   35.40    1.80
  12  -4   2   41.40    2.30
  -4  12  -2   38.00    1.90
  12  -2  -4   38.50    2.40
 -12   4   2   38.10    1.90
  12   4  -2   36.30    1.70
  12   2   4   39.60    2.30
   2 -12   4   36.00    2.10
 -12  -2   4   35.40    1.60
 -12   4   4    5.30    1.00
 -12   4  -4    5.80    1.10
  12  -4   4    5.70    1.20
  -4  12  -4    6.70    1.10
   4  12  -4    6.00    0.80
  12   4  -4    6.20    0.90
  12   0   6 1147.19   20.60
  12   6   0 1165.78   19.90
 -12   6   0 1170.98   20.30
   0 -12   6 1184.58   20.30
 -12   0   6 1158.08   20.10
   0  12  -6 1190.88   20.00
   6 -12   2   80.39    3.20
 -12   2   6   83.99    2.80
  -6  12   2   81.69    3.20
  12  -6  -2   90.19    3.40
  -2  12  -6   81.49    2.70
   2  12  -6   82.59    2.40
 -12  -2   6   83.79    2.40
   2 -12   6   90.19    3.00
 -12   6   2   85.79    3.00
  12   2   6   84.69    3.00
  -6  12  -2   81.99    3.00
  12  -6   2   84.99    3.10
  12  -4   6    1.60    0.90
   6  12  -4    1.80    0.50
   6 -12   4    1.80    1.10
   4  -6  12    3.10    0.90
 -12   4   6    1.00    0.80
  -6  12   4    1.00    1.00
  -4  12  -6    1.40    0.90
 -12   6  -4    2.30    1.00
   4 -12   6    1.50    0.90
  12  -6   4    0.70    1.00
   4  12  -6    1.00    0.50
  12   6  -4    2.30    0.50
 -12   6   4    1.30    0.90
  -6  12  -4    2.50    0.90
 -12  -4   6    2.20    0.60
   6  12  -6   74.49    1.80
 -12   6   6   75.19    2.90
  -6  12  -6   70.79    2.80
   6 -12   6   79.99    2.80
  12  -6   6   68.49    2.80
 -12   6  -6   75.49    2.80
   6  -6  12   74.59    2.90
  12   0   8 3756.52   60.49
   0 -12   8 3678.53   60.09
  -8  12   0 3589.24   60.59
  12  -2   8 1286.67   22.90
  12  -8  -2 1319.57   23.40
   8 -12   2 1275.17   23.20
  -2  12  -8 1307.27   22.50
 -12   2   8 1313.07   22.70
   2  12  -8 1323.47   21.80
   2 -12   8 1270.07   22.50
   4  -8  12  527.95   10.40
 -12   8  -4  537.05   10.60
  -4  12  -8  529.65   10.40
 -12   4   8  520.15   10.60
   8 -12   4  531.55   10.90
  12   8  -4  542.05    9.10
   4 -12   8  524.25   10.40
  -8  12  -4  514.05   10.20
   8  -4  12  522.05   10.50
  12  -8   4  521.35   10.40
  -4  -8  12  540.75    9.60
 -12   8   4  538.25   10.70
  12  -6   8    4.50    1.10
 -12   8  -6    4.90    1.10
   8 -12   6    3.30    1.10
  -8  12   6    4.80    1.40
 -12   6   8    6.00    1.40
  -6  12  -8    6.10    1.30
   6  -8  12    4.00    1.20
 -12   8   6    5.10    1.30
  12  -8   6    4.40    1.20
   6 -12   8    5.30    1.10
  -6  -8  12    5.20    0.70
 -12  -6   8    6.40    0.50
  -8  12  -6    6.40    1.30
   8  -6  12    7.00    1.30
 -12   8   8   14.10    1.80
  12  -8   8   13.20    1.60
 -12   8  -8   17.40    1.80
   8  -8  12   17.80    1.80
  -8  12  -8   16.70    1.80
  -8  -8  12   16.80    0.80
   0 -10  12 4540.55   72.79
  12   0  10 4434.36   73.39
 -12  10   0 4511.45   73.39
 -12   0  10 4496.65   73.09
  12 -10   0 4333.97   73.79
  12  -2  10 3374.76   55.09
   2 -10  12 3380.76   54.69
 -10  12   2 3314.77   55.19
  -2 -12  10 3251.27   54.09
 -12   2  10 3300.17   54.99
  -2 -10  12 3255.67   53.99
   2 -12  10 3334.87   54.69
 -12  -2  10 3404.46   54.29
 -10  12  -2 3254.27   54.99
  12 -10   2 3254.57   55.39
  -4 -12  10  744.43   13.20
 -12  10  -4  751.22   14.40
  10 -12   4  755.22   14.70
   4 -10  12  742.33   14.00
 -10  12  -4  766.72   14.10
  12  10  -4  771.02   12.60
  10  -4  12  770.72   14.50
  -6  12 -10  541.45   10.80
  12  -6  10  539.45   11.00
  10 -12   6  521.75   11.00
 -12   6  10  556.64   11.30
   6 -12  10  549.85   10.90
 -10  12  -6  551.94   11.00
  -6 -10  12  550.54    9.50
  12 -10   6  535.65   10.80
   8 -10  12 1552.04   26.60
  10 -12   8 1557.44   26.80
 -12   8  10 1556.24   27.30
  -8  12 -10 1524.35   26.80
 -10  12   8 1572.74   27.50
 -12  10  -8 1515.85   26.60
 -12  10   8 1517.55   27.40
 -10  12  -8 1492.85   26.90
   8 -12  10 1510.15   26.90
 -12  10  10 2006.70   35.20
 -10  12 -10 1984.60   34.70
  10 -12  10 2073.19   34.90
  12 -12   0 5625.14   92.49
  -2 -12  12 2259.97   37.40
   2 -12  12 2245.88   37.80
  12 -12   2 2238.88   38.90
 -12  -4  12  561.14   10.40
 -12  12  -4  540.45   11.20
 -12  12   4  549.85   11.40
  -4 -12  12  567.54   10.10
   4 -12  12  571.44   11.10
  12 -12   4  564.04   11.60
  12  12  -4  554.44    9.40
 -12  -6  12 1144.49   18.70
 -12  12  -6 1109.29   20.30
 -12  12   6 1101.69   20.60
  12  -6  12 1122.09   20.40
 -12  12   8 1640.04   29.40
   8 -12  12 1653.63   28.80
 -12  12 -10 1558.34   27.70
 -12  12  10 1588.84   28.20
  12 -12  10 1561.64   27.80
 -12  12  12 1432.26   25.60
  12 -12  12 1355.96   24.90
 -13   1  -1 5044.70   83.29
   1  13  -1 5098.49   83.39
  13  -1  -1 5174.38   83.39
  13  -1   1 5124.89   83.39
  13   1   1 5190.28   82.99
  -1  13  -3    0.70    0.80
 -13   1   3    1.70    0.70
  13  -3  -1    2.00    0.90
  -3  13   1    0.20    1.00
 -13   3  -1    0.50    0.80
  13  -1   3    0.80    0.80
  13   1  -3    1.40    0.90
  13   3   1    0.50    0.70
  -3  13  -1    0.70    0.90
  13  -3   1    1.00    0.90
  13   3  -1    0.40    0.70
  13   1   3    0.80    0.90
  13  -1  -3    1.50    1.00
 -13   3   1    0.20    0.80
 -13  -1   3    1.50    0.70
   1  13  -3    1.10    0.70
   3  13  -3 1087.19   18.80
  13   3   3 1094.89   19.10
 -13   3   3 1095.79   19.10
  13  -3   3 1090.09   19.40
  13   3  -3 1064.79   18.70
 -13  -3   3 1096.69   18.60
  -5  13   1  152.98    4.50
  13  -5  -1  152.88    4.50
  13  -1   5  162.88    4.40
  -1  13  -5  164.18    4.10
 -13   5  -1  153.98    4.30
  -5  13  -1  157.18    4.40
  13  -5   1  152.48    4.40
   1  13  -5  164.88    3.90
 -13  -1   5  160.58    3.70
  13   1   5  161.48    4.30
  13   3  -5  986.90   17.00
   5  13  -3  982.30   16.80
  -3  13  -5  981.90   17.10
  13  -5  -3  974.60   17.90
 -13   3   5  958.50   17.30
  13   3   5  959.00   17.10
   3  13  -5  971.50   16.60
 -13   5   3  939.31   17.40
  13  -5   3  938.81   17.50
  -5  13  -3  990.20   17.50
   5 -13   5  167.88    4.80
   5  13  -5  171.78    3.70
  13  -5   5  169.28    4.60
  13   5  -5  166.48    3.80
 -13   5  -5  165.38    4.40
  -1 -13   7  597.14   11.30
   1  -7  13  616.54   11.50
  -1  13  -7  622.34   11.40
  13  -1   7  605.54   11.80
   1  13  -7  611.74   11.10
  13   1   7  590.84   11.70
   1 -13   7  614.34   11.70
  -3  13  -7  236.58    5.50
 -13   7  -3  236.58    5.80
 -13   3   7  226.48    5.50
   7 -13   3  235.28    6.10
   3  13  -7  240.38    4.90
  13  -7   3  227.58    5.70
   3 -13   7  243.78    5.80
 -13   7   3  226.38    5.70
  13   7  -3  241.58    4.80
 -13  -3   7  240.08    4.80
  -7  13  -3  227.78    5.70
   7 -13   5  507.05   10.50
   7  13  -5  514.45    8.80
 -13   7  -5  495.05   10.30
  -7  13   5  509.45   10.70
 -13  -5   7  515.45    9.00
   5  13  -7  503.05    8.90
 -13   7   5  510.05   10.30
  -7  13  -7 1070.89   19.20
 -13   7  -7 1060.89   19.40
  -1 -13   9 2914.51   47.40
  13  -9  -1 2853.11   48.40
  -9  13  -1 2853.41   48.00
  13   9  -1 2838.32   46.90
   1  13  -9 2870.81   47.10
   9 -13   3  369.86    8.50
 -13   3   9  372.56    8.00
  -3  13  -9  377.26    7.80
  -9  13   3  379.06    8.30
  13  -3   9  363.16    8.00
  -3 -13   9  373.66    7.30
  -3  -9  13  368.06    7.20
  13  -9   3  357.16    8.00
 -13  -3   9  355.46    7.10
   5  -9  13   42.70    2.30
  13  -5   9   38.30    2.40
 -13   9  -5   38.00    2.30
  -9  13   5   38.20    2.70
 -13   5   9   40.40    2.50
   9  13  -5   41.30    1.10
  -5  13  -9   36.30    2.20
  -5  -9  13   40.90    1.60
  -9  13  -5   36.60    2.20
 -13   9   5   40.10    2.40
 -13  -5   9   39.10    1.50
   9  -5  13   39.00    2.30
  13  -9   5   38.70    2.30
   9 -13   7   11.60    1.60
   7  -9  13   15.30    1.70
  -7  13  -9   14.50    1.70
  -9  13   7   15.20    1.90
 -13   7   9   14.40    1.90
  13  -7   9   16.80    1.70
 -13   9  -7   13.50    1.60
  13  -9   7   11.60    1.60
  -9  13  -7   11.80    1.60
   7 -13   9   14.40    1.60
 -13   9   7   14.00    1.80
  -7  -9  13   14.20    1.00
   9  -7  13   13.10    1.70
  13  -9   9  559.24   11.50
 -13   9   9  575.54   12.00
  -9  -9  13  559.54    9.40
  -9  13  -9  557.14   11.40
   9  -9  13  593.24   11.60
 -13  11  -1 2944.21   49.70
 -13   1  11 3039.10   49.99
  11 -13   1 3044.00   50.69
 -13  -1  11 2959.60   49.50
  13 -11   1 2970.70   50.69
 -13  11   1 2978.70   49.99
  13  -3  11  491.85   10.40
 -13   3  11  497.75   10.40
  -3 -13  11  514.15    9.40
 -13  11  -3  485.35   10.30
  11 -13   3  507.85   10.90
  11  -3  13  508.15   10.10
  13 -11   3  483.35   10.60
  -3 -11  13  513.75    9.20
  13  11  -3  508.55    8.80
 -11  13  -3  489.65   10.00
  13  -5  11  110.29    3.90
 -13  11  -5  113.19    3.90
  11 -13   5  117.49    4.10
 -11  13   5  116.59    4.10
 -13   5  11  122.39    4.20
  -5 -13  11  118.19    2.90
   5 -13  11  117.29    3.80
  -5 -11  13  122.89    2.90
 -13  11   5  112.39    4.00
 -11  13  -5  111.99    3.90
 -13  11  -7  515.15   10.70
 -11  13   7  509.25   11.10
 -13   7  11  503.15   10.90
   7 -11  13  527.95   10.30
 -11  13  -7  512.85   10.60
 -13  11   7  495.35   10.80
  -7 -11  13  519.25    8.90
   7 -13  11  528.75   10.70
  11  -7  13  499.45   10.70
  13 -11   7  524.85   10.60
  13  -9  11  865.61   16.00
 -13   9  11  882.21   16.80
 -11  13   9  851.31   16.80
   9 -11  13  851.41   15.90
  11 -13   9  851.41   16.20
 -11  13  -9  839.92   16.20
 -13  11   9  870.51   16.80
 -13  11  11  947.01   18.30
  11 -13  11  947.71   17.90
 -13   1  13 2749.43   46.40
 -13  13   1 2788.12   46.60
  13 -13   1 2728.93   47.00
 -13  -3  13    5.30    1.10
 -13   3  13    7.00    1.50
 -13  13  -3    7.40    1.30
 -13  13   3    6.00    1.30
  -3 -13  13    5.00    0.90
   3 -13  13    7.80    1.40
  13 -13   3    6.10    1.70
  13  -3  13    5.10    1.40
  13  13  -3    5.50    0.70
 -13  13   5   66.19    3.10
  -5 -13  13   69.69    2.20
   5 -13  13   72.39    3.10
  13 -13   5   71.89    3.30
  13  -5  13   66.69    3.10
 -13  -7  13  152.48    3.00
 -13  13   7  147.99    4.80
   7 -13  13  149.29    4.60
  13 -13   7  147.09    4.80
  13  -7  13  149.59    4.70
 -13   9  13  486.55   11.00
 -13  13   9  516.75   11.20
  11 -13  13  341.37    8.10
  13 -13  11  343.67    8.20
 -13  13  13  577.54   12.50
  13 -13  13  575.64   12.10
  14   0   0 9999.00  160.88
  -2  14   0 1435.66   25.60
  14   0  -2 1448.46   25.10
  14   0   2 1496.85   25.00
 -14   2   0 1466.25   25.20
  14  -2   0 1440.16   25.10
  14   2   0 1488.65   25.00
  14  -2   2  576.34   11.30
  14   2  -2  579.54   10.90
  14   2   2  585.34   11.10
   2  14  -2  602.64   11.20
 -14  -2   2  577.54   10.80
 -14   2  -2  603.44   11.20
  -4  14   0  371.76    8.10
 -14   4   0  363.46    7.80
   0  14  -4  376.16    7.60
  14  -4   0  364.66    8.00
  14   4   0  383.96    7.30
 -14   0   4  377.06    7.60
  14  -2   4 1659.63   27.80
  14   2  -4 1666.43   27.90
   4  14  -2 1658.93   27.70
 -14   4  -2 1607.74   28.10
  14   4   2 1603.74   27.70
  -2  14  -4 1599.34   27.90
  14  -4   2 1605.24   28.20
 -14  -2   4 1666.03   27.50
 -14   4   2 1595.84   27.70
  -4  14  -2 1659.53   28.10
  14  -4   4 2916.41   48.80
   4  14  -4 2972.90   48.00
  -4  14  -4 2940.71   48.70
 -14   4   4 2888.01   48.60
 -14   0   6   82.49    2.70
  14   0   6   81.99    3.00
  -6  14   0   80.29    3.00
  14   6   0   83.99    2.70
  -6  14   2  179.78    5.20
  14  -6  -2  180.68    5.20
 -14   6  -2  178.48    4.80
 -14   2   6  185.38    4.70
  -2  14  -6  190.08    4.50
  14  -2   6  183.68    4.90
  14  -6   2  177.48    4.90
  14   6  -2  191.98    4.20
 -14   6   2  189.88    4.90
  -6  14  -2  174.88    4.80
  14   2   6  186.78    4.90
   2 -14   6  192.08    4.90
   2  14  -6  183.48    4.10
   6  14  -4 3087.39   50.79
  -6  14   4 3083.89   52.39
   6 -14   4 3215.68   52.39
   4  -6  14 3176.38   51.99
  -6  14  -4 3064.19   51.89
 -14   6   4 3086.69   51.89
   4 -14   6 3176.28   52.29
  14   4   6 3061.89   51.79
   4  14  -6 3150.78   50.69
  -6  14  -6 2197.98   37.30
 -14   6   6 2161.88   37.30
   6 -14   6 2247.48   37.80
   0 -14   8 1272.57   22.20
  -8  14   0 1242.68   22.50
   0  14  -8 1296.17   21.80
 -14   0   8 1265.57   21.90
 -14   8   0 1240.58   22.10
  -2  14  -8   64.39    2.60
  14  -8  -2   69.39    3.30
 -14   2   8   68.09    2.70
 -14   8  -2   65.89    2.80
   2  -8  14   62.39    2.70
  14  -2   8   64.09    2.80
  -2  -8  14   69.49    2.40
 -14  -2   8   64.99    2.30
  14   2   8   60.59    2.60
  -8  14  -2   60.59    2.80
   2  14  -8   67.79    2.30
   8 -14   4  864.11   16.70
  14  -4   8  849.91   16.20
  -8  14   4  844.12   16.60
  -4  14  -8  875.71   16.00
   8  14  -4  888.21   15.00
  14   8  -4  887.81   14.90
  -8  14  -4  872.91   15.90
 -14  -4   8  880.71   15.10
   4  14  -8  881.01   15.00
   8  14  -6 1329.07   21.80
   8 -14   6 1346.57   24.10
  14  -6   8 1366.66   23.50
 -14   6   8 1311.47   23.60
  -6  14  -8 1330.87   23.60
   8  -6  14 1369.56   23.90
  -8  14  -6 1297.97   23.70
  14  -8   6 1371.96   23.90
  -8  14  -8  460.65    9.60
  14  -8   8  448.96    9.60
  14   0  10 1928.01   33.40
  14 -10   0 1979.10   34.20
  -2  14 -10 1039.90   18.50
 -14   2  10 1069.39   18.80
 -10  14   2 1034.10   19.20
  -2 -14  10 1056.59   18.40
  10 -14   2 1021.10   19.50
 -14  10   2 1045.40   19.10
  -2 -10  14 1062.19   18.30
  14  10  -2 1019.80   17.70
  14 -10   2 1026.70   19.40
 -14   4  10   34.70    2.40
   4 -10  14   32.30    2.20
  10 -14   4   32.30    2.60
  10  14  -4   34.40    1.40
  14  -4  10   30.50    2.20
  -4  14 -10   33.50    2.00
 -10  14   4   35.40    2.40
  14 -10   4   30.80    2.30
 -10  14  -4   31.00    2.00
   4 -14  10   33.00    2.20
  14  10  -4   33.10    1.30
  -4 -10  14   36.00    1.70
 -14  -4  10   32.50    1.60
 -14   6  10  101.79    3.90
  -6  14 -10  108.49    3.50
  10 -14   6  104.99    4.00
 -10  14   6  101.89    4.10
   6 -10  14  110.39    3.70
 -14  10  -6   99.29    3.70
 -14  -6  10  103.59    2.40
  -6 -10  14  106.49    2.70
   6 -14  10  104.79    3.70
 -14  10   6  103.59    3.80
  10  -6  14  100.29    3.70
  14 -10   6  106.99    3.70
 -10  14  -6   98.69    3.60
  14  -8  10   80.09    3.10
  -8  14 -10   81.79    3.10
  10 -14   8   75.49    3.30
 -14   8  10   75.59    3.50
 -14  10  -8   85.59    3.30
 -10  14   8   80.69    3.70
  10  -8  14   82.99    3.40
 -14  10   8   83.89    3.50
  14 -10   8   81.09    3.40
 -14  10  10  580.44   12.20
  14 -10  10  560.54   11.70
 -10  14 -10  578.84   11.50
  14 -12   0 2068.29   35.60
 -12  14   0 2006.10   35.00
  14  -2  12  265.67    6.70
 -12  14   2  287.77    6.60
 -14  12  -2  276.87    6.50
 -14   2  12  286.57    6.90
  12 -14   2  269.17    7.10
 -14  -2  12  269.17    6.00
  12  -2  14  269.37    6.70
  14 -12   2  265.67    7.20
  14  12  -2  273.07    5.50
   2 -14  12  285.17    6.30
  -4 -14  12  138.89    3.70
  12 -14   4  137.09    4.90
 -14   4  12  141.39    4.70
   4 -12  14  148.29    4.10
   4 -14  12  143.69    4.30
  -4 -12  14  146.29    3.60
  12  -4  14  145.49    4.50
  14  12  -4  142.19    2.90
  14 -12   4  136.79    4.70
 -12  -6  14   24.90    1.60
 -14  12  -6   25.30    2.20
 -12  14   6   29.60    2.40
   6 -12  14   27.00    2.10
  12 -14   6   23.20    2.20
 -14   6  12   23.60    2.30
   6 -14  12   21.20    2.00
 -12  14  -6   22.40    2.00
  -6 -12  14   25.80    1.30
  12  -6  14   20.20    2.00
  14 -12   6   24.30    2.20
 -12  14   8   54.29    3.20
   8 -12  14   58.09    2.80
  14  -8  12   53.69    2.70
 -14   8  12   61.59    3.30
 -12  -8  14   57.59    1.40
 -14  12   8   64.39    3.30
 -12  14  -8   57.29    3.00
  14 -12   8   57.59    2.90
  12  -8  14   64.09    3.10
   8 -14  12   59.29    3.10
  12 -14  10  233.98    6.20
  14 -10  12  224.68    6.10
 -12  14  10  234.58    6.60
  10 -12  14  221.18    6.00
 -14  10  12  234.38    6.70
  12 -10  14  225.38    5.80
  14 -12  10  228.18    6.20
 -14  12  12  215.88    6.40
  12 -12  14  201.58    5.80
  14 -12  12  203.48    5.80
 -14  14   0 2698.43   45.40
   0 -14  14 2657.83   44.80
 -14  -2  14  372.26    8.00
 -14  14  -2  377.26    8.10
 -14  14   2  371.96    8.50
  -2 -14  14  377.46    7.50
   2 -14  14  353.96    8.00
  14  -2  14  366.86    8.30
 -14  -4  14  303.87    6.40
 -14  14   4  297.57    7.20
  14 -14   4  309.87    7.90
  14  -4  14  315.77    7.50
 -14   6  14  203.28    6.00
 -14  14  -6  206.08    5.60
 -14  14   6  197.98    5.70
   6 -14  14  200.68    5.60
  14 -14   6  200.28    5.80
 -14   8  14    1.10    1.50
 -14  14  -8    0.10    1.20
 -14  14   8    0.20    1.30
   8 -14  14    0.60    1.30
  14 -14   8   -0.10    1.30
  14  -8  14    0.20    1.20
 -14  10  14   54.29    3.50
 -14  14 -10   47.50    2.90
 -14  14  10   53.89    3.30
  10 -14  14   49.20    3.00
  14 -14  10   53.19    3.10
  14 -10  14   51.69    2.70
 -14  12  14   51.99    3.40
 -14  14  12   55.89    3.50
  12 -14  14   49.00    3.10
  14 -14  12   52.89    3.00
  14 -12  14   57.79    3.10
 -14  14  14   46.50    3.40
  14 -14  14   39.80    3.00
  -1  15  -1 3190.18   53.89
  15  -1  -1 3327.87   53.79
  15  -1   1 3234.88   53.69
  15   1  -1 3231.88   53.39
 -15   1   3  112.39    3.40
  -3  15   1  105.09    3.80
   3  15  -1  113.09    3.50
  -1  15  -3  110.19    3.50
  15   3   1  108.79    3.10
  15  -3  -1  111.79    3.50
  15   1   3  107.99    3.40
 -15  -1   3  113.49    3.30
  15   3  -1  107.69    3.20
  -3  15  -1  106.49    3.40
 -15   3   1  105.19    3.40
  15  -1  -3  115.39    3.70
   1  15  -3  109.49    3.30
 -15   3  -3  672.73   12.60
  15   3   3  680.63   12.60
  -3  15  -3  678.83   12.50
  15  -3  -3  645.54   13.10
  15  -3   3  659.63   12.80
  15  -5  -1 1436.16   25.10
 -15   1   5 1398.86   24.10
  -1  15  -5 1435.46   24.40
  -5  15   1 1390.26   25.00
 -15   5  -1 1424.96   24.80
  15  -1   5 1412.16   24.70
  15   5   1 1417.46   24.30
 -15  -1   5 1419.36   24.20
  -5  15  -1 1373.16   24.80
  15   5  -1 1407.46   23.90
   1  15  -5 1429.16   24.20
  15   1   5 1419.96   24.70
  -5  15   3 3596.94   61.39
  15  -5  -3 3719.63   61.39
 -15   5  -3 3651.23   60.89
 -15  -3   5 3762.82   60.19
  15   3   5 3696.33   60.79
  -5  15  -3 3667.63   60.89
  -5  15  -5 6692.63  108.39
 -15   5   5 6627.34  108.69
  15  -5   5 6633.64  108.79
   5 -15   5 6800.42  109.09
 -15   7  -1   42.90    2.40
  15   7   1   47.90    2.10
  15  -1   7   45.90    2.50
 -15   1   7   42.30    2.20
  15  -7  -1   43.10    2.80
  -1  15  -7   45.70    2.20
  15   1   7   44.90    2.40
 -15  -1   7   50.49    2.00
   1 -15   7   50.09    2.50
 -15   7   1   47.50    2.30
  15  -7   1   44.40    2.50
  -7  15  -1   46.50    2.40
   1  15  -7   49.60    2.20
  15  -7  -3 1283.77   23.00
  -7  15   3 1222.18   22.80
  -3  15  -7 1255.27   22.10
   7  15  -3 1245.98   21.50
 -15  -3   7 1271.37   21.50
  15   3   7 1271.27   22.20
   3  15  -7 1269.47   21.50
   3 -15   7 1232.38   22.50
  -7  15  -3 1261.77   22.40
  15   7  -3 1277.37   21.40
   7 -15   5 4610.84   74.59
  -5  15  -7 4409.96   73.89
 -15   5   7 4460.85   73.79
  -7  15   5 4465.05   74.49
   5  15  -7 4563.94   72.69
   7  -5  15 4488.15   74.09
 -15   7   5 4435.26   73.99
 -15  -5   7 4555.54   72.79
   7  -7  15 2642.24   43.90
  15  -7   7 2549.94   43.80
 -15   7   7 2529.35   43.80
  -7  15  -7 2601.14   43.70
   7 -15   7 2630.34   44.10
  -1  15  -9  619.34   11.70
  15  -1   9  614.14   12.20
  15   9   1  609.14   11.40
  -1 -15   9  629.14   11.80
  15  -9  -1  605.84   12.70
  15  -9   1  616.24   12.70
 -15  -1   9  630.14   11.60
  15   9  -1  621.14   11.30
   1 -15   9  610.44   12.10
   1  15  -9  611.14   11.50
 -15   9   1  616.34   12.00
  15   1   9  618.44   12.20
 -15   3   9   82.39    3.10
  15  -3   9   75.69    3.20
 -15   9  -3   77.79    3.20
  -3  15  -9   79.39    3.10
   9 -15   3   82.59    3.60
   3  15  -9   76.49    2.40
  -9  15  -3   76.89    3.20
 -15  -3   9   78.09    2.30
   3 -15   9   74.89    3.20
  15   3   9   80.39    3.20
 -15   9   3   85.79    3.30
  15   9  -3   78.49    2.30
  -9  15   5 1768.02   31.60
 -15   9  -5 1793.92   31.20
   5  -9  15 1813.52   31.00
  -5  -9  15 1820.62   30.00
  15   9  -5 1775.92   29.50
 -15  -5   9 1815.22   29.70
   5 -15   9 1761.72   31.00
   9 -15   7  785.42   15.20
  15  -7   9  765.02   14.60
  -7  15  -9  757.12   14.70
  -9  15   7  780.02   15.40
  -7  -9  15  765.22   13.40
   7 -15   9  782.72   14.70
   9 -15   9   30.00    2.30
  -9  15  -9   31.80    2.30
 -15   9   9   28.20    2.40
  -9  -9  15   28.40    1.30
  15  -9   9   29.30    2.40
  -9  15   9   27.00    2.60
   9  -9  15   31.50    2.40
  -1 -15  11  718.03   13.10
  15 -11  -1  674.93   14.00
  15  -1  11  693.03   13.60
 -15  11  -1  671.93   13.10
   1 -11  15  688.33   13.10
  -1 -11  15  689.03   12.90
 -15  -1  11  687.03   12.90
   1 -15  11  680.23   13.10
 -11  15  -1  702.83   13.60
  15   1  11  698.33   13.30
  15  11  -1  695.03   12.40
  15  -3  11    5.70    1.40
 -15   3  11    7.10    1.40
 -11  15   3    4.70    1.40
  -3 -15  11    4.30    1.10
 -15  11  -3    4.00    1.30
  11 -15   3    6.00    1.60
   3 -11  15    4.30    1.20
 -15  -3  11    4.00    1.00
  -3 -11  15    6.80    1.10
  11  -3  15    3.80    1.30
   3 -15  11    4.10    1.20
  15  11  -3    4.80    0.70
 -11  15  -3    6.00    1.30
  15 -11   3    4.00    1.40
 -15  11   3    5.20    1.40
 -15  11  -5  752.52   14.60
 -15   5  11  754.82   14.80
  11 -15   5  776.42   15.20
  -5  15 -11  729.13   14.40
 -11  15  -5  755.82   14.60
   5 -15  11  754.32   14.60
  11  -5  15  771.82   14.70
 -15  11   5  763.22   14.50
  -7  15 -11   23.20    2.10
 -15   7  11   26.60    2.40
  15  -7  11   25.80    2.10
 -11  15   7   28.50    2.60
   7 -11  15   25.60    2.10
  11  -7  15   29.00    2.30
 -11  15  -7   26.40    2.30
 -15  11   7   28.50    2.40
  15 -11   7   24.20    2.20
   7 -15  11   25.80    2.30
 -11  15   9  137.89    4.90
 -11  -9  15  131.29    2.60
  15  -9  11  126.19    4.30
 -15   9  11  129.29    4.70
 -11  15  -9  133.09    4.40
 -15  11   9  134.99    4.50
   9 -15  11  135.79    4.50
  -9 -11  15  129.49    2.50
  11  -9  15  126.19    4.40
 -15  11  11  421.96    9.70
 -11  15 -11  420.36    9.30
 -11  15  11  406.46    9.70
  11 -11  15  408.96    8.90
  15 -11  11  418.16    9.40
 -15  13  -1  654.53   12.50
   1 -13  15  650.13   12.40
 -13  15   1  648.74   13.00
  15  -1  13  636.74   12.80
  15   1  13  640.04   12.90
  13  -1  15  639.54   12.90
 -15  -1  13  647.84   12.30
 -13  15  -1  651.73   12.90
 -15  13  -3  212.08    5.60
  15  -3  13  195.48    5.50
 -13  -3  15  202.88    5.10
   3 -13  15  200.28    5.30
  -3 -15  13  205.58    5.00
  13 -15   3  206.78    6.00
 -15   3  13  207.78    5.80
  -3 -13  15  202.08    4.80
   3 -15  13  212.38    5.30
 -13  15  -3  199.18    5.30
 -15  -3  13  201.58    4.90
 -15  13   3  195.98    5.60
  15 -13   3  203.38    6.10
  15  13  -3  195.58    4.20
 -15  13  -5  937.41   17.40
  13 -15   5  958.40   18.10
   5 -13  15  898.01   17.10
 -13  15   5  913.71   17.50
 -13  -5  15  950.70   16.40
  15 -13   5  904.51   17.60
  -5 -13  15  900.41   15.90
 -15  13   5  908.61   17.30
  13  -5  15  904.71   17.30
 -13  15  -5  939.01   17.40
   7 -13  15  316.57    7.50
  13 -15   7  293.07    7.60
 -15  13  -7  313.77    7.50
 -13  -7  15  304.57    5.80
  15  -7  13  300.67    7.40
   7 -15  13  318.17    7.30
 -15  -7  13  309.27    5.60
 -13  15  -7  312.67    7.50
 -15   9  13    3.00    1.60
  15  -9  13    5.40    1.40
 -13  15   9    3.40    1.60
   9 -13  15    2.90    1.40
  13 -15   9    4.70    1.50
  13  -9  15    4.00    1.40
 -13  15  -9    4.60    1.50
  15 -13   9    3.10    1.50
 -15  13   9    4.80    1.50
   9 -15  13    4.40    1.50
  15 -11  13    4.70    1.60
 -15  11  13    4.50    1.90
  13 -15  11    5.30    1.70
 -13  15  11    6.20    1.90
  11 -13  15    5.30    1.60
 -13  15 -11    6.60    1.60
 -15  13  11    4.20    1.70
  11 -15  13    6.20    1.50
  13 -11  15    5.70    1.40
  15 -13  11    5.10    1.50
 -15  13  13    0.70    1.60
 -13  15  13    1.00    1.60
  13 -15  13    1.10    1.30
  13 -13  15    1.20    1.40
  15 -13  13    0.90    1.50
 -15  -1  15  480.85   10.10
 -15  15  -1  486.95   10.00
 -15  15   1  484.35   10.30
  -1 -15  15  487.55    9.60
   1 -15  15  467.35    9.90
 -15  -3  15  324.27    7.00
 -15   3  15  326.77    7.90
 -15  15  -3  308.17    7.50
 -15  15   3  319.87    7.80
   3 -15  15  331.87    7.60
  15 -15   3  320.27    8.20
  15  -3  15  312.07    7.70
  15  15  -3  326.97    6.10
 -15  -5  15 2593.44   42.00
 -15  15   5 2508.65   43.20
   5 -15  15 2559.14   43.20
  15 -15   5 2509.25   43.80
  15  -5  15 2514.05   43.30
 -15   7  15 1001.10   19.40
 -15  15  -7 1030.20   19.00
 -15  15   7  982.00   19.00
  15 -15   7  994.00   19.20
  15  -7  15 1043.00   19.00
 -15  15  -9  158.88    5.00
 -15  15   9  160.08    5.20
   9 -15  15  155.08    5.10
  15  -9  15  159.08    4.80
 -15  11  15   11.80    2.20
 -15  15  11   11.20    2.10
  11 -15  15    8.20    1.80
  15 -15  11   10.10    2.10
  15 -11  15   10.60    1.80
 -15  13  15  207.38    6.50
 -15  15  13  211.88    6.60
 -13  15  15  204.48    6.50
  13 -15  15  213.88    6.20
  15 -15  13  204.28    5.90
  15 -13  15  220.98    6.20
 -15  15  15  310.57    8.30
  15 -15  15  290.27    7.70
 -16   0   0 5377.36   88.19
   0  16   0 5459.25   88.59
  16   0   0 5404.26   88.29
 -16   0   2  300.97    6.60
  16   0   2  291.57    6.70
  16  -2   0  282.77    6.70
  16   2   0  303.67    6.60
 -16   2   0  298.27    6.70
 -16   2   2   71.39    2.80
  16   2   2   76.49    2.70
   2  16  -2   78.99    3.00
 -16   2  -2   80.79    3.00
  -2  16  -2   70.29    2.90
  -2  16   2   74.99    3.20
  16  -2   2   74.39    3.00
  16   2  -2   75.39    2.80
  -4  16   0 1085.39   19.90
  16  -4   0 1104.09   19.80
 -16   4   0 1105.99   19.70
  16  -2   4 1774.72   30.90
 -16   4  -2 1767.72   31.10
  16   4   2 1823.02   30.90
  16  -4  -2 1840.02   31.60
  16   2  -4 1849.91   31.00
  -2  16  -4 1833.92   31.00
  16  -2  -4 1840.02   31.40
 -16  -2   4 1791.02   30.60
  16   2   4 1819.72   31.00
 -16   4   2 1786.82   31.00
  16   4   4 2703.03   45.00
  -4  16  -4 2706.63   45.10
  -4  16   4 2621.64   45.60
 -16   4   4 2705.93   44.70
  16  -4  -4 2695.63   45.60
 -16   0   6  750.72   13.40
 -16   6   0  752.82   14.10
  16  -6   0  734.33   14.40
  -6  16   0  726.23   14.20
  16  -6  -2 1770.22   30.90
 -16   6  -2 1721.03   30.30
  16   6   2 1769.62   29.90
  -2  16  -6 1788.42   29.70
   6  16  -2 1709.23   29.70
  16  -6   2 1729.83   30.50
  16   2   6 1714.63   30.20
  16   6  -2 1785.12   29.50
 -16  -2   6 1784.22   29.60
 -16   6  -4 5206.48   84.19
 -16   4   6 5066.49   83.89
  -4  16  -6 5167.28   83.69
 -16   6   4 5143.89   84.09
   4 -16   6 5033.00   84.29
  -6  16  -4 5263.97   84.19
   4  16  -6 5050.49   82.99
   6 -16   6 7198.88  116.29
 -16   6  -6 7172.58  115.99
 -16   6   6 7046.00  115.89
  16  -6   6 7084.59  115.89
  16  -8   0  277.47    7.10
   0  -8  16  283.67    6.40
 -16   0   8  282.47    6.30
  -8  16   2   85.39    3.30
  16  -8  -2   92.19    3.80
  -2  16  -8   84.29    3.10
   2  -8  16   94.99    3.20
  16   8   2   92.69    3.10
 -16   2   8   87.99    3.20
 -16   8  -2   82.49    3.30
 -16   8   2   87.49    3.20
   2  16  -8   86.99    2.80
   2 -16   8   89.09    3.50
  -8  16  -2   86.49    3.40
  16  -8   2   92.99    3.50
  16   8  -2   91.89    2.70
  16   2   8   82.59    3.30
   8 -16   4 2019.80   35.50
  16   8   4 2083.99   34.80
  16  -4   8 2057.29   34.80
   4 -16   8 2031.40   35.30
   4  16  -8 2078.79   33.90
 -16   8   4 1978.80   35.00
  -8  16   6 3615.14   60.19
   8 -16   6 3590.94   60.19
 -16   6   8 3605.14   59.59
   6 -16   8 3592.24   59.99
  -8  16  -6 3591.04   59.59
 -16   8   6 3508.25   59.49
   8 -16   8  660.53   13.40
  -8  16  -8  663.43   13.10
 -16   8   8  673.13   13.30
  16  -8   8  653.53   13.10
  -8  16   8  664.63   13.70
   0 -16  10  538.85   10.80
 -16  10   0  519.95   10.60
 -16   0  10  526.55   10.40
  16   0  10  528.65   11.00
   0 -10  16  549.15   10.60
   0  16 -10  535.35   10.20
 -10  16   2  163.68    5.00
 -16  10  -2  170.78    4.90
  16  10   2  163.58    4.40
 -16   2  10  160.68    4.60
  16 -10   2  161.28    5.10
 -16  -2  10  171.18    4.20
   2 -16  10  163.08    4.90
  -2 -10  16  174.08    4.40
 -10  16  -2  159.28    4.80
 -16  10  -4  444.46    9.40
 -16   4  10  429.06    9.30
  10 -16   4  424.76    9.70
  10  -4  16  425.86    9.30
 -10  16  -4  439.36    9.10
  -4 -10  16  443.96    8.50
  16  10  -4  419.56    7.90
 -10  16   6  947.81   18.10
  -6  16 -10  936.11   17.40
 -16  10  -6  969.30   17.70
  10  16  -6  930.61   15.20
  10 -16   6  955.80   18.20
 -16   6  10  970.10   17.40
 -10  16  -6  931.81   17.50
  16 -10   6  914.11   17.60
   6 -16  10  918.11   17.50
  -6 -10  16  920.21   16.30
  10 -16   8    9.30    1.80
  -8  16 -10    8.80    1.60
 -10  16   8   10.90    1.90
 -16   8  10    8.60    1.60
 -16  10  -8    9.10    1.60
   8 -10  16   12.40    1.80
  16  -8  10    8.00    1.60
  16 -10   8   10.00    1.70
  10  -8  16    9.40    1.70
 -10  16  -8    8.80    1.60
   8 -16  10   12.00    1.70
 -16  10   8   10.30    1.70
  -8 -10  16   10.20    0.90
 -16  10  10  534.65   11.40
  16 -10  10  544.75   11.40
 -10  16  10  550.74   11.90
 -10 -10  16  546.45    9.30
  10 -10  16  541.15   11.40
  16 -12   0  637.64   13.30
 -16   0  12  635.04   12.30
   0 -16  12  651.93   12.50
  16   0  12  617.04   12.70
 -12  16   0  654.03   12.90
  16  -2  12   26.40    2.20
 -12  16   2   25.50    2.10
 -16  12  -2   25.40    2.20
   2 -16  12   26.10    2.10
  16 -12   2   24.60    2.40
 -16  -2  12   23.90    1.80
 -16  12   2   24.10    2.10
  -2 -12  16   22.90    1.70
  16  12  -2   21.20    1.50
 -12  16  -2   27.10    2.20
  12  -2  16   22.20    2.10
  12  16  -4  429.66    7.80
 -16  12  -4  437.56    9.50
  12 -16   4  442.26   10.00
 -16   4  12  451.25    9.50
 -16  12   4  420.86    9.50
  -4 -12  16  440.96    8.30
 -16  -4  12  421.46    8.30
  12 -16   6  522.65   11.70
 -16  12  -6  551.74   11.30
 -16   6  12  517.75   11.30
 -16  -6  12  552.24    9.60
  16 -12   6  530.55   11.30
   6 -16  12  555.64   11.40
  12 -16   8    9.00    1.80
 -16  12  -8   10.60    1.60
 -16   8  12   10.30    2.00
  16  -8  12   11.40    1.60
 -12  -8  16   10.60    1.00
   8 -12  16   10.40    1.50
 -12  16   8   11.10    1.90
  -8 -12  16    9.20    0.80
 -16  12   8    9.70    1.70
  16 -12   8    8.80    1.80
   8 -16  12    8.80    1.70
 -12  16  -8    9.50    1.70
  12  -8  16    8.10    1.60
 -16  10  12  111.79    4.40
  16 -10  12  107.69    4.10
 -12  16  10   99.49    4.40
  12 -16  10  111.49    4.00
 -16  12  10  109.19    4.20
  12 -10  16  101.99    4.00
  16 -12  10  103.99    4.00
  10 -16  12   96.89    4.10
  12 -16  12   33.60    2.80
 -12  16  12   29.10    2.80
  16 -12  12   32.60    2.80
  12 -12  16   29.80    2.50
 -16  12  12   27.50    2.70
   0 -14  16  119.79    3.80
   0 -16  14  118.89    3.80
  16   0  14  120.39    4.10
 -16   0  14  112.69    3.90
  -2 -16  14  157.38    4.40
 -16   2  14  156.38    4.90
 -14  -2  16  158.28    4.70
  16  -2  14  151.78    4.90
 -14  16   2  159.98    5.00
   2 -14  16  163.08    4.70
  16   2  14  155.48    4.90
  14  -2  16  161.88    4.70
  -2 -14  16  161.18    4.40
 -16  -2  14  154.78    4.40
  16  14  -2  160.98    3.80
 -16  14   2  162.18    4.90
   2 -16  14  156.28    4.80
 -16  14  -4 2197.38   37.40
 -14  16   4 2132.69   37.20
 -14  -4  16 2111.19   36.50
  14 -16   4 2158.28   37.90
  16  -4  14 2158.28   37.30
   4 -14  16 2182.58   37.20
  -4 -14  16 2175.08   36.10
 -14  16  -4 2208.98   37.30
 -16  14   4 2191.28   37.40
  14  -4  16 2135.59   37.40
 -14  -6  16 2613.14   42.80
 -16  14  -6 2655.33   44.30
  16  -6  14 2540.35   44.30
   6 -14  16 2592.84   44.30
 -14  16  -6 2666.83   44.40
  16 -14   6 2580.64   44.70
   6 -16  14 2569.84   44.00
 -16  14  -8  770.02   15.10
   8 -14  16  744.03   15.00
 -16   8  14  768.62   15.60
 -14  16  -8  789.32   15.20
  14  -8  16  790.62   15.20
   8 -16  14  750.12   14.80
 -16  14   8  778.32   15.30
 -14  16  10  125.29    4.80
  10 -14  16  121.49    4.50
 -16  14 -10  118.79    4.40
 -16  10  14  120.19    4.80
  16 -10  14  124.69    4.30
  10 -16  14  118.39    4.30
  16 -14  10  114.99    4.40
  14 -10  16  124.19    4.20
  12 -14  16  156.58    5.20
  14 -16  12  156.38    5.30
  16 -12  14  166.38    5.30
 -16  12  14  158.58    5.70
 -16  14  12  153.88    5.40
 -14  12  16  155.48    5.60
 -12  16  14  147.69    5.50
  12 -16  14  152.78    4.90
 -16  14  14  439.66   10.40
 -14  14  16  416.96   10.20
 -16   0  16  122.99    4.40
   0 -16  16  122.99    4.00
  16   0  16  134.69    4.30
 -16  -2  16   91.09    3.50
 -16   2  16   89.19    4.00
 -16  16   2   95.09    3.90
  -2 -16  16   91.09    3.40
   2 -16  16   94.99    3.50
  16 -16   2   90.29    4.20
  16  -2  16   94.39    3.80
  16  16  -2   98.49    2.80
 -16  -4  16 2456.55   41.20
 -16  16  -4 2502.35   42.30
  -4 -16  16 2497.55   41.20
  16 -16   4 2471.75   42.80
  16  -4  16 2420.06   42.20
 -16  -6  16 3375.36   54.69
 -16   6  16 3308.47   56.79
 -16  16   6 3279.57   56.19
  16 -16   6 3392.46   56.99
  16  -6  16 3405.86   56.39
 -16  16   8  960.80   18.20
  16 -16   8  967.50   18.50
  16  -8  16  913.21   17.90
 -16  10  16  169.68    5.80
 -16  16 -10  163.48    5.00
  10 -16  16  163.48    5.40
  16 -10  16  161.18    4.90
 -16  12  16  580.04   12.70
 -16  16  12  552.04   12.30
  16 -12  16  563.94   12.00
 -16  14  16 1120.59   21.40
 -16  16  14 1079.79   21.20
 -14  16  16 1138.99   21.40
  14 -16  16 1075.59   20.60
  16 -16  14 1086.99   20.80
  16 -14  16 1134.49   20.90
 -16  16  16 1346.47   25.50
  16 -16  16 1375.56   24.60
 -17   1   1 1350.26   23.50
  -1  17  -1 1306.87   23.60
   1  17  -1 1305.67   23.70
  17  -1  -1 1323.17   23.60
  17  -1   1 1353.96   23.60
  17   1  -1 1363.96   23.30
  17   1   1 1346.27   23.40
  -1  17  -3  152.98    4.40
 -17   1   3  160.28    4.40
  -3  17   1  156.78    4.90
   3  17  -1  155.68    4.50
  17   3   1  162.48    4.20
  17   1  -3  166.58    4.50
 -17   3  -1  152.28    4.40
  17   3  -1  156.58    4.30
  17   1   3  152.98    4.20
 -17   3   1  157.88    4.50
 -17  -1   3  161.08    4.30
   1  17  -3  158.18    4.40
  17  -3   1  153.58    4.50
  -3  17   3  602.64   12.30
 -17   3   3  595.34   11.70
  17   3   3  600.44   11.70
  17  -3  -3  605.74   12.30
  -1  17  -5 1604.94   28.30
  17   1  -5 1664.03   28.60
  17  -5  -1 1679.03   29.20
  17  -1   5 1665.23   28.40
 -17   1   5 1633.44   28.30
  17   5  -1 1619.24   28.00
  17   1   5 1667.23   28.70
   1  17  -5 1641.64   28.20
 -17  -1   5 1674.73   28.20
  17   5   3 2342.57   39.40
   5  17  -3 2355.66   39.10
  17  -5  -3 2407.46   40.30
  -3  17  -5 2330.37   39.50
 -17   3   5 2343.87   39.10
  17   5  -3 2317.47   39.00
  17   3   5 2315.37   39.60
   3  17  -5 2299.97   39.00
  17  -5   5 3938.71   66.09
  17   5   5 3987.00   65.99
  -5  17   5 4053.89   66.69
  -1  17  -7  281.37    6.30
 -17   7  -1  274.97    6.70
  17  -7  -1  289.17    7.30
 -17   1   7  285.37    6.20
  17   7   1  289.57    6.40
  17  -1   7  288.47    6.90
  17  -7   1  279.87    7.00
  -7  17  -1  279.67    6.60
  17   1   7  273.57    6.70
 -17  -1   7  279.77    6.30
  17  -3   7 1861.31   31.70
 -17   7  -3 1887.11   32.00
 -17   3   7 1827.12   31.60
  -3  17  -7 1826.22   31.60
  -7  17   3 1858.31   32.30
   3  -7  17 1809.02   31.80
   7  17  -3 1822.62   31.20
  17  -7  -3 1857.71   32.50
  17  -7   3 1839.02   32.10
  17   7  -3 1833.72   30.80
  -7  17  -3 1838.42   31.90
 -17  -3   7 1855.01   31.10
 -17   7   3 1872.81   31.60
  17   3   7 1844.32   31.90
  -5  17  -7 4461.65   74.09
  -7  17   5 4452.75   74.79
   5 -17   7 4588.84   74.59
  17   7  -5 4586.14   73.29
   5  17  -7 4494.55   72.99
  17   5   7 4421.06   73.99
  -7  17  -5 4491.25   73.79
   7 -17   7 3458.25   57.89
  17  -7   7 3417.16   57.39
 -17   7   7 3440.36   57.39
  17   9   1  291.67    6.40
  -1  17  -9  285.77    6.50
  17  -9  -1  299.67    7.50
 -17   1   9  291.37    6.60
  17  -1   9  283.77    7.00
 -17   9  -1  279.67    6.90
   1  17  -9  290.87    6.40
  17   1   9  301.77    7.10
  -9  17  -1  277.97    7.00
 -17  -1   9  297.17    6.20
   1 -17   9  279.47    6.90
 -17   9  -3   83.99    3.40
  -9  17   3   84.39    3.50
  -3  17  -9   80.99    3.20
   9  17  -3   78.69    2.70
 -17   3   9   81.79    3.30
  17   9   3   85.69    3.10
   3  -9  17   85.19    3.40
   3 -17   9   81.09    3.50
  17   9  -3   88.89    2.70
  17   3   9   79.99    3.30
  -9  17  -3   86.99    3.40
 -17   9   3   82.99    3.30
  17  -9   3   84.29    3.40
   3  17  -9   87.49    2.80
 -17  -3   9   80.59    2.70
   9  17  -5  914.51   15.30
   9 -17   5  901.01   17.40
   5  -9  17  898.91   16.90
 -17   9  -5  911.91   17.00
  -5  17  -9  920.11   16.80
  -9  17   5  907.61   17.50
  17  -5   9  885.21   16.60
   9  -5  17  889.01   16.80
  17   5   9  872.21   16.90
  17   9  -5  895.71   15.60
  -5  -9  17  893.31   16.00
 -17   9   5  917.31   17.00
   5 -17   9  899.31   17.30
  17  -9   5  899.81   17.10
  -9  17   7  498.85   11.10
  17  -7   9  492.55   10.60
 -17   9  -7  508.95   10.60
   7  -9  17  516.75   10.60
   9 -17   7  492.15   11.00
 -17   7   9  504.45   10.60
   7 -17   9  494.45   10.90
   9  -7  17  494.85   10.60
  -9  17  -9  491.05   10.40
   9 -17   9  488.75   10.80
   9  -9  17  485.65   10.50
  17  -9   9  486.15   10.50
 -17   9   9  489.95   10.60
 -17  11  -1  301.47    7.20
  17 -11  -1  293.77    7.70
  -1  17 -11  289.27    6.70
  -1 -17  11  306.87    6.90
  17  -1  11  288.77    7.10
  -1 -11  17  300.57    6.80
 -11  17  -1  290.57    7.20
   1 -17  11  295.17    7.10
 -17  11   1  294.77    6.80
 -17  -1  11  300.37    6.60
 -17  11  -3    5.70    1.50
   3 -11  17    4.30    1.40
  17  -3  11    2.80    1.30
 -11  17   3    4.70    1.60
 -17   3  11    2.00    1.20
  -3  17 -11    4.10    1.20
  17   3  11    3.70    1.30
  11  -3  17    3.00    1.40
  17 -11   3    3.00    1.50
  17  11  -3    4.00    0.80
 -11  17  -3    5.10    1.30
   3 -17  11    4.30    1.50
 -17  11   3    2.80    1.30
 -17  -3  11    3.70    0.90
  -3 -11  17    2.40    1.00
 -17  11  -5  328.77    7.60
   5 -11  17  326.97    7.50
  -5  17 -11  312.57    7.10
 -11  17   5  305.97    7.60
 -17   5  11  300.97    7.50
  11 -17   5  304.67    7.90
  -5 -11  17  309.17    6.50
 -17  11   5  328.77    7.70
   5 -17  11  312.07    7.60
 -17  -5  11  304.17    6.20
 -17  11  -7   23.00    2.20
   7 -11  17   24.10    2.20
  -7  17 -11   31.00    2.30
  17  -7  11   30.90    2.30
 -11  17   7   30.20    2.90
 -17   7  11   31.20    2.50
 -17  11   7   27.30    2.30
 -11  17  -7   28.80    2.40
  -7 -11  17   28.50    1.60
  17 -11   7   28.50    2.50
  11 -17   9  330.17    8.30
 -11  17   9  338.97    8.50
 -11  -9  17  341.57    6.20
  17  -9  11  331.67    8.00
 -17   9  11  346.87    8.00
  -9  17 -11  327.17    7.70
   9 -17  11  321.17    7.90
  17 -11   9  337.57    8.00
  -9 -11  17  340.87    6.10
 -17  11   9  343.17    8.20
 -11  17  -9  338.97    8.10
 -11  17  11  291.97    7.80
  11 -11  17  295.47    7.10
  17 -11  11  295.57    7.40
  11 -17  11  286.47    7.30
 -17  11  11  292.17    7.30
  17  13   1   12.40    1.50
  17  -1  13   13.40    1.80
  -1 -17  13    9.50    1.60
 -17  13  -1   14.70    1.80
 -13  17   1   10.70    1.80
 -17   1  13   11.20    1.60
   1 -13  17   10.20    1.40
   1 -17  13    9.20    1.60
  17   1  13   10.60    1.70
  17 -13   1   13.00    2.10
 -17  -1  13   12.80    1.50
  17  13  -1   13.90    1.40
 -17  13   1   13.40    1.70
  -1 -13  17   12.80    1.40
 -13  17  -1   12.70    1.80
 -13  17   3  474.05   10.10
  17  -3  13  471.35   10.30
   3 -13  17  475.15    9.80
  17   3  13  474.45   10.30
 -17  -3  13  486.95    9.40
  17 -13   3  467.65   10.80
  -3 -13  17  488.15    9.30
 -17  13   3  498.35   10.40
  17  13  -3  474.95    8.70
 -17   5  13  860.21   16.90
  13 -17   5  915.21   17.60
  17  -5  13  902.31   17.00
 -13  17   5  907.91   17.20
  -5 -13  17  890.41   15.70
   5 -17  13  867.91   16.70
  13  -5  17  887.11   17.10
 -13  17  -5  888.61   16.90
 -17  13  -7  652.73   13.00
   7 -13  17  648.24   12.60
  13 -17   7  633.44   13.50
 -17   7  13  617.04   13.10
  17  -7  13  616.34   12.60
  13  -7  17  644.44   13.00
  -7 -13  17  631.84   11.30
 -17  13   7  651.33   12.90
 -13  17  -7  661.53   13.10
 -13  -9  17    0.20    0.40
 -17  13  -9    0.20    1.30
  17  -9  13    1.70    1.20
 -13  -9  17    0.10    0.40
  13 -17   9    1.50    1.50
 -13  17   9   -0.40    1.60
 -17   9  13    0.90    1.50
   9 -13  17   -0.30    1.20
 -17  13   9   -1.30    1.20
  13  -9  17    0.10    1.40
   9 -17  13    1.00    1.50
 -13  17  -9    0.00    1.40
  17 -13   9    0.70    1.40
  13 -17  11    7.10    1.70
  17 -11  13    6.70    1.70
 -13  17  11    7.40    1.90
 -17  11  13    6.20    1.80
  11 -13  17    5.50    1.60
 -11  17  13    7.30    1.90
  11 -17  13    5.50    1.80
 -13  17 -11    6.10    1.60
  13 -11  17    4.80    1.50
 -17  13  11    6.30    1.70
  17 -13  11    8.10    1.70
  13 -17  13   14.40    2.30
  13 -13  17   12.70    2.00
 -13  17  13   10.90    2.20
  17 -13  13    9.80    2.00
 -17  13  13    8.80    2.10
 -15  -1  17  110.39    4.10
  -1 -17  15  121.79    4.00
   1 -15  17  121.39    4.00
  17  -1  15  120.09    4.30
 -17  15  -1  112.39    3.90
 -17   1  15  109.09    4.00
 -17  15   1  111.79    4.00
  15  -1  17  121.79    4.10
 -15  17  -1  124.39    4.10
  -1 -15  17  113.49    3.90
   1 -17  15  114.79    3.80
 -17  -1  15  113.99    3.90
 -15   1  17  111.69    4.30
  17   1  15  113.99    4.00
 -15  -3  17 1765.32   30.40
 -17  15  -3 1692.93   30.70
  -3 -17  15 1755.12   30.10
 -15  17   3 1787.92   31.00
  15 -17   3 1754.92   31.50
  17  15  -3 1743.13   28.80
  15  -3  17 1747.83   30.90
  17 -15   3 1783.22   31.50
  17  -5  15 4129.79   68.19
  15 -17   5 4017.10   68.79
   5 -15  17 4031.50   68.09
  -5 -15  17 4155.98   66.99
 -17  15   5 4064.99   68.29
  15  -5  17 4147.29   68.19
  17 -15   5 4102.69   68.89
 -15  17  -5 4156.88   68.19
 -15  17   7 2729.13   45.80
 -17   7  15 2629.64   46.00
 -17  15  -7 2730.43   45.60
  17  -7  15 2592.44   45.40
  15 -17   7 2685.93   46.20
  17 -15   7 2654.53   45.90
 -15   7  17 2682.63   46.20
 -17  -7  15 2683.23   43.40
 -17   9  15  577.24   12.50
  15 -17   9  565.94   12.30
 -17  15   9  589.84   12.20
   9 -17  15  552.54   11.90
  15  -9  17  558.24   11.90
 -15   9  17  559.34   12.40
  15 -17  11  429.26    9.80
  17 -11  15  437.86   10.00
 -17  11  15  454.25   10.60
 -15  17  11  437.06   10.30
  11 -15  17  449.95   10.10
  17 -15  11  423.56   10.00
  15 -11  17  454.35    9.70
 -15  17 -11  448.16   10.00
 -17  15  11  453.55   10.00
  17 -13  15  911.31   17.40
 -17  13  15  884.21   17.90
 -15  17  13  864.01   17.80
  13 -15  17  885.01   17.40
  15 -17  13  877.81   17.50
 -17  15  13  905.81   17.70
 -15  13  17  908.81   18.00
 -13  17  15  894.41   17.90
  13 -17  15  891.01   17.40
  15 -13  17  909.81   17.40
  17 -15  13  899.91   17.30
 -17  15  15 1499.95   27.20
  15 -17  15 1467.05   26.80
  15 -15  17 1455.95   26.70
  17 -15  15 1453.45   26.40
 -17  -1  17    0.80    1.30
 -17   1  17    1.40    1.60
 -17  17  -1    1.80    1.20
 -17  17   1    1.10    1.30
  -1 -17  17    0.70    1.20
   1 -17  17    0.80    1.30
  17  -1  17    1.00    1.40
  17   1  17    1.10    1.30
  17  17  -1    0.80    0.90
 -17  17  -3  902.71   17.00
  -3 -17  17  889.91   16.20
  17 -17   3  849.22   17.50
  17  -3  17  888.91   17.00
 -17  -5  17 2120.19   36.30
 -17  17  -5 2210.98   37.60
  17 -17   5 2200.38   38.30
 -17  17   7 1456.15   26.30
  17 -17   7 1465.85   27.10
  17  -7  17 1485.55   26.50
 -17   9  17   78.49    4.30
 -17  17  -9   73.39    3.50
 -17  17   9   71.99    3.70
   9 -17  17   68.09    3.50
  17 -17   9   78.59    4.00
  17  -9  17   80.49    3.40
 -17  11  17  325.37    8.80
  11 -17  17  343.87    8.20
  17 -17  11  331.97    8.30
  17 -11  17  347.17    8.10
 -17  13  17  637.24   14.10
 -17  17  13  666.83   13.80
 -13  17  17  665.13   14.20
 -17  15  17 1589.04   29.00
 -17  17  15 1583.84   28.70
  15 -17  17 1603.14   28.10
  17 -17  15 1518.35   28.40
  17 -15  17 1562.84   28.40
 -17  17  17  958.60   18.80
  17 -17  17  918.21   18.10
 -18   0   2  334.57    7.30
  -2  18   0  327.57    7.70
   2  18   0  337.17    7.60
  18   0  -2  333.47    7.40
  18   0   2  343.07    7.50
  18   2   0  341.07    7.40
   0  18  -2  326.77    7.30
   2  18  -2   99.49    3.40
 -18   2   2   94.79    3.30
  -2  18  -2   96.19    3.50
  -2  18   2   93.29    3.70
  18  -2   2   93.49    3.50
  18   2  -2   96.79    3.40
  18   2   2   92.39    3.20
  18  -2  -2   98.19    3.70
 -18   0   4  609.74   11.80
  18   4   0  609.74   11.70
  18  -4  -2  655.13   13.40
  18  -2   4  685.03   13.00
  -4  18   2  659.13   13.40
  -2  18  -4  677.23   12.90
 -18   2   4  657.03   12.70
   4  18  -2  665.23   12.80
  18   4  -2  655.23   12.40
  -4  18  -2  654.53   12.90
  -4  18   4 1166.88   21.80
  18   4  -4 1209.58   21.00
  18   4   4 1169.48   21.20
  18   0   6  573.34   11.70
 -18   6   0  588.04   11.70
  18   6   0  596.64   11.00
  18  -6   0  576.74   12.00
 -18   0   6  580.84   11.30
  18  -2   6  705.83   13.40
  -6  18   2  717.93   14.10
  18  -6  -2  722.53   14.40
   6  18  -2  717.63   13.40
  18   6   2  718.43   13.40
  18  -6   2  705.63   14.00
  18   6  -2  697.73   13.10
   2  18  -6  686.63   13.10
 -18  -2   6  705.43   13.20
  18   2   6  720.23   13.80
  -4  18  -6 2018.10   34.50
   6  18  -4 2007.00   34.10
  -6  18   4 2078.49   35.70
 -18   6  -4 2102.99   34.90
  18  -4   6 2020.90   35.10
  18   6   4 2025.40   34.80
   4  18  -6 2003.20   34.10
 -18   6   4 2051.59   34.60
  -6  18   6 2775.62   47.70
  -6  18  -6 2760.32   46.70
   6  -6  18 2820.62   47.30
   6  18  -6 2825.42   45.90
  18   0   8  179.78    5.10
 -18   0   8  175.08    4.50
  -8  18   0  176.88    5.10
   0  18  -8  182.88    4.80
 -18   8   0  180.78    5.10
 -18   8  -2    0.30    1.10
  -8  18   2    0.60    1.10
  18   8   2    0.30    1.00
   2  -8  18    0.70    1.00
  18  -8  -2    0.10    1.40
  -2  18  -8    0.00    1.00
 -18   2   8    1.10    1.00
  18  -2   8   -0.50    1.10
 -18   8   2    0.70    1.00
 -18  -2   8    0.00    0.90
  18  -8   2    0.60    1.20
   2  18  -8   -0.20    0.90
  18   8  -2    0.50    0.90
  18   2   8    0.70    1.10
  -8  18  -2    1.10    1.10
 -18   8  -4  481.05   10.00
 -18   4   8  454.95    9.70
  -8  18   4  456.15   10.20
  -4  18  -8  454.05    9.70
   4  -8  18  466.85    9.80
   4  18  -8  451.55    8.90
 -18   8   4  455.35    9.70
  18   4   8  473.05    9.90
  18   8  -4  466.45    8.80
   4 -18   8  462.45   10.10
   6  -8  18 1082.49   19.80
   8 -18   6 1039.50   20.20
 -18   6   8 1057.69   19.70
   6 -18   8 1052.69   20.10
   6  18  -8 1089.09   18.30
   8  -6  18 1096.29   19.60
   8  -8  18    3.10    1.40
  18  -8   8    2.80    1.30
 -18   8   8    1.50    1.30
  -8  18  -8    1.00    1.30
  -8  18   8    4.00    1.60
   8 -18   8    2.30    1.50
 -18   0  10  296.77    6.70
 -10  18   0  288.97    7.20
  18  10   0  291.27    6.40
  18   0  10  300.87    7.20
  18 -10   0  283.27    7.60
   2 -10  18  111.69    3.80
 -18  10  -2  108.39    3.90
 -18   2  10  107.69    3.70
  18  10   2  105.39    3.60
  -2  18 -10  112.69    3.80
  18  -2  10  104.69    3.90
  -2 -10  18  115.39    3.70
   2 -18  10  104.79    4.00
  18 -10   2  105.89    4.20
  18   2  10  108.59    4.00
   2  18 -10  105.39    3.20
 -18  -2  10  104.29    3.20
  18  10  -2  103.09    3.10
 -10  18  -2  114.39    4.00
   4 -10  18   68.79    3.20
  -4  18 -10   58.29    3.00
  18  -4  10   62.99    2.90
 -10  18   4   63.49    3.20
  10  18  -4   60.79    2.20
 -18   4  10   62.49    3.00
 -10  18  -4   62.69    2.80
  18  10  -4   61.99    2.20
  10  -4  18   61.89    3.10
  18 -10   4   68.59    3.10
 -18  -4  10   66.09    2.40
   4 -18  10   63.59    3.40
 -18  10   4   65.29    3.10
  -4 -10  18   64.99    2.60
  18   4  10   58.49    2.90
  -6  18 -10  112.29    4.10
   6 -10  18  118.29    4.20
 -10  18   6  105.99    4.30
  10 -18   6  112.19    4.50
 -18   6  10  116.99    4.00
  18  -6  10  113.99    3.90
 -18  10   6  115.19    4.10
  18 -10   6  110.89    4.20
  10  -6  18  107.99    4.10
  -6 -10  18  114.39    3.40
 -10  18  -6  115.69    4.10
  18   6  10  108.59    4.10
   8 -10  18  283.97    7.30
  -8  18 -10  302.27    7.30
 -18   8  10  291.17    7.40
 -10  18   8  303.67    7.80
  18  -8  10  301.27    7.40
 -10  18  -8  304.27    7.40
  10  -8  18  285.67    7.30
  -8 -10  18  303.57    6.10
 -10  18 -10  820.82   15.70
  18 -10  10  789.22   15.70
 -10 -10  18  799.32   13.80
   0 -18  12  284.47    7.00
  18  12   0  294.47    6.40
  18 -12   0  293.27    7.70
   0 -12  18  290.07    6.80
 -12  18   2   25.60    2.10
 -18  12  -2   25.00    2.30
 -18   2  12   19.80    1.90
   2 -12  18   22.90    2.10
  18  -2  12   23.80    2.20
  18  12   2   21.00    1.90
  18  12  -2   22.50    1.50
 -12  18  -2   23.60    2.20
 -18  -2  12   21.50    1.80
  18 -12   2   22.80    2.60
  -2 -12  18   21.70    1.90
   2 -18  12   19.30    2.10
   4 -12  18   54.49    3.00
  12  18  -4   53.59    1.90
 -18  12  -4   54.89    3.00
  18  -4  12   48.50    2.90
 -12  18   4   53.49    3.10
 -18   4  12   46.40    2.90
 -12  18  -4   45.40    2.60
 -18  12   4   54.19    2.90
   4 -18  12   49.99    3.10
  12  -4  18   55.99    2.80
  18 -12   4   48.30    3.20
  18  12  -4   51.59    1.90
  -4 -12  18   51.69    2.40
 -18  -4  12   47.20    2.20
  18  -6  12   26.70    2.20
   6 -12  18   22.40    2.20
 -18  12  -6   23.80    2.30
  12 -18   6   23.80    2.50
  -6  18 -12   20.30    2.10
 -12  18   6   26.50    2.50
 -18   6  12   25.90    2.40
 -12  18  -6   27.40    2.50
  -6 -12  18   26.10    1.60
   6 -18  12   20.00    2.30
 -18  -6  12   22.60    1.50
 -18  12   6   23.30    2.30
  12  -6  18   29.70    2.50
 -18   8  12  155.28    5.00
 -12  18   8  174.68    5.60
  -8  18 -12  165.48    5.10
 -18  12  -8  159.28    4.90
  12 -18   8  153.18    5.40
  18  -8  12  158.88    4.90
   8 -18  12  155.18    5.10
  18 -12   8  158.18    5.20
  -8 -12  18  163.98    3.70
 -12  18  -8  173.88    5.20
  12  -8  18  165.38    5.20
 -18  12   8  168.58    5.00
  18 -10  12  291.47    7.20
  12 -18  10  270.87    7.40
 -12  18  10  273.27    7.60
 -10  18 -12  282.17    7.20
 -18  12  10  279.87    7.40
 -10  18  12  285.07    7.70
  12 -10  18  291.77    7.30
  10 -18  12  268.17    7.30
 -12  18 -10  271.87    7.10
 -12  18  12  240.78    6.90
  18 -12  12  228.58    6.50
 -18  14   0    0.20    1.00
   0 -18  14   -0.50    1.20
  18  14   0    0.70    1.00
   0 -14  18    0.40    1.10
 -18   0  14    0.30    1.10
 -14  18   0    0.50    1.30
  18   0  14    1.10    1.40
  18  -2  14  250.87    6.50
   2 -14  18  236.98    6.00
  -2 -18  14  247.98    6.10
  14  -2  18  252.97    6.40
  -2 -14  18  250.67    5.90
  18   2  14  244.48    6.30
  18 -14   2  249.48    7.00
  18  14  -2  242.98    5.20
 -14  18  -2  235.38    6.10
 -18  -2  14  238.88    5.80
  14  18  -4 1213.28   19.80
  14  18  -4 1203.08   19.70
 -18  14  -4 1195.68   21.80
   4 -14  18 1171.18   21.40
  14 -18   4 1205.88   22.60
  18  -4  14 1176.88   21.80
  14  -4  18 1209.58   21.90
  18  14  -4 1177.28   19.80
 -18  14   4 1163.18   21.80
 -18  -4  14 1212.18   20.50
 -14  18  -4 1163.88   21.70
  -4 -14  18 1214.48   20.90
  18   4  14 1170.08   21.90
  18  -6  14 1353.86   24.90
  14 -18   6 1400.46   25.60
 -14  18   6 1373.26   25.20
  -6 -14  18 1394.86   23.50
 -18  -6  14 1373.86   23.30
  18 -14   6 1374.16   25.40
  14  -6  18 1377.96   25.00
 -18  14   6 1413.76   25.20
 -14  18  -6 1428.96   25.10
  14 -18   8  289.87    7.90
 -18  14  -8  298.67    7.20
  18  -8  14  296.67    7.10
 -14  18   8  278.27    7.30
 -18   8  14  297.57    7.60
 -14  -8  18  289.97    5.70
  14  -8  18  295.77    7.50
 -18  14   8  302.57    7.30
 -14  18  -8  282.47    7.30
  18 -10  14   54.59    3.20
  14 -18  10   57.09    3.50
 -18  10  14   54.89    3.40
  10 -14  18   56.89    3.40
 -14  18  10   55.09    3.50
  18 -14  10   52.59    3.40
 -14  18 -10   56.19    3.20
  10 -18  14   48.80    3.40
  14 -10  18   54.59    3.20
 -18  14  10   57.49    3.40
 -14  18  12   36.60    3.20
  14 -18  12   32.60    2.90
  12 -14  18   38.90    3.20
  18 -12  14   35.60    2.90
 -18  12  14   35.60    3.10
  12 -18  14   38.20    3.10
 -12  18  14   37.80    3.30
  18 -14  12   32.50    2.80
  14 -12  18   38.20    2.80
 -18  14  12   38.00    2.90
 -14  18  14  457.65   11.00
  18 -14  14  467.15   10.50
 -18  14  14  485.35   10.90
  14 -14  18  487.05   10.70
   0 -18  16   48.70    2.90
 -16  18   0   42.90    2.70
 -18  16   0   47.80    2.70
 -18   0  16   44.30    2.80
  18   0  16   49.70    3.00
  18  16   0   46.10    2.40
  16   0  18   47.60    2.90
   0 -16  18   48.20    2.80
 -16  18   2  528.75   11.20
  18  -2  16  540.75   11.30
  -2 -18  16  523.35   10.80
   2 -16  18  528.75   11.00
 -16  18  -2  523.15   10.80
  16  -2  18  515.65   11.10
  18  -4  16 2305.07   39.70
  16 -18   4 2341.77   40.40
  18  16  -4 2315.87   37.20
 -18  16   4 2294.87   39.70
 -18  -4  16 2293.57   38.50
  -4 -16  18 2277.87   38.60
  18 -16   4 2309.87   40.30
  16 -18   6 2837.32   48.30
 -16  18   6 2814.92   47.40
 -18   6  16 2722.73   47.90
  18  -6  16 2782.32   47.50
 -18  -6  16 2818.92   45.70
  18  -8  16  813.22   15.70
 -16  18   8  845.52   16.40
 -18   8  16  842.52   16.70
 -18  16  -8  829.92   16.10
  16  -8  18  818.32   16.10
 -16  18  -8  802.42   16.10
 -16   8  18  813.92   16.70
 -18  16   8  830.92   16.00
  18 -16   8  840.52   16.60
 -18  10  16  252.57    7.30
  16 -18  10  248.28    7.20
 -16  18  10  254.57    6.70
  18 -10  16  262.27    6.70
 -18  16 -10  241.58    6.70
  16 -10  18  260.27    6.60
 -18  16  10  255.67    7.00
 -16  10  18  257.47    7.50
  18 -16  10  244.08    6.80
 -18  12  16  503.55   11.50
  18 -12  16  508.45   11.00
 -16  18  12  493.95   11.20
  12 -16  18  485.75   11.00
  16 -18  12  498.25   11.20
  12 -18  16  492.35   11.20
  16 -12  18  493.45   10.80
  18 -16  12  489.75   11.10
 -16  12  18  510.15   11.60
  18 -14  16 1192.78   22.50
  16 -18  14 1183.38   22.40
  14 -16  18 1228.78   22.70
 -18  14  16 1202.98   22.90
 -14  16  18 1212.98   23.00
 -14  18  16 1183.48   22.90
  14 -18  16 1232.38   22.80
  16 -14  18 1211.68   22.40
  18 -16  14 1208.18   22.60
 -16  16  18 1553.54   28.80
 -16  18  16 1542.05   28.70
  16 -18  16 1598.34   28.50
  16 -16  18 1563.04   28.30
 -18   0  18   33.10    2.70
 -18  18   0   34.50    2.50
   0 -18  18   36.00    2.70
  18   0  18   31.40    2.70
 -18  -2  18  148.49    4.70
 -18  18   2  160.08    5.10
  -2 -18  18  160.78    4.80
   2 -18  18  152.58    5.10
  18  -2  18  152.38    5.00
  18   2  18  157.58    5.00
 -18  18  -4  748.93   14.80
 -18  18   4  760.92   14.90
  -4 -18  18  744.03   14.20
  18 -18   4  739.43   15.40
  18  -4  18  752.82   14.80
 -18  -6  18 1009.40   17.40
 -18  18   6  990.40   19.00
 -18   8  18  140.59    5.40
 -18  18  -8  147.19    4.90
   8 -18  18  142.79    4.90
  18 -18   8  144.19    5.50
  18  -8  18  139.79    4.70
 -18  10  18   17.70    2.70
 -18  18 -10   18.80    2.20
  10 -18  18   16.80    2.30
  18 -18  10   20.20    2.60
  18 -10  18   18.10    2.10
 -18  12  18   70.89    4.40
 -18  18  12   62.09    3.50
  12 -18  18   68.49    3.80
  18 -18  12   66.69    4.00
  18 -12  18   67.69    3.70
 -18  14  18  658.93   14.50
 -18  18  14  666.93   14.10
 -14  18  18  679.73   14.50
  14 -18  18  668.63   14.00
  18 -18  14  704.73   13.90
  18 -14  18  694.63   14.10
 -18  16  18 1054.89   20.50
 -16  18  18 1048.00   20.50
  18 -16  18 1021.60   19.60
 -18  18  18  198.48    6.60
  18 -18  18  204.48    6.50
 -19   1   1 1465.65   25.90
  -1  19  -1 1499.65   26.30
   1  19  -1 1474.55   26.30
   1  19   1 1515.65   26.50
  19  -1  -1 1496.05   26.10
  19   1  -1 1506.55   26.20
  19   1   1 1495.75   26.20
  19  -1   3   26.20    2.10
 -19   1   3   27.80    2.10
  19  -3  -1   29.50    2.30
  -3  19   1   28.70    2.40
   3  19  -1   26.20    2.30
  -1  19  -3   29.40    2.20
  19   3   1   26.70    2.10
  19   1  -3   23.60    2.10
 -19   3  -1   29.60    2.10
  19  -1  -3   29.00    2.40
  19  -3   1   28.50    2.40
  -1  19   3   24.20    2.30
   1  19  -3   25.90    2.10
  19   3  -1   30.60    2.00
 -19   3   1   23.30    2.00
   3  19  -3   25.40    1.90
 -19   3   3   24.00    2.10
  -3  19  -3   21.60    1.90
  19   3  -3   20.40    1.80
  19   3   3   20.50    1.80
  19  -3  -3   22.20    2.30
  19  -3   3   22.20    2.20
   5  19  -1  237.58    6.00
  19   1  -5  242.48    6.20
  -1  19  -5  242.48    6.00
 -19   5  -1  245.58    6.20
  19   5   1  242.68    5.60
 -19   1   5  238.48    5.90
  19  -5  -1  233.88    6.50
 -19  -1   5  240.48    5.80
   1  19  -5  237.98    5.80
  19   5  -1  244.28    5.80
 -19   5   1  241.88    6.10
   5  19  -3  405.36    8.30
  19  -5  -3  410.66    9.30
 -19   3   5  392.76    8.60
  19  -3   5  391.36    8.80
  -5  19   3  409.46    9.30
  19  -5   3  405.06    8.80
  -5  19  -3  400.76    8.90
   3  19  -5  398.16    8.30
  19   3   5  406.36    8.80
  19   5  -3  394.16    8.20
  19   5  -5  938.61   16.80
 -19   5   5  900.71   16.70
  19  -5   5  917.91   17.30
   5  19  -5  900.91   16.30
  -7  19   1   76.09    3.40
  19  -7  -1   80.09    3.80
  -1  19  -7   84.49    3.00
  19  -1   7   85.59    3.20
 -19   7  -1   84.39    3.40
  19   7   1   85.29    2.90
  -7  19  -1   86.59    3.30
   1  19  -7   78.29    2.80
 -19   7   1   85.59    3.40
 -19  -1   7   80.99    3.00
  19   1   7   77.89    3.40
  19   7  -1   76.89    2.90
  19  -7   1   74.59    3.50
 -19   7  -3   12.40    1.70
  19  -3   7   13.00    1.60
   7  19  -3    9.40    1.40
  -7  19   3   13.60    1.90
 -19   3   7   11.70    1.50
  19   7   3   11.10    1.60
  19  -7  -3   12.70    2.00
  -3  19  -7   11.50    1.60
  19   7  -3   10.30    1.40
  -7  19  -3   10.60    1.70
 -19  -3   7   11.00    1.40
   3  19  -7   12.30    1.30
 -19   7   3   12.50    1.50
  19  -7   3    7.90    1.70
  19   3   7    8.70    1.60
 -19   7  -5  458.35    9.80
   7  19  -5  455.45    8.80
  -5  19  -7  455.75    9.70
 -19   5   7  440.96    9.70
  19  -7   5  469.65    9.70
 -19   7   7   73.39    3.20
  -7  19  -7   74.69    3.30
  -7  19   7   75.99    3.70
   7  -7  19   70.89    3.20
   7  19  -7   74.69    2.40
  19   7   7   71.19    3.20
  19  -7   7   66.09    3.30
 -19   1   9  196.88    4.90
  19  -9  -1  201.68    6.00
  -9  19   1  187.88    5.50
   1  -9  19  203.28    5.30
  19   9   1  187.18    5.00
  -1  19  -9  193.28    5.10
  19  -1   9  184.58    5.40
 -19   9   1  189.78    5.40
 -19  -1   9  184.68    4.90
  19   1   9  189.88    5.40
  19  -9   1  193.88    5.90
  -3  19  -9    4.70    1.40
  19   9   3    5.50    1.40
 -19   3   9    3.90    1.30
 -19   9  -3    4.90    1.50
  -9  19   3    6.60    1.40
   9  19  -3    5.10    1.20
   3  -9  19    6.60    1.50
  19  -3   9    3.70    1.30
  19   9  -3    5.30    1.00
 -19  -3   9    6.00    1.20
  -9  19  -3    7.10    1.60
 -19   9   3    7.70    1.40
   3  19  -9    6.20    1.20
  19   3   9    6.20    1.60
  19  -9   3    3.70    1.50
  -3  -9  19    6.90    1.30
  -9  19   5  162.18    5.20
   5  -9  19  150.58    4.80
  19   9   5  155.68    4.70
   9  19  -5  154.08    3.70
 -19   9  -5  155.58    4.80
  19  -5   9  155.08    4.60
 -19   5   9  153.68    4.70
 -19   9   5  151.88    4.80
  19   5   9  151.88    4.80
   9  -5  19  154.68    4.90
  -9  19  -5  159.88    4.60
   5 -19   9  146.29    5.10
  19   9  -5  149.69    4.00
  19  -9   5  157.18    5.00
  -7  19  -9   -0.30    1.30
   9 -19   7   -0.40    1.50
  19  -7   9    0.00    1.30
   9  19  -7    0.20    0.60
 -19   9  -7   -0.10    1.30
 -19   7   9   -0.30    1.30
  -9  19   7   -0.30    1.60
  19   9   7   -0.10    1.20
   7  -9  19   -0.60    1.20
  -9  19  -7    0.90    1.30
   9  -7  19    0.70    1.40
  19   7   9    0.40    1.20
   7 -19   9   -0.10    1.40
  19  -9   7    0.40    1.10
 -19   9   7    0.80    1.30
  -9  19  -9  448.56    9.70
   9 -19   9  423.46   10.10
 -19   9   9  436.76    9.60
  19  -9   9  436.36    9.80
   9  -9  19  434.86    9.70
   1 -11  19  590.14   11.70
  19  -1  11  578.04   11.90
  19  11   1  576.44   11.20
 -19  11  -1  565.34   11.80
  -1  19 -11  568.44   11.20
  19  11  -1  586.44   10.70
  19   1  11  575.64   11.90
  -1 -11  19  566.34   11.40
 -11  19  -1  596.84   12.00
 -19  -1  11  571.54   11.00
  19  11   3  171.58    4.90
  19  -3  11  175.58    5.20
  11  19  -3  180.68    4.40
   3 -11  19  177.08    5.20
 -19  11  -3  178.88    5.20
 -19   3  11  163.68    5.00
 -11  19   3  175.58    5.40
 -11  19  -3  183.48    5.10
 -19  -3  11  165.48    4.40
   3 -19  11  168.68    5.30
  19  11  -3  174.48    4.20
  19   3  11  172.98    5.30
  -3 -11  19  164.88    4.60
   5 -11  19   29.50    2.50
 -19  11  -5   27.40    2.40
 -19   5  11   31.30    2.40
  19  -5  11   28.30    2.30
  11  19  -5   29.20    1.40
 -11  19   5   31.90    2.50
  19  11   5   26.10    2.20
 -19  -5  11   26.70    1.80
 -11  19  -5   32.30    2.40
  -5 -11  19   31.50    2.00
  19 -11   5   32.90    2.50
  19   5  11   28.30    2.30
  19  11  -5   29.50    1.70
   5 -19  11   29.10    2.60
  11  -5  19   25.50    2.30
 -19  11   5   34.30    2.70
  11 -19   7  670.33   13.90
  19  -7  11  643.24   13.20
  19 -11   7  648.24   13.50
 -19  11   7  680.93   13.50
 -19   9  11 1015.10   19.10
  -9  19 -11  994.10   18.80
   9 -11  19 1009.10   19.00
  19 -11   9 1000.20   18.70
   9 -19  11 1013.40   19.50
  -9  19  11  996.10   19.50
  -9 -11  19 1020.60   17.30
 -19  11  11 1885.01   33.10
  11 -11  19 1876.91   33.00
  19 -11  11 1909.81   33.10
 -11  19  11 1839.72   33.40
   1 -13  19  195.08    5.10
 -19  13  -1  176.78    5.40
  19  -1  13  188.98    5.50
 -13  19   1  191.98    5.60
  19   1  13  194.08    5.60
  19  13  -1  180.68    4.60
 -19  13   1  187.08    5.20
 -19   3  13   18.90    2.00
  19  -3  13   23.30    2.30
  19  13   3   19.90    1.80
   3 -13  19   20.40    1.90
 -13  19   3   22.20    2.20
 -19  13  -3   21.10    2.20
  19  13  -3   20.40    1.60
 -19  13   3   22.80    2.20
  19   3  13   22.20    2.30
  19 -13   3   22.20    2.70
  -3 -13  19   21.40    1.80
 -13  19  -3   22.70    2.10
   3 -19  13   21.10    2.40
 -19  -3  13   23.00    1.80
  13  19  -5   81.09    1.70
 -19  13  -5   82.29    3.70
   5 -13  19   74.89    3.20
  19  -5  13   72.99    3.40
 -19   5  13   74.09    3.70
 -13  19   5   83.49    3.80
  13 -19   5   82.09    4.10
  19   5  13   79.89    3.70
  19 -13   5   79.09    3.90
  13  -5  19   81.79    3.70
 -13  19  -5   80.59    3.70
 -19  13   5   79.79    3.60
 -19  -5  13   78.89    2.70
  19  -7  13    9.60    1.60
 -19  13  -7    9.30    1.70
  13 -19   7    6.70    2.00
 -19   7  13   11.20    2.00
 -13  19   7   10.70    1.80
   7 -13  19    8.80    1.70
  13  -7  19    9.80    1.80
  19 -13   7   10.60    1.90
 -13  19  -7   10.80    1.90
 -19  13   7   13.30    2.00
  -7 -13  19    9.60    1.20
   7 -19  13   10.30    2.00
 -19  13  -9  112.09    4.30
  13 -19   9  112.59    4.80
 -13  19   9  117.69    4.60
 -13  -9  19  112.79    3.00
   9 -13  19  111.09    4.10
  19  -9  13  111.49    4.30
 -13  19  -9  121.69    4.40
  -9 -13  19  115.39    2.70
  19 -13   9  110.19    4.40
   9 -19  13  114.09    4.60
 -13  19  11  381.86    9.50
 -19  11  13  380.06    9.10
  19 -11  13  389.86    9.10
  13 -19  11  387.06    9.50
  11 -13  19  391.06    8.70
 -11  19  13  391.16    9.50
 -19  13  11  398.06    9.30
  11 -19  13  371.86    9.20
  13 -19  13  134.09    5.10
 -13  19  13  135.69    5.30
 -19  13  13  139.69    4.80
 -15  19   1    0.30    1.40
  -1 -19  15    0.90    1.40
   1 -15  19   -0.30    1.30
 -19   1  15    0.50    1.20
 -19  15  -1    0.60    1.30
  19  15   1    0.70    1.20
 -15  -1  19    0.00    1.50
  19  -1  15    1.00    1.40
  -1 -15  19    0.80    1.20
 -15  19  -1   -0.30    1.10
 -19  15   1   -0.30    1.10
 -19  -1  15    1.10    1.30
  19  15  -1   -0.20    1.00
   1 -19  15    0.70    1.50
  15  -1  19    0.60    1.40
  19   1  15    0.80    1.50
 -15  19   3  352.26    8.60
 -19  15  -3  380.66    8.70
 -15  -3  19  369.06    8.40
  19 -15   3  368.96    9.10
 -15  19  -3  376.66    8.30
 -19  -3  15  369.46    7.80
 -19  15   3  366.26    8.50
  19  15  -3  373.46    7.00
  15  -3  19  352.46    8.50
 -15  -5  19 1432.06   24.60
 -19   5  15 1359.16   25.00
  19   5  15 1415.66   25.40
  19 -15   5 1416.46   26.00
 -19  15   5 1417.56   25.30
  15  -5  19 1366.66   25.20
  15 -19   7  594.04   13.00
 -19   7  15  580.64   12.40
 -15  19  -7  612.34   12.50
 -19  15   7  615.44   12.70
  19 -15   7  599.44   12.90
 -19   9  15  160.98    5.40
  15 -19   9  166.38    5.80
 -19  15  -9  159.78    5.10
 -15  19   9  161.18    5.10
   9 -15  19  156.68    5.30
  15  -9  19  166.48    5.30
 -19  15   9  164.98    5.10
  19 -11  15    1.90    1.70
  11 -15  19    5.50    1.80
 -19  11  15    6.40    1.90
  15 -19  11    2.00    1.90
 -15  19  11    4.70    1.90
 -19  15  11    2.70    1.70
 -15  19 -11    6.40    1.70
  11 -19  15    5.80    1.80
  15 -11  19    4.60    1.60
  19 -15  11    6.60    2.00
 -15  19  13  207.58    6.50
  15 -19  13  214.58    6.40
  13 -15  19  198.28    6.20
  19 -13  15  211.68    6.20
  19 -15  13  195.98    6.10
 -13  19  15  212.18    6.60
 -15  13  19  205.28    6.70
  15 -13  19  200.48    6.10
 -19  15  13  206.88    6.10
  19 -15  15  704.83   14.20
 -15  15  19  697.93   15.00
  15 -15  19  725.43   14.60
 -15  19  15  703.73   15.00
 -17  -1  19   77.29    3.80
  -1 -19  17   81.69    3.80
 -17  19   1   76.69    3.60
  19  -1  17   71.69    3.60
  17   1  19   76.79    3.60
  19   1  17   76.19    3.60
 -19  -1  17   72.09    3.30
  19  17  -1   77.09    2.90
 -17  19  -1   83.99    3.40
  17  -1  19   82.79    3.60
  -1 -17  19   82.49    3.40
   1 -19  17   81.89    3.70
 -19  17   1   80.49    3.30
  19  -3  17  775.82   15.10
 -19  17  -3  769.32   15.10
  17  19  -3  750.22   13.10
  -3 -19  17  760.92   14.50
  -3 -17  19  765.72   14.40
 -19  -3  17  775.22   14.40
 -17  19  -3  765.02   15.10
  19 -17   3  750.22   15.60
 -19  17   3  741.83   15.00
  19   3  17  779.52   15.00
 -17  19   5 1579.04   28.30
  19  -5  17 1553.84   28.10
 -19  17   5 1601.84   28.20
  19 -17   5 1586.04   28.80
 -17  19  -5 1573.54   28.20
  17  -5  19 1597.24   28.20
  17 -19   7 1041.60   19.90
 -17  19  -7 1031.50   19.20
  19 -17   7 1026.80   19.90
  17  -7  19 1005.50   19.20
 -19  -7  17 1001.10   17.10
 -17   7  19 1010.00   19.80
 -17  19   9  187.88    5.90
   9 -17  19  184.18    5.90
  17 -19   9  195.18    6.40
  19  -9  17  203.68    5.50
 -19  17  -9  199.78    5.60
 -19   9  17  190.68    6.20
  19 -17   9  201.68    6.30
   9 -19  17  198.38    6.30
 -19  17   9  192.88    5.60
 -17   9  19  201.58    6.50
 -17  19  -9  182.18    5.70
  17 -19  11   61.49    4.00
  19 -11  17   53.19    3.50
 -17  19  11   65.99    3.50
  11 -17  19   60.79    3.80
 -19  11  17   58.99    3.80
  11 -19  17   59.59    3.70
 -17  11  19   60.89    4.10
  19 -17  11   57.29    3.70
  17 -11  19   62.09    3.20
 -19  17  11   57.39    3.50
 -17  19 -11   61.69    3.50
  19 -13  17  350.46    8.50
  13 -17  19  338.97    8.60
 -19  13  17  339.17    8.80
 -17  19  13  343.97    8.60
  13 -19  17  342.47    8.80
 -17  13  19  350.76    9.20
  17 -13  19  336.57    8.40
  17 -19  15 1174.88   21.60
  15 -17  19 1152.88   21.70
 -15  17  19 1194.58   22.40
 -19  15  17 1173.68   22.10
 -17  19  15 1163.78   22.10
 -19  17  15 1175.08   21.80
 -17  15  19 1185.58   22.50
 -15  19  17 1150.48   22.30
  15 -19  17 1131.69   21.90
  17 -15  19 1138.19   21.80
  19 -17  15 1129.19   21.80
 -19  17  17  813.92   16.70
 -17  17  19  861.51   17.30
 -17  19  17  824.42   17.00
  19 -17  17  839.52   16.70
  -1 -19  19  544.75   11.20
  19  -1  19  524.95   11.40
  19   1  19  524.45   11.30
  19  19  -1  540.35   10.20
 -19  -3  19  103.89    3.60
 -19  19  -3  104.59    4.20
 -19  19   3  103.79    4.20
  -3 -19  19  106.19    4.10
   3 -19  19  101.29    4.40
  19  -3  19  108.79    4.20
  19   3  19  104.39    4.20
  19  19  -3  106.79    2.60
 -19  -5  19    0.00    1.20
 -19   5  19    0.60    1.90
 -19  19  -5   -0.20    1.40
 -19  19   5    0.90    1.50
   5 -19  19    1.10    1.80
  19 -19   5    1.70    1.90
  19  -5  19    0.90    1.50
 -19  -7  19   19.30    1.50
 -19   7  19   17.70    2.70
 -19  19  -7   21.60    2.50
 -19  19   7   21.00    2.50
  19 -19   7   18.80    2.70
  19  -7  19   19.90    2.40
 -19   9  19  114.09    5.00
 -19  19  -9  110.29    4.30
 -19  19   9  121.09    4.30
   9 -19  19  111.29    4.80
  19 -19   9  122.79    5.20
  19  -9  19  111.89    4.10
 -19  11  19  566.74   12.70
 -19  19  11  564.54   12.20
  11 -19  19  565.74   12.40
  19 -19  11  566.94   12.60
 -19  13  19   52.59    4.00
 -19  19  13   47.20    3.50
 -13  19  19   50.29    3.90
  13 -19  19   49.40    3.70
  19 -19  13   45.30    3.80
  19 -13  19   44.80    3.40
 -19  15  19  175.18    6.30
 -19  19  15  178.38    5.60
 -15  19  19  167.38    6.10
  15 -19  19  163.18    5.80
  19 -19  15  155.18    5.60
  19 -15  19  163.38    5.70
 -19  17  19   81.89    4.50
 -19  19  17   73.79    4.30
 -17  19  19   71.49    4.50
  17 -19  19   75.39    4.30
  19 -19  17   68.69    4.00
  19 -17  19   71.79    3.90
 -19  19  19  312.27    8.50
  19 -19  19  305.57    8.30
 -20   0   2 1308.67   23.30
  -2  20   0 1295.67   23.70
   2  20   0 1311.37   23.80
  20   0  -2 1332.77   23.60
   0  20   2 1343.27   24.00
  20  -2   0 1271.87   23.60
  20   2   0 1331.97   23.30
 -20   2   0 1344.67   23.30
  -2  20   2  753.92   15.20
 -20   2   2  759.52   14.70
  20  -2  -2  794.22   15.20
  20   0  -4   50.89    3.00
 -20   0   4   51.69    2.70
  20  -4   0   50.99    2.90
  20   4   0   49.70    2.70
  20   0   4   53.59    2.80
 -20   4   0   48.60    2.70
   0  20  -4   48.50    2.70
   4  20   0   50.99    2.90
  20  -4  -2   14.50    2.20
 -20   4  -2   14.70    1.70
   4  20  -2   15.30    1.80
  20   4   2   14.60    1.60
 -20   2   4   13.00    1.70
  20   2  -4   14.50    1.90
  -4  20   2   12.80    1.90
  20  -2   4   13.10    1.80
  -2  20  -4   15.50    1.90
  20  -4   2   12.80    1.80
   2  20  -4   17.10    1.70
  -4  20  -2   12.40    1.60
  -2  20   4   12.60    1.90
 -20   4   2   15.80    1.90
 -20  -2   4   13.70    1.60
  20  -2  -4   14.00    2.00
  20   4  -2   12.10    1.60
  20   2   4   13.30    1.60
   4  20  -4   24.80    2.00
  20  -4  -4   28.20    2.70
 -20   4   4   26.40    2.20
  -4  20   4   23.00    2.40
  20  -4   4   27.60    2.40
  20   4  -4   23.90    2.10
  -4  20  -4   27.00    2.30
  20   4   4   27.20    2.30
  20  -6   0  157.48    5.10
  20   0   6  165.08    4.60
 -20   6   0  152.58    4.70
  20   6   0  161.18    4.50
 -20   0   6  154.78    4.50
   6  20  -2  136.89    4.40
  -2  20  -6  142.79    4.10
 -20   2   6  137.09    4.30
  20   6   2  135.39    4.00
  20  -6   2  137.49    4.50
  -6  20  -2  133.69    4.60
 -20  -2   6  148.29    4.20
  20   6  -2  144.19    4.00
  20   2   6  140.49    4.50
   2  20  -6  148.99    4.10
 -20   4   6   33.80    2.20
   6  20  -4   35.30    2.20
  20   6   4   34.70    2.50
  20  -4   6   39.10    2.70
  -6  20   4   37.40    2.90
  -4  20  -6   35.40    2.30
 -20   6  -4   37.30    2.50
  -4  20   6   36.00    2.90
  20  -6   4   33.60    2.50
   4  20  -6   35.00    2.10
 -20   6   4   32.30    2.30
  -6  20  -4   36.80    2.60
  20   4   6   39.80    2.70
  20   6  -4   34.50    2.40
   6  20  -6    1.50    0.90
  -6  20  -6    3.40    1.20
  20  -6   6    1.10    1.40
  -6  20   6    2.70    1.60
  20   6   6    2.10    1.30
 -20   6   6    2.80    1.10
 -20   0   8  120.49    3.90
  20   8   0  126.49    3.70
  20  -8   0  120.89    4.70
   2  -8  20   43.90    2.70
 -20   2   8   39.10    2.30
 -20   8  -2   43.30    2.70
  20   8   2   43.30    2.60
   8  20  -2   38.60    2.50
  20  -2   8   35.20    2.40
  20  -8  -2   37.20    3.00
  -8  20   2   40.50    2.70
  20   8  -2   41.00    2.30
 -20   8   2   42.30    2.80
  20   2   8   40.70    2.80
  20  -8   2   39.60    2.80
  -8  20  -2   42.30    2.80
  20  -4   8   71.79    3.30
 -20   8  -4   79.29    3.30
   8  20  -4   75.69    2.80
  -4  20  -8   68.39    3.20
  -8  20   4   75.69    3.60
   4  -8  20   76.69    3.20
  20   8   4   73.39    3.20
  20   4   8   69.29    3.30
   4  20  -8   72.29    2.70
  -8  20  -4   76.69    3.30
  20  -8   4   71.49    3.50
 -20   8  -6  158.98    4.90
   8  20  -6  156.48    3.70
  20  -6   8  148.49    4.90
  -6  20  -8  147.29    4.80
  -8  20   6  152.28    5.30
  20   8   6  144.79    4.80
 -20   6   8  146.29    4.80
   6  -8  20  153.18    4.90
  20  -8   6  163.18    4.80
   6  20  -8  152.18    3.80
  -6  20   8  156.28    5.30
   8  -6  20  149.59    4.70
 -20   8   6  160.68    4.90
  20   8   8   56.89    3.10
   8  -8  20   61.49    3.20
  -8  20  -8   59.59    3.20
  -8  20   8   63.79    3.50
 -20   8   8   62.99    3.30
   8 -20   8   62.59    3.60
   8  20  -8   63.39    2.00
  20  -8   8   60.59    3.30
  20 -10   0 1062.39   20.50
   0 -10  20 1071.59   19.60
  20  10   0 1082.69   18.90
  10  20  -2 1080.49   19.20
 -20   2  10 1088.99   19.60
 -10  20   2 1079.29   20.10
   2 -10  20 1071.99   19.80
 -20  -2  10 1064.49   19.20
  -2 -10  20 1056.59   19.40
   2  20 -10 1048.80   19.10
  20 -10   2 1117.59   20.60
  20   2  10 1093.29   20.00
  20  10   4  285.67    7.10
  20  -4  10  305.07    7.10
   4 -10  20  295.57    7.30
  10  20  -4  298.27    6.20
 -20  10   4  290.67    7.00
 -20  -4  10  307.57    6.60
  10  -4  20  300.67    7.40
  10  20  -6  498.45    8.70
 -20   6  10  488.45   10.60
 -20  10   6  498.05   10.60
   6 -20  10  478.45   10.90
  20 -10   6  489.55   10.80
   8 -10  20  709.23   14.20
  -8  20 -10  693.13   14.10
  10 -20   8  714.93   14.70
 -10  20   8  712.63   14.70
 -10  20  -8  711.33   14.20
  -8  20  10  730.33   14.80
 -10  20 -10 3131.09   53.49
 -20  10  10 3152.18   53.39
  10 -10  20 3256.37   53.69
  10 -20  10 3135.99   54.09
 -12  20   0 1129.99   20.80
  20  12   0 1097.09   19.90
 -20  12   0 1132.99   20.80
  20   0  12 1145.59   20.90
  20  -2  12  695.13   13.90
 -20  12  -2  712.03   13.90
  20  12   2  667.13   13.30
   2 -12  20  682.43   13.60
  20 -12   2  695.53   14.50
 -20  -2  12  698.73   12.90
  -2 -12  20  711.83   13.40
 -20  12   2  689.13   13.50
  20  12   4  138.59    4.60
 -12  20   4  148.89    5.00
 -20  12  -4  141.29    4.70
 -20  12   4  151.78    4.70
  20  12  -4  148.69    3.70
 -12  20  -4  152.58    4.60
  20   4  12  146.29    4.90
  -4 -12  20  152.08    4.30
 -20  -4  12  144.49    4.00
  20 -12   4  153.38    5.30
  20  -6  12  569.84   11.40
 -20  12  -6  547.35   11.60
  12  -6  20  566.24   11.90
  12 -20   8  756.82   15.50
 -20   8  12  755.42   14.90
 -12  20   8  764.52   15.40
  20  -8  12  736.63   14.90
 -20  12  -8  736.03   14.90
 -20  12   8  790.42   15.20
  20 -12   8  772.22   15.30
 -20  10  12 2096.69   36.40
  20 -10  12 2087.99   36.30
 -12  20  10 2080.89   36.80
 -12 -10  20 2091.09   34.10
  12 -20  10 2080.29   37.00
 -10  20  12 2075.89   36.80
  20 -12  10 2087.79   36.30
 -10 -12  20 2079.69   34.10
 -12  20 -12 1900.01   33.00
 -20  12  12 1884.21   33.10
  12 -20  12 1828.92   33.40
 -20  14   0  481.65   10.50
   0 -14  20  488.65    9.80
  20  14   0  490.25    9.70
   0 -20  14  473.35   10.40
  20   0  14  492.15   10.60
 -20   0  14  468.45   10.00
 -14  20   2  150.48    5.00
 -20  14  -2  152.08    4.90
  20  -2  14  138.39    4.80
  20  14   2  152.38    4.60
 -14  20  -2  146.09    4.60
  20  14  -2  148.29    3.90
  14  -2  20  140.49    4.70
   2 -20  14  140.89    5.00
  20 -14   2  150.28    5.40
 -20  14   2  152.58    4.60
 -20  -2  14  144.99    4.20
  20   2  14  153.28    5.00
  -2 -14  20  147.49    4.20
 -20   4  14   67.89    3.40
 -20  14  -4   70.29    3.40
  14  20  -4   71.69    2.10
  20  -4  14   68.99    3.50
  20  14   4   74.29    3.30
  20 -14   4   67.19    4.00
 -14  20  -4   72.29    3.40
 -20  -4  14   76.59    2.90
   4 -20  14   65.49    3.90
  20   4  14   72.89    3.50
  -4 -14  20   72.19    3.00
 -20  14   4   71.19    3.40
  14  -4  20   68.69    3.40
  14 -20   6   38.70    3.20
 -20  14  -6   41.10    2.90
  20  -6  14   41.50    2.70
 -20   6  14   40.20    3.00
 -14  20   6   41.30    3.10
 -14  -6  20   43.90    2.70
  20   6  14   41.70    3.00
 -14  20  -6   43.20    3.00
 -20  -6  14   45.30    2.00
  -6 -14  20   46.40    2.30
  20 -14   6   40.90    3.30
 -20  14   6   45.10    3.00
  14  -6  20   46.60    3.00
 -20   8  14    0.70    1.70
  14 -20   8    0.30    1.80
 -20  14  -8    1.10    1.30
   8 -14  20    1.70    1.40
  20  -8  14    0.70    1.40
 -14  -8  20    0.60    1.10
 -14  20   8    1.00    1.50
  20 -14   8    2.20    1.50
 -20  14   8    1.40    1.50
  14  -8  20    2.40    1.70
  -8 -14  20    0.90    0.80
   8 -20  14    0.50    1.70
 -14  20  -8    1.60    1.50
 -14  20  10  330.27    8.40
 -20  10  14  347.37    8.50
  20 -10  14  334.67    8.20
  10 -14  20  345.37    8.10
  14 -10  20  326.97    8.20
  20 -14  10  331.17    8.40
  10 -20  14  328.67    8.60
 -14  20 -10  337.67    8.20
  14 -20  12  458.35   10.70
  12 -14  20  435.66   10.10
  12 -20  14  434.56   10.40
 -14  20 -12  446.96   10.10
 -12  20  14  439.76   10.50
 -20  14  12  453.55   10.30
  14 -14  20    0.00    1.70
  20 -14  14   -0.70    1.50
 -14  20  14    0.40    1.90
  14 -20  14    0.90    1.90
 -20  14  14   -1.50    1.70
 -20   0  16    1.00    1.40
 -16  20   0    1.30    1.40
 -20  16   0    1.50    1.30
 -16   0  20    1.10    1.60
   0 -20  16    0.90    1.60
  20   0  16    0.80    1.40
   0 -16  20    1.60    1.40
  20  16   0    1.30    1.20
  16   0  20    1.00    1.50
 -16  -2  20   15.70    2.20
 -20  16  -2   15.10    2.10
 -16  20   2   19.60    2.20
  20  -2  16   14.50    2.10
  20  16   2   15.90    1.90
   2 -16  20   15.30    2.10
 -20  16   2   15.00    1.90
  20 -16   2   14.60    2.40
 -16  20  -2   14.60    1.80
  16  -2  20   18.00    2.20
  20   2  16   11.70    2.00
 -16   2  20   11.10    2.20
  20  16  -2   15.30    1.30
   2 -20  16   13.50    2.20
  -2 -16  20   16.00    1.90
 -20  -2  16   16.70    1.90
  20  -4  16  749.53   14.70
 -16  -4  20  746.03   14.30
  20  16  -4  743.43   12.30
  16  -4  20  733.53   14.70
 -20  16   4  703.43   14.50
 -16  20  -4  723.53   14.60
 -16  20   6  881.11   17.00
  16 -20   6  912.31   17.90
 -20  16  -6  867.81   17.20
 -16  20  -6  924.01   17.30
  20   6  16  888.01   17.30
 -20  16   6  904.31   17.30
 -16   6  20  873.71   17.80
  16  -6  20  922.61   17.40
  16 -20   8  479.15   11.10
 -16  20   8  450.25   10.50
 -20   8  16  484.25   10.40
 -16  -8  20  475.55    8.50
  20  -8  16  464.55   10.00
 -16  20  -8  479.45   10.50
  16  -8  20  485.25   10.50
 -20  16   8  459.15   10.50
 -16   8  20  464.25   11.10
  10 -16  20    1.80    1.80
 -20  10  16    3.10    1.70
  16 -20  10    0.70    1.90
 -16  20  10    2.00    1.50
  20 -10  16    2.00    1.60
 -16  20 -10    2.50    1.60
 -16  10  20    3.20    2.10
  10 -20  16    1.60    1.80
 -20  16  10    0.90    1.50
  20 -16  10    3.60    1.90
  16 -10  20    3.40    1.50
 -20  12  16   -0.90    1.60
  16 -20  12    1.00    2.00
  12 -16  20    0.20    1.70
 -16  20  12    0.20    1.70
  20 -12  16   -0.20    1.60
 -16  12  20    1.50    2.00
 -12  20  16    1.10    1.90
  16 -12  20   -0.60    1.50
 -20  16  12   -0.40    1.70
  20 -16  12    0.70    1.70
  12 -20  16    1.10    1.70
 -16  20  14  262.57    7.60
  16 -20  14  271.37    7.70
  14 -16  20  272.07    7.60
 -20  14  16  286.87    7.50
  16 -14  20  285.67    7.50
 -20  16  14  279.87    7.60
 -14  20  16  275.97    7.90
 -16  14  20  281.87    8.00
  20 -16  14  270.07    7.50
  20 -16  16  741.53   15.30
  16 -16  20  790.72   15.60
 -16  16  20  760.72   15.90
  16 -20  16  744.03   15.40
  20  18   0  271.07    6.20
  20   0  18  276.67    7.10
 -18  20   0  269.37    6.60
   0 -18  20  259.87    6.80
  18   0  20  258.47    6.80
 -18   0  20  250.87    7.10
 -18  20   2   73.19    3.60
 -20  18  -2   75.29    3.60
  -2 -20  18   75.69    3.60
   2 -18  20   70.09    3.50
  18  20  -2   75.19    2.60
  18   2  20   72.49    3.70
 -18  -2  20   68.79    3.50
 -20   2  18   76.39    3.90
  20  -2  18   78.99    3.70
   2 -20  18   74.79    3.90
 -18  20  -2   75.69    3.50
 -20  -2  18   79.09    3.50
 -20  18   2   72.69    3.30
  20  18  -2   75.99    2.40
  18  -2  20   74.29    3.60
 -18   2  20   75.09    4.20
  -2 -18  20   77.99    3.30
  20   2  18   76.99    3.70
 -18  20   4   23.80    2.40
   4 -18  20   22.20    2.30
 -18  -4  20   24.80    2.20
 -20   4  18   21.00    2.30
 -20  18  -4   24.90    2.50
  20  -4  18   26.50    2.60
 -18   4  20   21.60    2.80
  -4 -18  20   23.60    2.20
  20   4  18   17.60    2.20
  18  -4  20   22.30    2.40
 -18  20  -4   19.30    2.20
 -20  18   4   26.80    2.50
  20 -18   4   25.50    2.90
   4 -20  18   22.10    2.60
  18 -20   6  105.89    4.80
 -18  20   6  103.49    4.20
 -20   6  18   98.69    4.40
 -18  -6  20   99.49    3.30
  20  -6  18  106.29    4.30
 -20  18  -6  104.79    4.20
  18  -6  20  103.59    4.30
 -18  20  -6  104.49    4.20
  20 -18   6  101.69    4.60
 -20  18   6   96.29    4.10
   6 -20  18   94.79    4.10
 -18   6  20  101.39    4.80
  -6 -18  20   99.89    3.40
 -18  20   8   15.60    2.10
 -20   8  18   16.70    2.50
  18 -20   8   10.20    2.30
 -20  18  -8   15.90    2.20
   8 -18  20   12.40    2.10
  20  -8  18   12.10    1.90
   8 -20  18   13.00    2.20
 -20  18   8   10.60    2.10
  20 -18   8   12.30    2.50
  18  -8  20   11.30    2.10
 -18   8  20   13.70    2.60
 -18  20  -8   15.20    2.30
  18 -20  10  152.28    5.90
  20 -10  18  159.88    5.20
 -20  10  18  169.78    5.80
 -20  18 -10  168.68    5.40
  10 -18  20  159.88    5.50
 -18  20  10  164.88    5.50
  20 -18  10  155.78    5.70
 -18  20 -10  170.68    5.20
  18 -10  20  164.88    5.10
 -18  10  20  159.98    6.10
 -18  20  12  161.68    5.50
  18 -20  12  161.98    6.00
  20 -12  18  163.78    5.50
  20 -18  12  162.28    5.70
  18 -12  20  157.08    5.30
 -20  18  12  161.78    5.60
 -18  12  20  165.68    6.20
  20 -14  18   69.69    3.90
 -18  20  14   62.39    3.60
 -14  18  20   66.29    4.30
 -20  14  18   72.39    4.20
  18 -20  14   72.89    4.40
  14 -18  20   73.69    3.90
 -14  20  18   66.49    4.30
  14 -20  18   58.39    3.90
 -20  18  14   65.09    3.90
 -18  14  20   70.59    4.50
  20 -18  14   59.59    3.80
  18 -14  20   66.69    3.90
  20 -16  18  339.67    8.20
 -16  18  20  340.07    9.10
  16 -18  20  330.87    8.30
  18 -20  16  321.37    8.60
 -18  20  16  351.36    8.70
 -18  16  20  347.57    9.30
 -16  20  18  341.97    9.10
  16 -20  18  344.27    8.50
  18 -16  20  327.87    8.50
 -20  18  18   -0.30    2.00
 -18  18  20    0.10    2.30
 -18  20  18    0.60    2.20
  18 -20  18   -1.30    1.90
  18 -18  20    0.20    2.00
  20 -18  18   -0.70    2.00
 -20   0  20 1090.59   20.60
   0 -20  20 1095.09   20.60
  20   0  20 1105.39   20.70
  20  20   0 1133.39   19.70
 -20  20  -2 1063.99   20.10
  20   2  20 1074.29   20.10
  20  20  -2 1085.09   18.20
 -20  -4  20  450.45    9.30
 -20   4  20  455.45   10.40
 -20  20  -4  436.66   10.00
 -20  20   4  457.35   10.10
  20  -4  20  457.05   10.10
  20   4  20  430.46   10.00
 -20   6  20  239.98    7.10
 -20  20  -6  241.28    6.70
 -20  20   6  241.48    6.70
   6 -20  20  247.58    7.10
  20 -20   6  247.78    7.30
  20  -6  20  247.88    6.80
 -20   8  20  246.08    7.30
 -20  20  -8  237.68    6.60
 -20  20   8  251.27    6.90
   8 -20  20  235.38    7.10
  20 -20   8  243.08    7.30
 -20  10  20 1201.48   22.80
  10 -20  20 1195.28   22.60
  20 -20  10 1181.38   22.80
 -20  12  20 1404.66   25.90
 -20  20  12 1411.86   25.30
  12 -20  20 1387.66   25.70
  20 -20  12 1346.77   25.80
  20 -12  20 1366.16   25.20
 -20  14  20  201.58    6.70
 -20  20  14  211.68    6.50
 -14  20  20  217.78    6.90
  14 -20  20  210.28    6.70
  20 -20  14  199.88    6.70
  20 -14  20  206.98    6.30
 -20  16  20    4.00    2.30
 -20  20  16    3.20    2.00
 -16  20  20    0.20    2.30
  16 -20  20    2.80    2.30
  20 -20  16    2.30    2.20
  20 -16  20    1.90    2.00
 -20  18  20  290.97    8.20
 -20  20  18  304.37    7.90
 -18  20  20  318.57    8.70
  18 -20  20  302.97    8.30
  20 -20  18  307.67    8.00
  20 -18  20  307.97    8.20
 -21   1   1 3328.97   55.69
  -1  21  -1 3333.07   55.59
   1  21  -1 3292.67   55.79
  21  -1   1 3355.16   55.79
  21   1  -1 3395.26   55.79
  21   1   1 3318.27   55.69
 -21   1   3  911.11   16.70
  -1  21  -3  871.31   16.40
  -3  21   1  882.71   17.10
   3  21  -1  891.21   16.90
  21  -3  -1  904.11   17.20
  21   3   1  902.61   16.70
  21  -1   3  884.41   16.90
 -21   3  -1  901.81   16.80
  21   1   3  904.61   16.80
  -1  21   3  887.41   17.20
   1  21  -3  877.21   16.60
  -3  21  -1  880.41   16.90
  -3  21   3  360.66    8.80
  21  -3  -3  376.56    9.00
  21   3  -3  374.86    8.40
 -21   3   3  376.96    8.40
  21  -5  -1  507.45   11.10
  21   1  -5  497.15   10.60
 -21   1   5  509.75   10.30
  -1  21  -5  478.65   10.20
  21  -1   5  489.35   10.50
  21   1   5  500.75   10.20
  -5  21  -1  490.75   10.50
   1  21  -5  493.05   10.10
 -21   5   1  510.45   10.50
 -21  -1   5  488.45   10.00
  21  -3   5  179.18    5.40
 -21   5  -3  180.58    5.30
  21  -5  -3  187.28    5.80
  21   3  -5  184.18    5.30
  -5  21   3  191.78    5.80
 -21   3   5  187.68    5.30
  -5  21  -3  180.88    5.30
 -21   5   3  186.28    5.30
  21  -5   3  176.88    5.40
  21   5  -3  176.88    5.00
   3  21  -5  184.38    5.00
  21   5  -5   82.39    3.40
  -5  21  -5   81.09    3.50
  -5  21   5   87.39    4.00
  21   5   5   81.39    3.60
 -21   5   5   82.19    3.50
   5  21  -5   82.59    3.10
 -21   1   7   16.70    1.90
  -1  21  -7   15.00    1.60
  21  -1   7   18.10    1.90
   7  21  -1   16.40    1.90
  -7  21   1   19.20    2.20
  21  -7  -1   16.10    2.30
 -21   7  -1   18.20    2.00
  21  -7   1   14.60    2.10
   1  21  -7   17.60    1.70
  21   7  -1   15.70    1.70
 -21  -1   7   17.60    1.80
  -7  21  -1   13.30    1.70
  21   1   7   17.80    1.90
  -3  21  -7   37.60    2.40
  21   7   3   39.80    2.60
   7  21  -3   44.30    2.40
 -21   3   7   38.70    2.60
  21  -7  -3   41.40    3.30
 -21   7  -3   41.80    2.60
  21  -3   7   43.40    2.90
  21   3   7   43.70    2.70
   3  21  -7   39.30    2.20
  21  -7   3   39.70    2.70
 -21   7   3   44.80    2.70
  -7  21  -3   45.10    2.80
 -21  -3   7   38.10    2.30
  21  -5   7  245.78    6.40
  21   7   5  224.78    6.20
 -21   5   7  229.48    5.90
   5  -7  21  236.88    6.30
  -7  21   5  246.88    6.80
   7  21  -5  242.38    5.50
 -21   7   5  242.88    6.00
  -5  21   7  234.68    6.70
  21  -7   5  232.28    6.30
  -7  21  -5  227.08    5.90
  21   7  -5  235.78    5.80
  21  -7   7  933.21   17.80
  -7  21   7  918.91   18.20
  -7  21  -7  908.01   17.60
   7  21  -7  940.11   16.40
 -21   7   7  957.50   17.40
  -9  21   1 1033.20   19.40
  21  -9  -1 1077.39   20.10
  21   9   1 1054.29   18.60
 -21   9  -1 1051.19   19.40
  21  -9   1 1031.50   20.00
   1  21  -9 1033.10   18.80
 -21  -1   9 1029.10   18.90
   9  21  -3  689.73   12.80
   3  -9  21  669.13   13.50
  21   9   3  666.63   13.20
 -21   9   3  674.63   13.50
  21  -9   3  693.53   13.90
  21   3   9  674.03   13.60
   3  21  -9  681.53   12.80
 -21  -3   9  666.33   12.80
   5  -9  21  223.08    6.20
   9  21  -5  235.28    5.20
  -9  21   5  234.98    6.60
 -21   5   9  225.58    6.20
  21  -5   9  223.98    6.30
 -21   9   5  236.68    6.00
   9  -5  21  242.58    6.50
   5  21  -9  236.48    5.40
  -9  21  -5  238.48    6.10
  21  -9   5  229.58    6.40
   7  -9  21    1.50    1.40
   9  21  -7    1.00    0.80
  -9  21   7    3.00    1.70
  21  -7   9    1.00    1.50
  21   9   7    1.10    1.40
  -7  21  -9    1.60    1.50
 -21   7   9    2.30    1.40
   7  21  -9    1.30    0.80
  21  -9   7    0.40    1.30
  21   7   9    1.20    1.50
 -21   9   7    1.00    1.40
  -7  21   9    0.50    1.60
   9  -7  21    1.00    1.40
  -9  21  -7   -0.30    1.40
  21  -9   9 1262.77   23.60
   9  -9  21 1309.67   23.70
  -9  21  -9 1290.77   23.50
  -9  21   9 1323.47   24.30
   9 -21   9 1285.27   24.20
  21  -1  11 2032.40   35.90
  21  11   1 2054.39   35.30
 -11  21   1 2098.19   36.00
   1  21 -11 2090.79   35.10
  21   1  11 2095.19   36.00
  21  11  -1 2055.69   35.00
  21 -11   1 2086.89   36.60
 -21  11  -3 1437.86   26.10
  21  -3  11 1437.36   25.70
  21  11   3 1451.35   25.70
  21   3  11 1481.05   26.20
  21  11  -3 1473.15   25.00
 -21  -3  11 1460.25   25.30
  21  -5  11 1053.09   19.30
  11  21  -5 1064.19   17.90
  21   5  11 1062.69   19.80
  21 -11   5 1035.40   19.80
 -21  -5  11 1041.80   18.50
   7 -11  21  860.41   16.70
 -21   7  11  847.22   16.70
 -11  21   7  859.21   17.00
  21 -11   7  881.21   16.90
  11  -7  21  862.31   16.80
  21   7  11  874.41   16.70
  -9  21 -11 2738.83   46.10
  11 -21   9 2630.24   46.60
 -21   9  11 2691.13   46.20
   9 -11  21 2722.23   46.10
 -11  21  -9 2695.03   46.00
  21 -11   9 2719.63   46.10
  11 -11  21 4423.76   72.89
 -11 -11  21 4406.06   70.79
 -11  21 -11 4412.66   72.69
 -11  21  11 4345.97   73.29
  11 -21  11 4322.97   73.39
  21 -11  11 4337.37   72.59
  21  -1  13 1423.26   25.40
 -13  21   1 1382.26   25.40
  21  13   1 1431.76   24.70
 -21  -1  13 1381.66   24.40
  -1 -13  21 1370.16   24.90
 -21  13   1 1423.56   25.40
  21   1  13 1436.06   25.40
  21  -3  13  424.36    9.50
  21  13   3  413.06    9.10
 -21  -3  13  421.26    8.70
  13  -3  21  411.56    9.30
 -21  13   3  411.66    9.10
  -3 -13  21  424.46    8.90
  21 -13   3  430.56   10.20
 -21  13  -5  242.28    6.50
  13  21  -5  237.78    4.30
  21  13   5  226.98    6.20
 -13  21   5  236.48    6.60
  21  -5  13  236.28    6.10
 -21   5  13  218.78    6.40
  13  -5  21  239.38    6.50
  21   5  13  232.88    6.40
  21 -13   5  223.58    6.70
 -21  13   5  222.18    6.20
 -13  21  -5  236.38    6.40
 -21   7  13  196.98    5.60
 -21  13  -7  190.78    5.40
   7 -13  21  186.18    5.40
  21  -7  13  180.08    5.40
 -21  13   7  182.78    5.60
 -13  21  -7  186.18    5.70
  -7 -13  21  191.88    4.40
  21 -13   7  175.68    5.70
  21   7  13  190.68    5.50
  13  -7  21  181.98    5.60
 -21   9  13 1087.09   20.60
  21  -9  13 1133.79   20.90
 -13  21   9 1100.69   21.00
  13 -21   9 1108.39   21.40
   9 -13  21 1115.59   20.50
 -13  -9  21 1131.79   19.30
  -9 -13  21 1095.99   19.00
 -21  13   9 1143.69   21.00
  13  -9  21 1123.29   20.90
 -13  21  11 1951.60   34.70
  13 -21  11 1937.51   35.00
  21 -11  13 1937.41   34.30
 -21  11  13 1918.01   34.30
  21 -13  11 1984.70   34.40
 -13  21 -11 1991.50   34.10
  13 -21  13 1364.26   26.00
 -21  13  13 1447.26   25.60
 -13  21  13 1372.96   25.90
  13 -13  21 1389.66   25.00
 -21  15  -1  164.48    5.10
   1 -15  21  152.28    4.80
  21  -1  15  156.48    5.10
 -15  21   1  163.38    5.10
  15  -1  21  154.38    5.10
  21  15  -1  159.48    4.00
  -1 -15  21  151.58    4.80
 -21  -1  15  148.79    4.70
   1 -21  15  155.48    5.30
  21   1  15  158.18    5.10
 -15  21   3    0.80    1.50
 -21  15  -3    0.20    1.30
  15  21  -3    0.10    1.00
 -21   3  15    1.60    1.50
  21  -3  15    1.50    1.40
   3 -15  21   -0.60    1.40
  21  15   3    1.20    1.40
 -15  21  -3    0.20    1.30
  -3 -15  21    0.70    1.20
  21 -15   3    0.60    1.80
 -21  -3  15   -0.40    1.10
   3 -21  15   -0.10    1.80
  21   3  15    1.50    1.60
 -21  15   3    1.00    1.20
  15  -3  21    0.40    1.40
  21  15  -3    0.90    0.90
 -21  15  -5  300.67    7.70
 -15  21   5  319.47    7.50
 -15  21  -5  321.57    7.80
  -5 -15  21  316.17    7.00
  21 -15   5  301.87    8.30
 -21  15   5  314.47    7.80
  21   5  15  302.17    7.60
 -21  15  -7  312.37    7.70
  15 -21   7  323.87    8.50
 -21   7  15  301.87    7.90
 -15  21   7  304.97    7.90
 -15  21  -7  317.17    7.90
  21 -15   7  324.57    8.30
  21   7  15  317.87    7.90
  15  -7  21  320.37    7.90
 -21  15   7  319.37    7.90
  -7 -15  21  312.17    6.60
  21  -9  15   11.40    2.00
   9 -15  21    8.50    2.00
 -15  21   9    9.90    1.80
  15 -21   9    8.50    2.30
 -21   9  15    5.50    2.00
 -15  -9  21    6.70    0.80
 -15  -9  21    6.60    0.80
 -21  15  -9    8.50    1.90
 -15  21  -9    8.40    2.00
  -9 -15  21    7.40    0.90
 -21  15   9    8.20    2.00
   9 -21  15    8.00    2.30
  21 -15   9    8.20    2.00
  15  -9  21    7.60    1.90
  21 -11  15  477.15   10.60
  11 -15  21  472.05   10.70
 -21  11  15  474.95   10.90
 -15  21  11  478.05   10.70
  15 -11  21  469.95   10.20
  15 -21  13   81.59    4.50
 -21  13  15   85.49    4.20
 -15  21  13   74.69    4.20
  13 -15  21   78.09    4.00
  21 -13  15   81.89    4.00
  21 -15  13   74.59    4.00
  15 -13  21   87.69    4.00
 -21  15  13   83.89    4.20
 -13  21  15   81.49    4.40
  13 -21  15   77.69    4.50
 -21  15  15   46.70    3.60
 -15  21  15   48.60    3.90
 -15  15  21   48.20    3.90
  15 -15  21   45.40    3.40
  15 -21  15   48.50    3.80
  21 -15  15   41.50    3.30
 -17  -1  21  190.78    6.10
 -21  17  -1  198.48    5.80
  21  -1  17  191.68    5.70
  21  17   1  201.48    5.30
  17   1  21  194.18    5.80
  -1 -21  17  184.18    5.80
   1 -21  17  193.78    6.00
  17  -1  21  194.18    5.70
 -17  21  -1  201.78    5.50
  -1 -17  21  193.58    5.40
 -21  -1  17  189.68    5.50
 -21   3  17    9.10    1.90
  17  21  -3    9.60    1.20
 -17  -3  21    5.80    1.90
   3 -17  21    6.90    2.00
  21  17   3   10.50    1.80
 -17  21   3    5.60    1.80
 -21  17  -3    7.30    1.80
  17  21  -3    8.40    1.00
  21  -3  17    5.50    1.70
   3 -21  17    8.80    2.30
  21   3  17    7.70    1.80
  -3 -17  21    6.30    1.60
  17  -3  21    7.60    1.90
 -17   3  21    7.00    2.10
  21  17  -3    7.00    1.10
 -21  17   3    6.70    1.60
  21 -17   3    7.80    2.30
 -21  -3  17    9.30    1.50
 -17  21  -3    9.60    2.00
 -21  17  -5  148.89    5.00
 -21   5  17  139.29    5.10
 -17  21   5  138.89    4.90
  21  -5  17  135.89    4.90
 -17  -5  21  142.69    4.30
  17  -5  21  141.69    4.90
 -21  -5  17  145.99    4.00
 -17  21  -5  146.89    5.00
 -17   5  21  140.29    5.50
  21 -17   5  149.19    5.50
   5 -21  17  134.09    5.40
 -21  17   5  141.49    4.90
  -5 -17  21  151.18    4.20
  21   5  17  149.09    4.80
 -21   7  17  287.27    7.70
 -21  17  -7  300.97    7.50
  17 -21   7  275.27    7.90
  21  -7  17  289.07    7.10
 -17  21  -7  285.67    7.40
  -7 -17  21  291.07    6.20
 -17   7  21  289.47    8.10
  17  -7  21  280.37    7.40
 -21  17  -9   34.30    2.90
  17 -21   9   37.00    3.40
 -21   9  17   37.20    3.20
   9 -17  21   36.50    3.20
 -17  21   9   37.20    3.10
 -17   9  21   43.00    3.60
  21 -17   9   35.50    3.20
  17  -9  21   38.20    3.10
 -17  21  -9   35.20    2.90
   9 -21  17   39.70    3.30
 -21  17   9   37.80    3.10
  11 -17  21  222.98    6.80
 -17  21  11  219.08    6.50
  21 -11  17  220.28    6.40
  17 -21  11  227.08    7.10
 -21  11  17  220.98    6.60
 -17  11  21  227.28    7.20
  21 -17  11  244.58    6.90
 -17  21 -11  231.48    6.40
  17 -11  21  239.08    6.30
  11 -21  17  236.98    7.00
 -17  21  13   37.60    3.20
  13 -17  21   42.40    3.50
 -21  13  17   46.50    3.30
  21 -13  17   40.60    3.30
  17 -21  13   45.20    3.70
 -17  13  21   44.70    3.80
 -21  17  13   45.80    3.30
  21 -17  13   46.30    3.30
  17 -13  21   45.00    3.50
 -13  21  17   46.70    3.80
  13 -21  17   43.30    3.50
 -15  17  21  164.28    6.10
 -17  21  15  173.78    6.00
  17 -21  15  171.18    6.20
 -21  15  17  170.68    5.70
  15 -17  21  174.98    6.00
  21 -17  15  171.98    5.80
  15 -21  17  178.78    6.20
 -15  21  17  178.58    6.30
 -21  17  15  177.48    6.00
  17 -15  21  170.38    5.80
 -17  21  17  125.79    5.30
  21 -17  17  128.29    5.20
  17 -17  21  131.39    5.20
 -21  17  17  123.99    5.00
  21  19   1  649.14   12.50
 -21  19  -1  641.34   13.10
  19   1  21  624.94   13.00
 -19  -1  21  627.34   12.90
  21  -1  19  641.44   13.20
   1 -19  21  625.34   13.20
 -19  21   1  662.43   12.80
  19  21  -1  639.64   11.90
  -1 -21  19  665.13   13.30
 -21  19   1  640.64   12.80
  21  19  -1  655.03   11.90
   1 -21  19  638.54   13.50
  19  -1  21  649.54   13.30
 -19  -3  21  351.46    8.10
  19   3  21  353.96    8.40
 -19  21   3  336.37    8.20
 -21   3  19  333.87    8.50
  21  19  -3  351.76    6.00
  -3 -19  21  342.17    8.10
 -19  21  -3  348.27    8.30
  19  -3  21  326.67    8.20
 -19   3  21  337.17    8.80
  21   3  19  351.56    8.40
 -21  -3  19  335.37    7.70
 -21  19   3  352.56    8.00
   3 -21  19  331.37    8.70
 -19  21   5   58.39    3.40
 -21  19  -5   50.79    3.30
 -21   5  19   47.70    3.50
   5 -19  21   49.90    3.50
 -19  -5  21   53.09    2.90
  21  -5  19   55.79    3.30
 -21  19   5   50.29    3.30
  21   5  19   52.69    3.20
   5 -21  19   55.29    3.80
  -5 -19  21   54.29    3.20
 -19  21  -5   53.89    3.30
 -19   5  21   59.29    4.20
  19  -5  21   53.59    3.30
 -19  -7  21    7.80    1.10
  19 -21   7    7.40    2.40
 -19  21   7    8.60    2.00
   7 -19  21    7.50    2.10
  21  -7  19    8.70    1.80
 -21   7  19    9.60    2.10
 -21  19  -7    9.80    2.00
 -21  19   7   10.10    2.10
  21 -19   7    5.90    2.30
 -19   7  21    7.70    2.50
  19  -7  21    5.90    1.80
   7 -21  19    6.20    2.20
 -19  21  -7    9.30    2.00
   9 -19  21  286.37    7.50
  19 -21   9  289.07    8.10
  21  -9  19  285.07    7.10
 -21  19  -9  295.97    7.30
   9 -21  19  277.27    7.60
  19  -9  21  287.47    7.10
 -21  19   9  287.37    7.60
 -19   9  21  292.87    8.30
 -19  21  -9  286.97    7.40
  21 -19   9  283.77    8.10
  19 -21  11 1039.30   20.30
 -19  21 -11 1022.40   19.50
  19 -11  21 1022.10   19.10
  21 -19  11 1020.90   20.10
 -19  11  21 1030.70   20.30
  19 -21  13  390.16   10.10
 -21  13  19  392.46    9.70
 -19  21  13  404.36    9.70
 -19  13  21  414.96   10.40
  19 -13  21  412.76    9.60
 -13  21  19  424.06   10.20
 -21  19  13  393.46    9.50
  21 -19  13  399.06    9.90
 -19  21  15    0.70    1.70
  21 -15  19    2.20    2.00
  19 -21  15    2.10    2.30
  15 -19  21    0.50    2.00
 -15  19  21    0.70    2.10
 -21  15  19   -0.70    2.00
  21 -19  15    0.30    2.20
  19 -15  21    0.70    2.00
  15 -21  19   -0.90    2.00
 -15  21  19   -0.80    2.20
 -21  19  15    1.80    2.00
 -19  15  21    1.40    2.30
 -21  17  19    7.00    2.10
 -19  21  17    6.00    2.20
 -17  19  21    2.70    2.50
  17 -19  21    6.60    2.40
  19 -21  17    5.10    2.40
  21 -17  19    3.60    2.10
 -21  19  17    3.90    2.20
 -19  17  21    3.60    2.50
 -17  21  19    6.40    2.50
  17 -21  19    2.40    2.30
  19 -17  21    6.50    2.10
  21 -19  17    2.90    2.00
 -19  19  21  451.95   11.00
 -19  21  19  487.15   10.90
  19 -21  19  450.65   10.80
  19 -19  21  450.55   10.70
 -21  -1  21 1582.04   27.80
 -21   1  21 1551.94   28.40
  21  -1  21 1579.44   28.30
  21  21  -1 1619.94   26.90
 -21   3  21 1275.67   23.90
 -21  21  -3 1280.27   23.90
 -21  21   3 1342.47   23.50
  -3 -21  21 1331.57   23.70
   3 -21  21 1303.17   24.20
  21   3  21 1323.47   23.90
  21  21   3 1312.17   23.50
 -21  -5  21  468.65    9.00
 -21   5  21  442.76   10.30
 -21  21  -5  444.46   10.10
 -21  21   5  455.65   10.20
   5 -21  21  460.05   10.40
  21  -5  21  455.85   10.20
  21   5  21  472.65   10.30
 -21  -7  21  142.69    3.10
 -21   7  21  141.29    5.40
 -21  21  -7  149.09    5.10
 -21  21   7  151.18    5.10
  21 -21   7  150.88    5.80
 -21  21   9  834.62   16.50
   9 -21  21  827.72   16.70
  21 -21   9  844.72   17.00
 -21  21  11 1812.32   32.20
  11 -21  21 1801.52   32.60
  21 -21  11 1886.71   33.10
  21 -11  21 1826.02   32.20
 -13  21  21 1298.07   24.40
  21 -21  13 1285.17   24.40
  21 -13  21 1280.87   23.60
 -21  15  21  143.29    5.70
 -21  21  15  152.48    5.50
 -15  21  21  150.38    5.90
  15 -21  21  152.68    5.80
  21 -21  15  140.99    5.80
  21 -15  21  140.59    5.40
 -21  17  21  165.88    6.00
 -21  21  17  161.48    5.90
 -17  21  21  162.98    6.30
  21 -21  17  161.68    6.10
  21 -17  21  175.68    5.70
 -21  21  19  771.22   15.70
 -19  21  21  777.22   16.00
  21 -21  19  796.52   16.00
  21 -19  21  794.02   16.00
   0  22   0 5786.02   96.19
  22   0   0 5933.91   96.19
  22   0  -2 2585.34   43.90
  22   0   2 2541.05   43.60
  22   2   0 2565.64   43.40
   0  22   2 2516.15   44.00
 -22   2   0 2622.44   43.70
   2  22  -2 1381.76   23.80
  -2  22   2 1341.87   24.70
  22   2  -2 1328.37   24.10
  22   2   2 1324.97   24.10
  22  -2  -2 1387.26   24.80
  22  -2   2 1334.97   24.20
  -4  22   0 1415.76   25.30
  22   0   4 1392.76   25.10
   4  22  -2  757.32   14.60
  22  -4  -2  767.92   15.50
  -2  22  -4  752.92   14.70
  22   4   2  772.02   14.70
  22   2  -4  749.23   15.00
  22  -2  -4  788.52   15.40
  22  -4   2  772.42   15.10
  22   2   4  757.62   14.80
 -22   4   4 1018.80   19.20
  22   4   4 1019.60   18.80
   4  22  -4 1063.59   18.60
  22   4  -4 1036.70   19.30
  -4  22   4 1054.09   19.90
   0  22  -6    0.70    1.20
 -22   0   6    0.90    1.30
  -6  22   0    0.70    1.40
  22   6   0   -0.10    1.20
   6  22   0    0.70    1.50
  22   0   6    0.40    1.20
  22  -6   0   -0.10    1.60
 -22   6   0    0.90    1.30
   6  22  -2   24.70    2.20
  22  -6  -2   24.60    2.60
  -6  22   2   30.00    2.40
 -22   2   6   23.20    2.20
  -2  22  -6   22.60    2.00
  22  -2   6   31.40    2.60
 -22   6  -2   28.90    2.30
  22  -6   2   29.60    2.50
  22   2   6   27.50    2.20
   2  22  -6   26.90    2.20
 -22   6   2   29.20    2.50
  -6  22  -2   28.60    2.50
  22   6  -2   29.10    2.30
 -22  -2   6   22.50    2.00
 -22   4   6  121.89    4.40
   6  22  -4  130.29    3.90
  22  -4   6  130.19    4.60
  -6  22   4  133.99    4.80
  22   6  -4  136.99    4.40
  22  -6   4  122.89    4.50
   4  22  -6  136.49    4.00
 -22   6   4  132.99    4.40
  22   4   6  129.59    4.60
  -6  22  -6 1481.05   26.30
 -22   6   6 1492.15   26.50
   6  22  -6 1534.75   25.70
  22  -6   6 1480.65   26.60
  22   8   0  712.23   13.70
 -22   8   0  719.83   14.30
  22   0   8  733.23   14.00
  22   8   2  323.47    7.40
  -8  22   2  343.47    8.20
  22  -2   8  346.27    7.90
   2  -8  22  338.97    8.00
   8  22  -2  333.17    7.70
   2  22  -8  327.17    7.50
  22   2   8  345.77    8.10
  22  -8   2  340.87    8.40
  -8  22   4  176.78    5.60
 -22   4   8  186.68    5.10
   4  -8  22  186.78    5.30
  22  -4   8  183.88    5.50
   8  22  -4  186.68    4.80
 -22   8   4  182.48    5.40
  22   8  -4  183.18    5.00
  -8  22  -4  172.88    5.30
  22   4   8  174.78    5.40
   4  22  -8  183.98    4.80
   6  -8  22  492.85   10.60
  -8  22   6  493.45   11.10
 -22   6   8  505.95   10.30
  22  -6   8  493.15   10.70
  -6  22   8  499.75   11.10
   8  -6  22  468.75   10.50
  22  -8   6  478.25   10.70
 -22   8   8    2.70    1.40
  -8  22  -8    3.50    1.60
  22   8   8    4.80    1.70
   8  -8  22    5.10    1.70
   8  22  -8    4.00    1.00
  22  -8   8    4.80    1.60
  -8  22   8    2.60    1.80
  22 -10   0 1975.40   35.10
  22   0  10 1985.90   34.60
  22  -2  10 1756.72   30.40
  22   2  10 1768.72   30.90
 -22  -2  10 1722.73   30.10
  10  22  -4 1368.66   23.20
 -22  10  -4 1330.07   24.30
 -22  -4  10 1320.37   23.40
  -4 -10  22 1335.77   23.70
   4  22 -10 1362.26   23.20
  22   4  10 1367.36   24.50
 -22  10  -6  118.99    4.40
  22  -6  10  120.89    4.40
  10  22  -6  120.59    3.00
 -22   6  10  112.29    4.30
   6 -10  22  112.99    4.30
 -10  22   6  126.79    4.70
  -6  22 -10  108.99    4.30
  22 -10   6  109.59    4.30
  22   6  10  114.59    4.40
 -10  22  -6  120.69    4.50
  10  -6  22  119.59    4.40
  -6 -10  22  122.99    3.80
 -22  10   6  122.69    4.10
   8 -10  22  980.20   18.80
 -22   8  10 1017.70   18.90
  -8  22 -10  961.60   18.80
 -10  22   8  990.60   19.30
  22  -8  10  986.30   18.90
  22 -10   8  990.60   18.90
 -22  10   8  985.70   18.80
  10  -8  22 1004.40   18.90
 -10  22  -8 1011.60   18.80
  -8  22  10 1004.40   19.30
  10 -10  22 3492.35   58.39
 -10  22  10 3425.76   58.89
 -22  10  10 3529.15   58.39
 -10 -10  22 3483.15   56.89
 -10  22 -10 3413.46   58.29
   0 -12  22 2531.05   43.20
 -12  22   0 2518.65   43.40
  22  12   0 2546.35   42.40
  22   0  12 2601.64   43.60
 -22  12   0 2506.65   43.40
 -12  22   2 1719.63   29.90
  22  12  -2 1702.93   28.90
  22 -12   2 1699.03   30.60
 -12  22  -2 1650.13   29.80
  12  22  -4 1195.28   20.30
 -22  12  -4 1204.88   21.90
 -12  22   4 1141.29   21.80
  12  -4  22 1208.28   21.70
  22   4  12 1212.18   22.00
 -22  -4  12 1187.48   20.90
 -12  22  -4 1179.08   21.40
 -22  12   4 1147.79   21.40
  12  22  -6  428.16    7.40
 -22   6  12  427.96    9.80
  22  -6  12  440.56    9.70
 -12  22  -6  439.36    9.80
  22 -12   6  426.76    9.90
  12  -6  22  437.96    9.90
  22   6  12  426.76    9.80
   8 -12  22 1346.87   24.80
 -22   8  12 1356.46   24.90
  -8 -12  22 1384.86   23.50
  10 -12  22 2815.82   48.50
 -12  22  10 2905.51   49.00
  12 -22  10 2832.32   49.10
 -10 -12  22 2840.42   46.50
 -10  22  12 2897.51   49.10
  22 -12  10 2873.01   48.70
  10 -22  12 2772.82   49.10
 -12  22 -12 2850.81   48.70
  12 -22  12 2858.91   49.60
  22 -12  12 2863.11   48.60
 -12  22  12 2917.11   49.50
  22   0  14  878.91   16.90
 -22  14   0  860.01   16.70
  22  -2  14  383.66    9.00
  14  22  -2  396.46    8.30
  22  14   2  377.56    8.60
 -14  22   2  397.86    9.20
 -22  14  -2  404.06    9.10
  22  14  -2  386.66    8.00
  14  -2  22  390.86    9.10
 -14  22  -2  398.76    8.80
  22 -14   2  403.96    9.70
  22   2  14  385.46    9.10
 -22  -2  14  389.76    8.50
 -22  14  -4   36.80    2.90
 -22   4  14   35.00    2.90
  14  22  -4   39.90    1.70
  22  14   4   43.30    3.10
  22  -4  14   38.50    2.70
  22 -14   4   44.30    3.60
 -22  14   4   40.60    2.70
 -22  -4  14   40.50    2.40
  22  14  -4   38.90    2.20
  -4 -14  22   42.20    2.40
  14  -4  22   39.30    2.90
 -14  22  -4   35.80    2.70
  22   4  14   37.00    3.00
  22  -6  14   77.39    3.40
 -22  14  -6   74.49    3.60
  22  14   6   79.39    3.70
 -14  22   6   83.09    3.90
   6 -14  22   74.69    3.50
 -22   6  14   77.49    4.00
  22   6  14   80.39    3.90
 -22  14   6   84.19    3.80
  -6 -14  22   81.29    3.10
  22 -14   6   84.79    4.20
  14  -6  22   82.69    3.80
 -22  14  -8   61.39    3.40
 -22   8  14   64.19    3.70
   8 -14  22   65.19    3.30
  22  -8  14   65.49    3.60
 -14  22   8   66.89    3.50
  22  14   8   65.89    3.70
 -14  22  -8   63.79    3.60
 -22  14   8   66.59    3.60
  -8 -14  22   70.79    2.70
  22   8  14   70.09    3.50
  22 -14   8   73.99    3.80
 -14 -10  22  775.02   13.10
  14 -22  10  756.82   16.00
  10 -14  22  767.72   15.10
  22 -10  14  787.32   15.50
 -14 -10  22  772.62   13.10
 -14  22  10  793.42   15.60
 -10 -14  22  782.12   13.00
  22 -14  10  777.42   15.40
 -10  22  14  803.22   16.10
  22 -12  14 1118.79   21.40
 -14  22  12 1165.48   21.90
  14 -22  12 1129.19   22.20
  14 -12  22 1167.68   21.20
 -14  22 -12 1159.68   21.50
 -12  22  14 1165.98   22.10
  22 -14  14  236.98    6.60
  14 -22  14  237.68    7.30
 -14  22  14  233.98    7.10
  14 -14  22  225.08    6.60
 -16  22   0  218.38    6.10
 -22  16   0  217.98    6.10
  22   0  16  218.78    6.20
  16   0  22  216.78    6.30
  22  16   0  216.98    5.30
   0 -16  22  214.88    6.00
 -16  22   2   95.69    4.10
 -16  -2  22  102.19    4.40
  22  16   2   96.59    3.80
   2 -16  22   99.59    4.10
  16  22  -2   99.29    3.50
 -22   2  16  102.29    4.20
 -22  16  -2  104.19    4.20
  22  -2  16   96.49    4.20
 -16  22  -2  105.49    3.90
   2 -22  16   93.39    4.40
  22   2  16   97.99    4.20
  -2 -16  22  102.39    3.90
 -22  16   2  103.49    3.90
 -22  -2  16  103.59    3.60
  16  -2  22  100.79    4.10
  22  16  -2  101.69    3.30
 -22   4  16   47.40    3.40
   4 -16  22   50.09    3.40
 -16  -4  22   55.69    3.50
 -22  16  -4   55.29    3.20
  22  -4  16   54.69    3.30
  22  16   4   56.19    3.20
 -16  22  -4   55.99    3.40
  22 -16   4   56.79    3.80
 -22  16   4   57.29    3.10
  -4 -16  22   55.09    3.00
 -22  -4  16   52.29    2.80
  16  -4  22   51.09    3.30
  22   4  16   54.39    3.40
 -22   6  16  558.74   11.40
 -16  -6  22  531.25   10.80
  22 -16   6  533.75   12.20
  -6 -16  22  543.75   10.60
  16  -6  22  523.75   11.50
 -22  -6  16  542.65   10.00
 -22  16   6  552.74   11.60
  22   6  16  537.45   11.40
 -22  16  -8   39.90    2.90
   8 -16  22   44.00    3.40
  22  -8  16   43.30    3.00
 -16  -8  22   44.60    2.20
 -22   8  16   40.50    3.30
 -16  22   8   42.80    3.20
  16 -22   8   41.80    3.50
  22   8  16   41.90    3.20
  16  -8  22   40.00    3.10
  22 -16   8   37.40    3.20
 -16  22  -8   44.10    3.30
 -22  16   8   41.90    3.10
  -8 -16  22   38.70    2.20
  22 -10  16  280.87    7.40
  10 -16  22  280.67    7.60
 -16  22  10  270.77    7.40
  16 -22  10  284.47    8.00
 -22  10  16  278.37    7.70
  22 -16  10  296.67    7.80
 -22  16  10  295.37    7.60
 -16  22 -10  296.87    7.50
  10 -22  16  291.37    8.20
  16 -22  12  274.07    8.00
 -16  22  12  272.87    7.30
  12 -16  22  272.87    7.50
 -22  12  16  275.27    7.70
  22 -12  16  265.37    7.30
 -16  22 -12  283.47    7.40
 -22  16  12  265.27    7.20
 -16  12  22  267.47    7.90
 -12  22  16  291.07    7.90
  12 -22  16  279.87    8.00
  16 -12  22  276.27    7.00
 -22  14  16    3.80    2.10
  16 -22  14    7.20    2.40
  22 -14  16    4.40    1.90
  14 -16  22    4.40    2.00
 -16  22  14    5.50    2.20
 -22  16  14    3.80    1.90
  22 -16  14    4.70    2.00
  14 -22  16    6.40    2.50
 -16  14  22    4.20    2.30
 -14  22  16    6.00    2.30
  16 -14  22    4.00    2.00
  22 -16  16   60.39    3.90
 -22  16  16   57.79    4.00
 -16  16  22   60.69    4.30
  16 -22  16   63.79    4.30
 -16  22  16   64.19    4.20
  16 -16  22   62.19    3.90
  18   0  22  487.65   10.60
  22   0  18  507.55   10.90
   0 -22  18  498.95   11.10
 -18  22   0  494.35   10.40
   0 -18  22  507.85   10.60
 -22  18   0  499.05   10.80
 -22   0  18  493.45   10.70
  18  22  -2  209.68    4.70
 -18  -2  22  218.48    6.30
  18  22  -2  211.88    5.10
 -22  18  -2  203.18    6.00
   2 -18  22  200.48    6.00
  22  18   2  211.68    5.70
 -22   2  18  210.98    6.20
  22   2  18  206.28    6.10
 -18   2  22  218.78    6.80
   2 -22  18  205.18    6.50
  18  -2  22  219.78    6.20
 -22  18   2  199.08    5.70
 -18  22   4   20.80    2.30
  22  18   4   22.30    2.40
  22  -4  18   17.20    2.30
 -18  -4  22   20.60    2.10
 -22   4  18   24.00    2.50
   4 -18  22   18.60    2.50
 -22  18  -4   16.10    2.20
 -18   4  22   20.30    2.90
 -18  22  -4   21.90    2.50
  -4 -18  22   19.70    2.10
   4 -22  18   19.00    2.70
 -22  -4  18   16.90    1.80
  22 -18   4   24.60    3.00
  22   4  18   22.60    2.50
  18  -4  22   16.90    2.30
 -18  22   6  136.89    4.90
 -18  -6  22  132.49    3.80
  22  18   6  127.79    4.80
 -22  18  -6  129.79    4.80
   6 -18  22  123.49    5.10
 -22   6  18  132.89    5.20
  22  -6  18  132.29    4.50
  22   6  18  131.89    4.60
  22 -18   6  127.79    5.20
 -22  18   6  133.79    4.90
 -18   6  22  129.39    5.60
 -22  -6  18  129.19    3.50
  -6 -18  22  136.49    4.30
 -18  22  -6  137.69    4.90
   6 -22  18  129.99    5.40
  22  -8  18    1.80    1.50
  18 -22   8    1.90    2.10
   8 -18  22    2.90    2.10
 -22  18  -8    3.20    1.60
 -18  22   8    4.00    1.70
 -18  -8  22    2.50    0.80
 -22   8  18    3.20    2.00
 -18  22  -8    1.50    1.70
  22 -18   8    4.30    2.10
 -18   8  22    0.60    2.10
   8 -22  18    3.50    2.30
  18  -8  22    3.00    1.80
  22   8  18    1.10    1.90
 -22  18   8    4.40    1.80
 -18  22  10  377.66    9.20
  18 -22  10  398.56    9.90
  10 -18  22  390.46    9.60
 -22  10  18  392.86    9.70
 -18  22 -10  406.76    9.10
 -18  10  22  396.66   10.10
  18 -10  22  409.06    9.00
  10 -22  18  384.26    9.80
  22 -18  10  393.16    9.80
 -22  18  10  405.46    9.50
  22 -12  18  425.96    9.80
  12 -18  22  409.16   10.10
 -22  12  18  433.96   10.30
  18 -22  12  436.66   10.70
 -18  22  12  428.96   10.00
  12 -22  18  440.86   10.50
  22 -18  12  438.26   10.30
 -22  18  12  411.96    9.70
  18 -12  22  418.56    9.50
 -18  12  22  426.26   10.70
  18 -22  14    3.90    2.40
  22 -14  18    6.20    2.10
  14 -18  22    4.90    2.20
 -18  22  14    5.10    1.90
 -22  14  18    4.90    2.30
 -22  18  14    7.60    2.10
 -14  22  18    9.80    2.60
  14 -22  18    6.80    2.40
  18 -14  22    5.20    2.10
  22 -18  14    9.90    2.40
 -18  14  22    7.30    2.60
  16 -18  22   63.89    4.00
 -22  16  18   56.99    4.00
 -16  18  22   53.69    4.20
  22 -16  18   57.79    3.80
  18 -22  16   54.89    4.50
 -18  22  16   53.69    3.90
 -16  22  18   54.49    4.30
 -18  16  22   64.39    4.50
  22 -18  16   59.49    3.70
  16 -22  18   58.59    4.50
  18 -16  22   58.79    4.10
 -22  18  16   57.89    4.00
  18 -22  18    1.50    2.50
  18 -18  22    6.70    2.20
  22 -18  18    3.70    2.30
 -22  18  18    2.80    2.30
 -18  18  22    3.40    2.70
 -18  22  18    4.70    2.30
  22  20   0 1024.50   18.50
  20   0  22 1037.70   19.60
 -22  20   0 1023.10   19.50
  20  22   0 1061.59   18.60
 -22   2  20  961.10   17.90
  22  -2  20  922.51   17.90
  22  20   2  931.91   17.50
 -22  20  -2  928.81   17.90
 -20  22   2  944.91   17.60
  20  22  -2  950.30   15.90
 -20  22  -2  957.90   18.00
 -22  20   2  964.40   17.60
  20  -2  22  922.71   17.90
  22  20  -2  946.61   16.10
 -20   2  22  944.41   18.30
  22   2  20  905.21   18.00
  20   4  22  429.86    9.70
 -22  20  -4  419.26    9.60
  22  20   4  437.86    9.30
  22  -4  20  412.16    9.60
 -20  -4  22  411.86    9.10
 -20  22   4  405.86    9.50
  22   4  20  427.26    9.70
  20  -4  22  422.66    9.60
  -4 -20  22  436.56    9.40
 -20   4  22  422.66   10.30
 -22  -4  20  421.66    8.60
 -20  22  -4  420.76    9.60
 -22   6  20   39.00    3.30
 -20  22   6   36.70    3.10
 -22  20  -6   32.70    2.90
 -20  -6  22   38.90    2.30
  22  -6  20   37.60    3.00
   6 -20  22   34.60    3.20
  22 -20   6   42.50    3.60
  20  -6  22   36.50    3.10
 -20  22  -6   35.80    3.00
 -22  20   6   38.30    3.10
   6 -22  20   35.50    3.30
 -22  -6  20   38.60    2.30
 -20   6  22   38.20    3.50
  22   6  20   33.20    2.80
 -22  20  -8  128.69    4.60
 -20  22   8  132.29    5.00
 -22   8  20  129.39    5.20
  20 -22   8  135.79    5.60
  22  -8  20  129.39    4.50
 -20   8  22  137.79    5.70
  22 -20   8  132.09    5.40
  22   8  20  137.99    5.00
 -22  20   8  132.69    4.90
 -20  22  -8  130.49    4.80
  22 -10  20 1058.69   19.60
  10 -20  22 1049.59   20.10
  10 -22  20 1037.10   20.20
 -20  22 -10 1067.69   19.50
  20 -10  22 1032.40   19.20
  22 -20  10 1007.50   20.20
 -22  20  10 1009.00   19.60
  22 -12  20 1305.17   23.80
  12 -20  22 1297.77   24.20
  12 -22  20 1284.77   24.20
  20 -12  22 1292.37   23.80
 -22  20  12 1280.47   23.80
  22 -20  12 1294.87   24.50
 -12  22  20 1314.37   24.50
  22 -14  20  272.77    7.50
 -20  22  14  274.37    7.50
 -14  20  22  287.67    8.20
  14 -20  22  287.57    8.00
 -20  14  22  271.77    8.10
  22 -20  14  259.07    7.90
  14 -22  20  268.97    7.80
 -22  20  14  265.87    7.20
 -14  22  20  278.57    7.90
 -22  16  20   16.20    2.60
 -16  20  22   17.90    3.00
  22 -16  20   12.50    2.30
  20 -22  16   16.10    3.10
 -20  22  16   15.00    2.60
  16 -20  22   11.70    2.70
 -16  22  20   12.60    2.80
 -22  20  16   13.80    2.50
 -20  16  22   11.70    2.90
  22 -20  16   13.90    2.80
  20 -16  22   12.00    2.60
  16 -22  20   14.10    2.90
  18 -20  22  217.98    7.00
  20 -22  18  213.48    7.10
  22 -18  20  225.68    6.90
 -20  22  18  224.98    6.40
 -22  20  18  221.48    6.80
 -20  18  22  210.18    7.00
 -18  22  20  217.68    7.00
  20 -18  22  211.78    6.70
  22 -20  18  205.28    6.70
 -20  20  22  798.42   16.30
 -20  22  20  796.82   15.90
  20 -22  20  826.92   16.50
  20 -20  22  772.02   16.10
  22   0  22 1903.01   33.40
  22  22   0 1914.31   32.30
 -22  -2  22 1552.54   27.30
 -22   2  22 1498.05   27.70
  22  -2  22 1550.84   27.50
  22   2  22 1559.24   27.60
  22  22   2 1515.35   26.90
 -22  -4  22  790.62   14.30
 -22   4  22  792.12   15.80
 -22  22  -4  741.63   15.10
 -22  22   4  785.42   14.90
  22  -4  22  757.32   15.20
  22   4  22  768.62   15.20
  22  22   4  741.83   15.00
 -22  -6  22   47.40    2.70
 -22   6  22   55.29    3.90
 -22  22  -6   52.79    3.50
 -22  22   6   53.99    3.50
   6 -22  22   53.29    4.20
  22  -6  22   49.60    3.40
  22   6  22   49.90    3.30
 -22  22  -8  230.38    6.40
 -22  22   8  236.38    6.60
   8 -22  22  241.08    7.20
  22 -22   8  227.08    7.20
  22   8  22  238.58    6.80
 -22  10  22 1386.16   26.10
 -22  22 -10 1439.96   25.90
  10 -22  22 1466.55   26.30
  22 -22  10 1462.35   26.70
  22 -10  22 1429.06   25.70
 -22  12  22 1718.83   30.80
  22 -12  22 1717.13   30.40
 -22  14  22  558.04   12.20
 -14  22  22  569.44   12.50
  14 -22  22  561.24   12.20
  22 -22  14  536.55   12.60
 -22  16  22  105.69    5.10
 -22  22  16  102.09    4.70
 -16  22  22  111.79    5.50
  16 -22  22   99.69    4.90
  22 -22  16  110.39    5.50
  22 -16  22   95.39    4.50
 -22  22  18  320.77    8.50
 -18  22  22  338.07    9.10
  22 -22  18  341.77    9.10
  22 -18  22  325.87    8.60
  -1  23   1 3127.69   52.69
  23   1   1 3085.69   52.09
 -23   1   3 1236.78   22.00
  23   3   1 1197.98   22.20
  -3  23   1 1249.88   22.50
  23   1  -3 1234.38   22.70
   1  23   3 1219.98   22.70
  23  -3  -1 1236.48   22.80
  23   3  -1 1215.78   22.20
  23  -1  -3 1219.78   22.80
  23  -3  -3 1013.10   19.20
  -3  23  -3 1010.00   18.70
  23   3  -3  989.00   18.70
  23  -3   3  972.70   18.70
  -5  23   1    2.60    1.40
 -23   1   5    2.20    1.30
  -1  23  -5    1.50    1.40
 -23   5  -1    2.90    1.30
  23   5   1    1.10    1.30
   5  23  -1    2.20    1.50
  23  -5  -1    1.80    1.80
  23  -1   5    1.90    1.40
  23   1   5    2.30    1.50
 -23  -1   5    0.90    1.20
  23  -5   1    1.00    1.50
  -1  23   5    0.70    1.50
  -5  23  -1    0.80    1.30
   5  23   1    1.90    1.50
  23   5  -1    1.50    1.40
   1  23  -5    1.10    1.40
 -23   5   1    2.90    1.40
  23  -5  -3    1.40    1.80
  23  -3   5   -0.20    1.40
   5  23  -3   -0.30    1.20
  23   5   3    0.90    1.30
  23   3  -5   -1.00    1.50
 -23   3   5   -0.60    1.20
  -5  23   3   -0.10    1.50
  -3  23  -5   -0.60    1.30
  -5  23  -3    0.00    1.40
  23   5  -3    1.30    1.40
 -23   5   3    0.80    1.30
  23   3   5    0.80    1.30
  -3  23   5    0.60    1.50
   3  23  -5    1.00    1.30
  23  -5   3   -0.90    1.30
 -23   5   5  776.72   15.30
   5  23  -5  797.92   14.80
  -5  23  -5  797.62   15.20
  -5  23   5  778.12   15.90
  23  -5   5  787.12   15.20
  -7  23   1  127.79    4.60
   7  23  -1  128.59    4.50
  23  -1   7  129.89    4.50
  23   7   1  126.09    4.20
  23  -7  -1  122.39    4.90
   1  23  -7  117.89    3.90
  23  -7   1  131.19    5.00
  23   1   7  127.79    4.20
  -7  23  -1  118.99    4.40
  23   7  -1  127.69    4.00
  23   7   3    5.40    1.40
  -3  23  -7    5.10    1.50
  -7  23   3    7.70    1.70
   7  23  -3    6.10    1.40
 -23   3   7    5.30    1.60
  23  -3   7    8.90    1.80
  23  -7   3    7.10    1.80
  -7  23  -3    6.90    1.80
   3  23  -7    7.40    1.30
  23   7  -3    4.00    1.40
  -3  23   7    6.40    1.90
 -23   7   3    7.30    1.70
  23   3   7    8.40    1.60
   5  -7  23  755.42   15.10
  23  -5   7  780.72   15.30
   7  23  -5  785.52   14.30
  -7  23   5  790.32   15.60
 -23   7   5  768.02   15.10
  23   5   7  741.73   15.10
  -7  23   7  530.95   11.80
   7  23  -7  524.75   10.10
 -23   7   7  520.75   10.80
  -7  23  -7  514.45   11.10
  23  -9  -1 1165.68   22.10
   9  23  -1 1171.88   21.30
  -1  -9  23 1163.38   21.20
 -23   9  -3  750.32   14.70
  -9  23   3  726.03   14.90
  23  -3   9  755.12   14.80
  23  -9   3  753.82   15.20
  -9  23  -3  750.42   14.90
 -23   9   3  747.93   14.80
   3  23  -9  752.02   14.10
   9  23  -5    3.00    1.20
  23   9   5    2.00    1.50
 -23   5   9    2.60    1.30
  -5  23  -9    2.50    1.60
   5  -9  23    2.30    1.60
  23  -5   9    4.30    1.60
 -23   9  -5    2.00    1.50
  -9  23   5    1.10    1.50
  23  -9   5    2.80    1.50
 -23   9   5    3.60    1.50
   9  -5  23    0.60    1.50
  -5  23   9    2.70    1.90
  23   9  -5    2.30    1.40
  -9  23  -5    2.80    1.40
  23   5   9    1.20    1.60
   5  23  -9    2.40    1.20
   7  -9  23    0.40    1.60
  23   9   7    0.50    1.50
  -9  23   7   -0.50    1.60
  23  -7   9   -0.30    1.50
  -7  23  -9    1.60    1.50
 -23   7   9    0.30    1.30
   9  23  -7    0.30    0.90
  -7  23   9   -0.30    1.50
   7  23  -9    0.80    0.90
   9  -7  23   -0.10    1.40
 -23   9   7    0.10    1.20
  23  -9   7    1.50    1.60
  -9  23  -7    1.20    1.50
  23   7   9    0.30    1.60
 -23   9   9 1068.59   19.70
   9  -9  23 1044.20   19.70
  -9  23   9 1019.70   20.20
  23 -11  -1 1564.24   28.80
 -11  23   1 1589.54   28.30
  23 -11   1 1612.24   28.90
  23  11  -1 1595.34   27.40
   1  23 -11 1564.94   27.30
 -23  11   1 1553.44   28.10
  23   1  11 1586.84   28.20
 -11  23   3 1167.88   21.40
  11  23  -3 1154.98   20.30
 -23  11  -3 1159.18   21.40
  23  11   3 1167.28   21.10
   3  23 -11 1114.59   20.50
  23 -11   3 1167.28   22.00
 -23  11   3 1163.48   21.40
  23   3  11 1155.78   21.50
 -11  23   5  184.88    5.80
  23  -5  11  195.48    5.80
  23  11   5  194.08    5.70
  23 -11   5  192.48    6.00
 -23  11   5  202.58    5.60
  11  -5  23  202.38    5.70
  23   5  11  193.98    5.80
  11  23  -7  479.05    8.20
 -23   7  11  464.45   10.50
 -11  23   7  463.75   10.50
  -7  23 -11  456.05   10.40
  -7 -11  23  483.65    9.70
 -11  23  -7  485.95   10.50
  -7  23  11  483.45   11.10
  11  -7  23  484.65   10.60
  -9  23 -11 1748.53   31.50
   9 -11  23 1825.72   31.70
  23  -9  11 1759.12   31.60
 -23   9  11 1768.12   31.60
  11  -9  23 1784.22   31.60
  -9  23  11 1808.62   32.10
  -9 -11  23 1791.72   30.30
  23 -11   9 1801.92   31.70
  11 -11  23 2942.71   49.99
 -11  23 -11 2882.51   49.80
  11 -23  11 2955.40   50.59
 -11  23  11 2958.40   50.49
 -23  13  -1 1272.47   23.10
  23  13   1 1280.87   22.20
  23  -1  13 1270.67   23.20
   1 -13  23 1248.98   22.90
 -13  23   1 1279.57   23.20
  23 -13   1 1272.07   23.80
 -13  23  -1 1252.57   23.10
  -1 -13  23 1227.48   22.80
  23   1  13 1276.47   23.20
  23  13  -1 1264.37   22.20
  23  13   3  457.35    9.90
  23  -3  13  452.75    9.80
 -13  23   3  463.35   10.10
  13  23  -3  454.05    9.00
 -13  23  -3  476.75    9.90
 -23  13   3  468.35   10.20
  23   3  13  479.05   10.40
  13  -3  23  456.75   10.10
  23 -13   3  442.26   10.70
 -23  -3  13  448.46    9.40
  -3 -13  23  454.05    9.70
 -23  13  -5   19.30    2.20
  23  13   5   23.20    2.50
  23  -5  13   22.20    2.30
 -23   5  13   18.70    2.30
 -13  23   5   19.30    2.40
  13  23  -5   19.20    1.20
   5 -13  23   17.20    2.30
  23 -13   5   17.40    2.60
 -23  13   5   19.20    2.10
  23   5  13   22.40    2.50
  -5 -13  23   21.80    2.00
 -13  23  -5   18.30    2.20
  13  -5  23   21.50    2.40
 -13  23   7  101.69    4.30
 -23   7  13  111.79    4.50
 -23  13  -7  110.09    4.30
  -7  23 -13   99.89    4.30
  23  -7  13  109.19    4.30
  23  13   7  101.39    4.30
  13  -7  23  108.39    4.30
   7 -23  13   99.59    4.90
  23 -13   7  112.39    4.60
  23   7  13  111.59    4.50
  -7 -13  23  106.99    3.40
 -13  23  -7  112.19    4.40
 -23  13   7  102.49    4.20
  23  13   9  824.52   16.30
 -23   9  13  871.31   16.90
  -9  23 -13  847.22   16.70
 -13  23   9  833.52   16.70
 -13  23  -9  873.51   16.70
  -9  23  13  846.12   17.10
 -23  13   9  859.31   16.70
   9 -23  13  838.12   17.20
 -11  23 -13 1482.55   26.70
 -13 -11  23 1487.15   24.30
  23 -11  13 1428.16   26.50
  11 -13  23 1458.15   26.30
 -13  23  11 1455.15   26.90
 -13 -11  23 1487.25   24.10
  13 -23  11 1481.75   27.30
  23  13  11 1429.36   26.60
 -11 -13  23 1495.45   24.10
 -13  23 -11 1509.55   26.60
  13 -11  23 1483.85   26.70
  11 -23  13 1442.96   27.20
 -23  13  11 1488.55   26.70
  23 -13  11 1466.05   26.80
 -13  23  13 1120.59   21.40
  13 -23  13 1109.19   21.50
  23 -13  13 1097.59   20.70
 -23  15  -1  287.07    7.30
  23  -1  15  280.27    7.30
 -23   1  15  276.37    6.90
  23  15   1  275.47    6.60
 -15  23   1  291.57    7.40
 -23  15   1  299.57    7.40
  15  -1  23  285.77    7.40
  23   1  15  284.47    7.40
  -1 -15  23  292.97    6.90
 -23  -1  15  281.97    6.70
  23  15  -1  284.57    6.50
 -15  23   3    6.80    1.90
  23  15   3    6.60    1.80
 -23  15  -3    4.30    1.60
   3 -15  23    6.20    1.70
 -23   3  15    3.70    1.70
  23  -3  15    6.30    1.80
  15  23  -3    4.60    1.20
  23 -15   3    7.70    2.20
  23  15  -3    5.00    1.20
 -23  -3  15    4.90    1.50
  15  -3  23    6.10    1.70
  23   3  15    3.30    1.70
 -23  15   3    6.20    1.70
  -3 -15  23    4.80    1.60
 -15  23  -3    6.10    1.60
 -23   5  15  455.95   10.20
  23  15   5  440.86   10.00
  23  -5  15  453.25    9.70
  -5 -15  23  460.15    9.40
  15  -5  23  446.26   10.20
  23 -15   5  455.25   10.80
  23   5  15  453.55   10.30
  23  -7  15  152.18    5.10
 -23   7  15  163.58    5.60
   7 -15  23  155.18    5.10
 -15  23   7  163.78    5.30
 -15  -7  23  161.98    4.90
 -23  15  -7  168.08    5.20
  -7 -15  23  158.48    4.40
 -23  15   7  158.58    5.20
  15  -7  23  159.78    5.30
  23 -15   7  159.28    5.70
  23  -9  15   60.19    3.50
 -15  -9  23   61.49    2.20
 -23   9  15   62.09    3.80
  23  15   9   65.19    3.80
 -15  -9  23   67.29    2.40
   9 -15  23   61.89    3.50
 -23  15   9   67.49    3.70
  15  -9  23   70.59    3.70
  23 -15   9   58.99    3.80
   9 -23  15   55.49    4.20
 -15  23  -9   60.79    3.60
  -9 -15  23   63.79    2.30
  23   9  15   67.09    3.70
  11 -15  23  603.74   12.70
  23 -11  15  583.34   12.60
 -15  23  11  602.24   12.60
  15 -23  11  594.34   13.20
  11 -23  15  582.84   13.30
 -11  23  15  617.84   13.10
  23 -15  11  587.24   12.40
  13 -15  23  122.89    4.90
  15 -23  13  121.19    5.40
 -15  23  13  118.29    4.90
 -13  23  15  127.89    5.40
  15 -13  23  119.69    4.50
  23 -15  13  115.99    4.80
 -23  15  13  123.09    5.00
  13 -23  15  125.79    5.60
 -23  15  15    1.50    1.80
  23 -15  15    2.10    2.00
 -15  23  15    1.40    2.10
  15 -15  23    2.50    2.00
  15 -23  15    1.60    2.30
 -17  23   1  158.98    5.10
  17   1  23  157.38    5.30
   1 -17  23  163.18    5.30
 -23  17  -1  154.88    5.20
  23  17   1  153.88    4.80
 -23   1  17  159.08    5.20
  23  -1  17  168.48    5.40
 -17  -1  23  155.98    5.60
 -17   1  23  149.79    5.70
  23   1  17  158.88    5.30
  -1 -17  23  161.68    5.10
 -17  23  -1  159.68    4.90
  23  17  -1  158.38    4.50
 -23  17   1  153.78    5.10
  17  -1  23  149.79    4.90
 -23  -1  17  161.48    4.70
 -23  17  -3    4.30    1.70
 -17  -3  23    3.60    2.10
  23  17   3    4.00    1.80
 -17  23   3    4.20    1.80
  17  23  -3    4.10    1.00
 -23   3  17    4.10    1.90
  23  -3  17    3.80    1.80
   3 -17  23    2.90    1.90
  17  23  -3    4.50    1.00
  23   3  17    6.20    1.90
  23 -17   3    2.80    2.10
 -23  -3  17    4.40    1.60
 -23  17   3    4.00    1.50
  17  -3  23    7.30    1.90
  23  17  -3    4.50    1.20
 -17   3  23    3.80    2.30
 -17  23  -3    2.80    1.70
   3 -23  17    4.60    2.20
  23  -5  17  440.36    9.70
  23  17   5  442.06   10.00
   5 -17  23  465.45   10.30
 -17  23   5  442.86   10.10
 -23  17  -5  445.36   10.00
 -17  -5  23  456.05    9.70
   5 -23  17  430.66   10.60
  23 -17   5  442.96   10.60
  17  -5  23  458.85   10.10
 -23  -5  17  450.45    9.00
 -17  23  -5  465.35   10.20
 -17   5  23  438.66   10.70
 -23  17   5  441.86    9.70
  23   5  17  443.86   10.20
  -5 -17  23  452.95    9.40
   7 -17  23  287.57    7.70
  23  -7  17  289.47    7.10
  23  17   7  304.97    7.50
 -17  -7  23  296.07    6.50
  23   7  17  282.77    7.40
 -17  23  -7  303.17    7.60
 -23  17   7  297.87    7.60
  -7 -17  23  287.67    6.50
  23 -17   7  279.57    8.00
   7 -23  17  279.67    8.20
  23  -9  17   42.40    3.20
 -23   9  17   48.70    3.30
   9 -17  23   40.50    3.50
 -17  23   9   39.60    3.20
 -23  17   9   44.60    3.30
  23   9  17   42.70    3.40
 -17  23  -9   46.00    3.30
 -17   9  23   36.90    3.40
   9 -23  17   49.50    4.00
  17  -9  23   36.20    3.20
  23 -17   9   44.20    3.60
 -23  11  17  207.88    6.50
  17 -23  11  223.88    7.00
  23 -11  17  200.18    6.20
 -17  23  11  202.98    6.30
  11 -17  23  201.58    6.40
  11 -23  17  205.58    6.90
  23 -17  11  211.58    6.60
 -11  23  17  208.88    6.80
  17 -11  23  212.18    5.90
 -23  17  11  217.38    6.40
 -17  11  23  203.88    6.80
  17 -23  13   14.00    2.90
  23 -13  17   19.00    2.50
  13 -17  23   19.80    2.80
 -23  13  17   19.00    2.70
 -23  17  13   16.00    2.50
  13 -23  17   15.50    2.80
  23 -17  13   14.20    2.40
 -13  23  17   13.00    2.60
 -17  13  23   16.20    2.90
  17 -13  23   20.20    2.50
  23 -15  17   65.49    3.80
  15 -17  23   67.49    4.30
 -15  17  23   64.79    4.50
 -23  15  17   70.39    4.30
  17 -23  15   66.49    4.50
 -17  23  15   66.39    4.00
 -15  23  17   65.19    4.30
 -23  17  15   69.89    3.70
  17 -15  23   65.39    4.10
 -17  15  23   70.49    4.50
  15 -23  17   66.29    4.60
  23 -17  15   68.29    3.90
  23 -17  17  142.19    5.50
 -17  23  17  148.59    5.70
 -23  17  17  153.08    5.60
 -17  17  23  143.39    5.90
  17 -17  23  152.98    5.80
  17 -23  17  157.18    6.30
 -23  19  -1  441.66    9.80
  19  23  -1  437.06    8.60
  23  -1  19  447.36    9.90
  19   1  23  442.16    9.70
 -23   1  19  417.36    9.70
 -19  23   1  425.16    9.30
  23  19   1  436.96    9.20
  23  19  -1  421.16    8.60
  23   1  19  412.26    9.70
  19  -1  23  437.66    9.90
 -23  -1  19  423.66    9.50
 -19   1  23  439.76   10.40
 -23  19  -3  128.99    4.80
 -23   3  19  142.09    5.20
   3 -19  23  133.79    4.90
  23  -3  19  133.99    4.80
 -19  23   3  127.89    4.80
 -23  -3  19  134.79    4.20
  23   3  19  138.69    5.00
  19  -3  23  128.69    4.80
 -23  19   3  134.19    4.50
 -19   3  23  129.89    5.70
 -19  23  -3  132.69    4.80
   5 -19  23    8.30    2.10
  23  -5  19    8.10    1.90
 -23  19  -5    7.40    2.00
 -23   5  19    9.30    2.10
 -19  -5  23    7.80    1.70
 -19  23   5   10.10    2.10
 -19  23  -5   12.30    2.20
  19  -5  23   12.40    2.10
 -19   5  23   13.30    2.90
  23 -19   5    9.80    2.40
 -23  19   5    9.30    1.80
  -5 -19  23    9.00    2.00
 -23  -5  19    7.90    1.60
  23   5  19    8.80    2.10
   5 -23  19    7.80    2.50
 -19  -7  23   10.00    1.40
 -19  23   7   14.50    2.40
   7 -19  23   13.30    2.30
 -23  19  -7   10.70    2.10
  23  19   7   13.50    2.40
 -23   7  19    9.20    2.20
  23  -7  19    9.20    1.90
 -19   7  23   14.30    3.10
  23 -19   7    7.70    2.40
   7 -23  19    9.90    2.60
 -19  23  -7   10.10    2.10
 -23  19   7   11.40    2.10
  23   7  19   11.30    2.10
  19  -7  23   12.20    2.20
 -23  19  -9  159.68    5.30
 -19  23   9  161.08    5.30
   9 -19  23  169.08    5.60
  23  -9  19  165.38    5.40
 -23  19   9  164.38    5.40
  23   9  19  156.48    5.50
  23 -19   9  150.48    5.90
 -19   9  23  156.88    6.30
 -19  23  -9  155.18    5.30
  19 -23  11  775.92   16.00
 -19  23  11  738.43   15.10
 -23  11  19  757.52   15.60
  19 -11  23  766.82   14.80
 -11  23  19  780.32   15.90
 -19  23 -11  748.43   15.20
  11 -23  19  772.12   16.10
 -19  23  13  176.88    6.00
  23 -13  19  183.68    5.90
 -23  13  19  179.88    6.30
  19 -23  13  179.78    6.50
 -13  23  19  178.78    6.30
  13 -23  19  179.68    6.70
  23 -19  13  173.68    6.30
 -23  19  13  189.58    6.10
 -19  13  23  193.38    6.90
  19 -13  23  180.58    5.90
  19 -23  15    6.20    2.80
 -15  19  23    6.70    2.60
 -19  23  15    6.80    2.20
  23 -15  19    7.00    2.00
 -23  15  19    7.20    2.50
  15 -19  23    4.70    2.10
  19 -15  23    7.50    2.30
 -19  15  23    5.40    2.80
 -23  19  15    6.10    2.00
  23 -19  15    8.20    2.50
 -15  23  19    7.40    2.60
  15 -23  19    6.30    2.70
 -19  23  17   16.00    2.50
  23 -17  19   12.30    2.60
  19 -23  17   14.10    3.10
 -23  17  19   15.00    2.80
 -17  19  23   14.60    3.10
  17 -19  23   12.30    2.60
 -19  17  23   13.40    2.90
  23 -19  17   11.50    2.50
 -17  23  19   13.50    2.70
  17 -23  19   13.70    3.10
  19 -17  23   14.90    2.70
 -23  19  17   13.30    2.60
  19 -23  19  128.69    5.90
 -23  19  19  131.79    5.60
  23 -19  19  130.79    5.10
  19 -19  23  122.09    5.40
 -19  19  23  129.69    5.80
 -19  23  19  125.69    5.40
 -21  23   1 1161.38   21.60
 -23   1  21 1195.88   22.30
  21   1  23 1201.48   22.20
  21  23  -1 1198.18   20.60
 -21  -1  23 1215.68   22.20
 -23  21  -1 1169.88   22.00
  23  21   1 1225.58   21.40
  23   1  21 1214.68   22.20
 -23  -1  21 1207.08   22.00
 -23  21   1 1182.78   22.00
  23  21  -1 1208.18   20.60
  21  23   1 1192.68   21.30
 -21  23  -1 1200.38   22.10
  21   3  23  780.22   15.40
 -23  21  -3  778.92   15.40
  23  21   3  768.12   15.20
 -21  23   3  796.62   15.10
 -21   3  23  768.52   15.70
  21  -3  23  803.02   15.50
 -21  23  -3  768.22   15.40
  23   3  21  786.92   15.60
 -23  -3  21  798.42   14.70
 -23  21  -5  111.39    4.50
 -23   5  21  122.19    5.20
  23  -5  21  118.29    4.50
  23  21   5  120.89    4.50
  21   5  23  112.69    4.50
 -21  -5  23  116.29    4.10
 -21  23   5  106.89    4.40
 -21   5  23  112.49    5.20
  21  -5  23  114.39    4.60
 -21  23  -5  115.99    4.50
  23   5  21  115.09    4.70
 -23  21   5  112.09    4.20
 -21  -7  23   20.30    1.60
 -21  23   7   24.40    2.60
 -23  21  -7   21.00    2.50
   7 -21  23   24.00    3.10
   7 -23  21   27.90    3.40
  21  -7  23   21.70    2.50
 -21  23  -7   24.70    2.70
 -23  21   7   19.40    2.40
  23   7  21   21.10    2.50
  23 -21   7   25.30    3.20
 -21   7  23   18.60    2.80
 -21  23   9  547.85   11.70
  23  -9  21  539.65   11.30
 -23   9  21  539.65   12.10
 -23  21   9  527.85   11.50
  23   9  21  552.54   11.80
 -21  23  -9  546.05   11.40
  23 -21   9  518.95   12.00
   9 -23  21  543.55   12.50
  21  -9  23  532.55   11.20
 -21   9  23  537.55   12.30
  21 -23  11 1437.66   26.60
 -23  11  21 1471.15   26.50
  23 -11  21 1413.06   25.80
 -21  11  23 1439.36   26.60
  23 -21  11 1398.76   26.50
  21 -23  13  776.92   16.20
 -21  23  13  779.92   15.20
  23 -13  21  776.12   15.50
  21 -13  23  784.02   15.50
  13 -23  21  784.92   16.20
 -13  23  21  780.32   16.10
  23 -21  13  794.82   16.30
 -21  13  23  773.32   16.20
 -23  21  13  764.52   15.60
 -23  15  21   94.79    5.10
 -21  23  15   86.09    4.50
 -15  21  23   88.69    4.90
  15 -21  23   90.09    5.10
  21 -23  15   87.69    5.10
  23 -15  21   88.59    4.40
 -21  15  23   91.39    5.00
 -15  23  21   89.69    5.00
 -23  21  15   88.29    4.20
  15 -23  21   93.79    5.20
  21 -15  23   86.29    4.50
  23 -17  21   53.89    4.00
  17 -21  23   61.89    4.70
  21 -23  17   59.69    4.90
 -23  17  21   52.59    4.30
 -21  23  17   58.39    4.20
 -17  21  23   57.49    4.70
 -23  21  17   57.29    4.00
 -17  23  21   55.99    4.60
  17 -23  21   61.09    5.00
  21 -17  23   56.89    3.80
  23 -21  17   59.29    4.70
 -23  -1  23 1191.38   21.90
 -23   1  23 1158.88   21.80
 -23  23  -1 1196.68   21.80
  23  23  -1 1190.08   19.90
  23  23   1 1150.28   21.00
 -23  23  -3  532.55   11.40
 -23  23   3  529.95   11.00
  23  -3  23  533.15   11.40
  23   3  23  532.25   11.60
 -23   5  23   30.30    3.50
 -23  23  -5   28.70    2.90
 -23  23   5   27.20    2.50
  23  -5  23   24.80    2.70
  23   5  23   23.80    2.70
  23  23   5   27.70    2.90
 -23   7  23    3.00    2.50
 -23  23  -7    3.10    2.00
 -23  23   7    2.20    1.80
   7 -23  23   -0.10    2.60
  23  -7  23    1.90    1.60
  23   7  23    2.70    1.90
 -23   9  23  414.76   10.20
 -23  23   9  412.06    9.60
  23  -9  23  416.76    9.20
  23   9  23  428.76    9.90
 -23  11  23 1148.19   21.80
 -23  23  11 1165.48   21.50
  23 -23  11 1140.29   22.00
 -23  13  23  452.95   10.50
 -13  23  23  453.65   10.90
  23 -13  23  452.55   10.30
 -23  23  15   67.99    4.20
 -15  23  23   73.29    4.80
  15 -23  23   81.19    5.20
  23 -23  15   79.89    5.20
  23 -15  23   71.29    4.30
  24   0  -2 1531.95   27.00
  24   2   0 1444.06   26.50
   0  24  -2 1457.15   26.50
  24  -2   0 1521.05   26.80
  -2  24  -2 1207.88   22.00
   2  24   2 1213.28   22.70
  24  -2   2 1215.58   22.50
  24   2  -2 1233.28   22.40
 -24   0   4   18.20    2.10
  24   0   4   15.00    2.10
   4  24   0   17.00    2.30
 -24   4   0   13.80    1.90
   0  24  -4   12.20    1.90
   0  24   4   20.00    2.40
  24  -4   0   20.30    2.50
  24   4   0   15.10    1.90
  24   0  -4   12.80    2.10
  -4  24   0   19.00    2.20
  24  -2   4    6.90    1.70
  24   2  -4    6.80    1.90
  -2  24  -4    3.20    1.50
  -4  24   2    6.00    1.70
   4  24  -2    8.10    1.70
  24   4   2    5.20    1.60
 -24   2   4    6.00    1.60
  24  -4  -2    8.90    2.10
  -2  24   4    5.80    1.90
   2  24  -4    6.30    1.70
   4  24   2    5.60    1.80
  -4  24  -2    5.20    1.70
  24   4  -2    4.20    1.60
  24   2   4    6.20    1.70
  24  -4   2    7.50    1.80
 -24   4   2    8.90    1.80
  24  -2  -4    3.60    1.90
  -4  24  -4  639.94   13.30
  24   4  -4  675.93   13.60
  24  -4   4  676.03   13.60
   0  24  -6   21.70    2.00
  -6  24   0   25.70    2.40
 -24   6   0   28.60    2.50
  24  -6   0   26.80    2.80
   6  24   0   24.80    2.50
  24   0   6   29.00    2.60
  24   6   0   27.90    2.30
  -6  24   2   34.40    2.90
  24  -2   6   34.40    2.80
 -24   6  -2   34.10    2.70
  24  -6  -2   30.60    3.00
  24   6   2   28.50    2.40
 -24   2   6   31.80    2.60
  -2  24  -6   28.70    2.40
 -24   6   2   37.00    2.70
   2  24  -6   33.80    2.40
  -2  24   6   38.60    3.20
  24   2   6   33.40    2.60
   6  24  -4  738.53   14.00
 -24   4   6  735.53   14.60
  -6  24   4  748.63   15.00
  -4  24  -6  714.73   14.20
  -6  24  -4  754.72   14.80
  24  -6   4  750.42   15.00
 -24   6   4  758.92   14.80
  24  -6   6  558.64   11.60
  -6  24  -6  550.14   11.30
 -24   6   6  546.15   11.60
  24   8   0  541.15   11.00
   0  24  -8  506.25   10.90
  -8  24   0  530.65   11.20
  24  -8   0  529.55   11.90
  -8  24   2  242.78    6.60
 -24   2   8  234.28    6.30
  24  -2   8  240.08    6.50
   8  24  -2  245.38    6.20
  24   8   2  237.08    6.30
 -24  -2   8  231.48    6.00
  24   2   8  240.28    6.30
   2  24  -8  237.38    6.10
  24   8  -2  235.38    6.10
  24  -8   2  246.58    7.00
   4  -8  24  292.87    7.20
 -24   8  -4  300.97    7.50
  24  -4   8  290.97    7.50
 -24   8   4  297.27    7.40
  24   8  -4  300.97    7.30
  -4  24   8  299.87    8.00
   4  24  -8  292.07    6.80
  24  -8   4  283.67    7.40
 -24   6   8  326.07    8.00
  24  -6   8  350.46    8.40
  -8  24   6  351.06    8.70
   6  -8  24  332.27    8.20
 -24   8   6  347.07    8.30
   8  -6  24  344.17    8.30
  24  -8   6  345.97    8.50
  -8  24  -6  353.96    8.10
  -8  24   8   -0.30    1.80
 -24   8   8    1.50    1.40
  24   8   8    2.50    1.70
   8  -8  24    1.70    1.60
  -8  24  -8    1.10    1.60
   8  24  -8    0.90    1.10
  24  -8   8    0.70    1.50
  10  24   0  933.61   17.50
  24  10   0  913.51   17.10
  24 -10   0  914.71   18.20
 -10  24   2  723.73   14.10
  24  10   2  695.13   13.60
  10  24  -2  707.73   13.80
 -24  10   2  713.33   14.30
  24 -10   2  722.03   15.00
  -2 -10  24  728.23   14.00
  24  10  -2  722.13   13.70
  24   2  10  699.53   14.30
   2  24 -10  695.43   13.70
  -4  24 -10    0.80    1.50
 -24   4  10    0.90    1.40
 -24  10  -4    1.00    1.30
  10  24  -4    0.20    1.10
  24  10   4   -0.40    1.50
 -10  24   4   -0.20    1.50
  24  -4  10   -0.60    1.60
   4 -10  24    1.10    1.50
  24  10  -4    0.50    1.50
  -4 -10  24    0.90    1.30
 -10  24  -4    1.30    1.30
   4  24 -10    0.10    1.20
  24 -10   4   -0.70    1.70
  24   4  10    0.40    1.60
 -24  10   4    0.80    1.50
 -24   6  10    6.30    1.60
  -6  24 -10    3.80    1.70
  24  -6  10    7.00    1.80
  24  10   6    2.70    1.70
   6 -10  24    4.40    1.60
 -10  24   6    6.40    1.80
  10  24  -6    4.90    1.00
  -6 -10  24    4.90    1.40
  10  -6  24    4.60    1.70
  24 -10   6    5.00    1.80
  -6  24  10    4.90    2.00
  24   6  10    3.50    1.80
 -10  24  -6    6.30    1.80
 -24   8  10  333.37    7.90
  -8  24 -10  325.97    8.20
 -10  24   8  336.67    8.50
 -10  24  -8  332.67    8.20
  -8  24  10  337.47    8.70
  24 -10   8  340.27    8.50
 -24  10   8  345.87    7.90
 -24  10  10 1496.15   27.30
 -10 -10  24 1541.35   26.10
  24 -10  10 1461.85   27.10
 -10  24 -10 1554.04   27.50
 -10  24  10 1535.95   27.90
 -24  12   0  954.30   17.80
 -24   0  12  910.41   17.40
  24   0  12  920.31   17.70
  24  -2  12  580.54   12.00
 -12  24   2  584.94   12.50
 -24  12  -2  604.24   12.50
  12  24  -2  604.64   11.90
  24 -12   2  589.84   13.00
 -24  12   2  606.54   12.50
 -12  24  -2  584.74   12.30
  -2 -12  24  602.84   12.10
  24   2  12  596.74   12.50
  24  12   4    1.70    1.60
  24  -4  12    1.80    1.60
 -12  24   4    1.10    1.50
 -24  12  -4    1.30    1.50
  12  24  -4    1.40    1.20
 -24   4  12    0.70    1.50
   4 -12  24    1.30    1.60
  -4  24 -12    0.50    1.50
 -24  12   4    1.80    1.60
  12  -4  24    2.30    1.50
 -24  -4  12    1.60    1.30
  24 -12   4    1.70    1.80
  24   4  12    1.20    1.70
  -4 -12  24    0.20    1.40
 -12  24  -4    1.50    1.40
  24  12  -4    1.60    1.40
 -24  12  -6   50.39    3.20
 -12  24   6   51.89    3.30
  12  24  -6   53.09    1.80
   6 -12  24   47.30    3.30
  24  12   6   46.50    3.30
  24  -6  12   53.59    3.30
  -6  24 -12   52.19    3.20
 -24   6  12   52.09    3.30
  24 -12   6   49.50    3.50
 -12  24  -6   53.09    3.30
  -6 -12  24   50.99    2.90
  12  -6  24   51.09    3.30
 -24  12   6   49.70    3.00
  24   6  12   57.49    3.40
  24  -8  12  406.16    9.40
 -12  24   8  399.76    9.30
   8 -12  24  380.46    9.30
  -8  24 -12  400.06    9.10
 -24   8  12  391.66    9.30
  -8  24  12  397.96    9.70
 -12  24  -8  397.66    9.30
  -8 -12  24  401.26    8.40
 -24  12   8  410.06    9.00
  12  -8  24  385.16    9.20
 -12 -10  24 1100.59   19.30
 -12  24  10 1125.69   21.10
  10 -12  24 1099.59   20.80
 -12  24 -10 1134.29   20.90
  24 -12  10 1110.69   20.90
 -10 -12  24 1094.49   19.30
  12 -10  24 1092.19   20.80
 -12 -12  24 1113.59   18.80
 -12  24  12 1106.99   21.40
  24 -12  12 1134.59   21.00
  24  12  12 1135.59   20.90
 -14  24   0  388.86    9.10
  24  14   0  383.96    8.40
  24   0  14  394.86    9.10
 -24  14   0  377.26    8.90
 -14  24   2   94.19    4.10
 -24  14  -2   92.59    4.00
   2 -14  24  100.29    3.90
  14  24  -2   96.39    3.80
 -24   2  14   88.79    3.70
  24  14  -2   89.69    3.50
 -24  14   2   92.99    4.00
  24   2  14   92.49    4.20
 -14  24  -2   94.29    3.70
 -24  -2  14   89.89    3.70
  14  -2  24  101.79    4.10
  24 -14   2   94.39    4.60
  -2 -14  24   92.19    3.60
 -24  14  -4  284.97    7.30
 -24   4  14  290.57    7.30
  24  14   4  275.67    7.20
 -14  24   4  276.77    7.20
 -24  -4  14  274.87    6.40
  24 -14   4  284.07    7.90
  -4 -14  24  278.17    6.50
  24   4  14  281.27    7.40
  14  -4  24  271.87    7.20
 -14  24  -4  287.57    7.20
  24  14   6  218.68    6.40
 -24  14  -6  234.98    6.20
 -24   6  14  233.18    6.60
  24  -6  14  213.08    6.20
 -14  24   6  218.08    6.40
  -6 -14  24  223.18    5.50
  24   6  14  229.78    6.60
 -24  14   6  226.78    6.00
  24 -14   6  220.28    6.90
  14  -6  24  236.18    6.50
   8 -14  24   -1.60    1.40
  24  14   8    0.10    1.70
 -24   8  14    0.90    1.80
 -14  24   8    0.20    1.60
  24  -8  14    1.00    1.60
  24 -14   8   -0.30    1.80
 -14  24  -8    1.10    1.70
  14  -8  24   -0.10    1.60
  -8 -14  24    0.10    1.20
   8 -24  14    0.50    2.10
  24   8  14    0.90    1.80
  -8  24  14    0.10    1.90
 -24  14   8   -0.50    1.50
  24  14  10  252.57    6.90
 -24  10  14  252.57    7.20
  10 -14  24  262.17    6.70
 -14 -10  24  257.47    5.20
 -14 -10  24  254.27    5.50
 -14  24  10  254.07    6.80
  24 -10  14  240.68    6.90
 -10  24  14  264.77    7.50
 -24  14  10  262.27    7.10
 -14  24 -10  261.17    7.10
 -10 -14  24  250.37    5.20
  24 -14  10  245.78    6.80
  12 -14  24  343.37    8.20
 -14  24  12  330.47    8.60
  14 -24  12  347.17    9.20
  24  14  12  331.27    8.50
 -24  12  14  343.87    8.80
  12 -24  14  353.76    9.30
 -12  24  14  349.47    9.00
 -24  14  12  347.07    8.60
 -14  24 -12  339.87    8.50
  24  12  14  357.06    8.50
  24  14  14    7.40    2.20
  14 -24  14    5.60    2.50
  14 -14  24    7.10    2.00
 -14  24  14   10.50    2.40
 -24  14  14   10.00    2.40
  24 -14  14    5.90    2.20
  24  16   0   69.49    3.30
 -16  24   0   75.19    3.50
 -24  16   0   70.59    3.70
  16   0  24   69.49    3.70
  24   0  16   73.29    3.90
   0 -16  24   70.69    3.70
 -24   0  16   68.29    3.30
  16  24  -2    0.20    1.50
 -24  16  -2   -0.20    1.50
  24  -2  16    0.70    1.60
 -16  24   2    0.20    1.60
 -24   2  16   -1.30    1.50
  24  16   2    0.00    1.60
   2 -16  24    1.40    1.70
  24  16  -2    1.50    1.40
  16  -2  24   -0.80    1.50
  -2 -16  24   -0.90    1.50
  24   2  16   -0.10    1.70
 -16  24  -2    1.20    1.50
 -24  -2  16    1.00    1.50
 -24  16   2    0.50    1.50
 -24  16  -4  838.62   16.40
 -24   4  16  833.12   16.50
   4 -16  24  836.62   16.50
 -16  -4  24  846.62   16.50
  24  -4  16  834.42   16.10
 -16  24   4  849.81   16.50
 -24  -4  16  821.82   15.60
  24   4  16  879.11   16.70
  16  -4  24  860.31   16.60
  24 -16   4  835.22   17.00
  24  -6  16  815.62   15.40
 -16  -6  24  771.92   15.30
 -24   6  16  789.82   15.90
   6 -16  24  779.92   15.80
 -16  24   6  781.42   15.50
   6 -24  16  810.22   16.50
  24   6  16  801.12   15.90
  24 -16   6  786.82   16.30
 -24  16   6  811.72   15.30
 -16  -8  24  121.69    3.60
 -16  24   8  123.09    4.70
   8 -16  24  116.89    4.90
 -24   8  16  110.99    4.80
 -24  16  -8  121.89    4.60
  24  -8  16  114.79    4.60
  24  16   8  112.69    4.70
   8 -24  16  117.89    5.20
 -16  24  -8  115.39    4.60
  -8 -16  24  113.19    3.50
  24 -16   8  110.59    5.00
  16  -8  24  119.89    4.60
  24   8  16  114.39    4.80
  24  16  10   47.40    3.50
 -24  10  16   50.59    3.80
  10 -16  24   50.79    3.70
 -16  24  10   50.79    3.60
  24  10  16   49.30    3.40
 -24  16  10   49.40    3.50
  16 -10  24   50.99    3.60
  24 -16  10   45.50    3.70
  10 -24  16   55.49    4.40
 -16  24 -10   52.69    3.60
 -16  24  12    5.40    1.80
  12 -16  24    4.60    2.10
  24 -12  16    2.70    1.80
  16 -24  12    4.30    2.40
  24  16  12    8.80    2.50
 -24  12  16    6.10    2.10
 -16  24 -12    4.40    2.00
  24  12  16    4.80    2.10
  24 -16  12    3.10    2.00
  12 -24  16    4.80    2.40
 -12  24  16    3.30    2.20
 -24  16  12    2.10    2.00
  16 -12  24    3.90    1.80
  24 -14  16   62.49    3.80
 -16  24  14   69.49    4.00
  14 -16  24   70.39    4.20
  16 -24  14   74.79    4.80
 -24  14  16   62.29    4.10
 -24  16  14   61.79    4.00
 -14  24  16   77.79    4.50
  14 -24  16   67.89    4.60
 -16  14  24   70.09    4.60
  16 -14  24   67.79    4.00
  24 -16  14   70.59    3.80
 -16  16  24  247.18    7.60
  16 -24  16  247.08    7.80
  16 -16  24  246.78    7.20
  24 -16  16  249.78    7.20
 -16  24  16  244.58    7.20
 -18   0  24  120.59    5.40
  24   0  18  121.79    4.70
 -24   0  18  119.49    4.30
 -24  18   0  126.79    4.70
 -18  24   0  121.49    4.20
  18   0  24  122.09    4.50
  24  18   0  114.09    4.00
  18  24  -2    0.20    1.30
 -18  -2  24    1.10    2.10
 -24  18  -2    0.20    1.60
  18   2  24    1.70    1.60
  24  -2  18    0.10    1.60
 -24   2  18   -0.50    1.80
 -18  24   2   -1.20    1.50
   2 -18  24    1.80    2.00
  18  24  -2    1.70    1.20
  24  18   2    0.20    1.70
 -24  -2  18    0.70    1.70
 -18   2  24    0.00    2.10
 -18  24  -2   -0.20    1.60
  24   2  18    1.20    1.70
  -2 -18  24   -0.50    1.60
  18  -2  24    0.50    1.60
 -24  18   2    0.70    1.60
  24  18  -2    0.90    1.30
 -24   4  18  341.57    8.50
 -24  18  -4  345.37    8.30
 -18  24   4  331.27    8.20
 -18  -4  24  350.06    8.30
  24  18   4  325.77    8.20
   4 -18  24  328.37    8.50
 -24  -4  18  337.17    7.50
 -18  24  -4  347.87    8.40
   4 -24  18  335.87    8.90
 -24  18   4  326.67    7.90
  24   4  18  344.57    8.40
 -18   4  24  346.07    9.10
   6 -18  24  382.16    9.30
 -18  24   6  371.26    8.90
 -18  -6  24  372.36    8.30
  24  18   6  382.96    9.10
 -24  18  -6  382.26    8.90
  24  -6  18  378.06    8.60
  24   6  18  391.26    9.20
 -18   6  24  370.16    9.60
 -24  18   6  373.86    8.60
  24 -18   6  386.06    9.60
 -18  24  -6  376.66    8.90
  18  -6  24  377.86    9.00
 -18  -8  24   23.00    1.80
 -24   8  18   23.30    2.70
  24  -8  18   24.50    2.60
 -24  18  -8   23.50    2.50
  24  18   8   23.20    2.50
   8 -18  24   22.60    2.80
 -18  24   8   28.30    2.60
  24   8  18   28.00    2.80
  24 -18   8   22.20    3.00
   8 -24  18   25.20    3.20
 -18  24  -8   26.10    2.70
  18  -8  24   23.70    2.60
 -18   8  24   25.60    3.10
 -24  18   8   29.70    2.80
  24  18  10  102.79    4.70
  24 -10  18   98.89    4.40
 -18  24  10   95.09    4.20
  10 -18  24  100.49    4.90
  24  10  18   95.59    4.40
 -10  24  18  104.49    4.90
 -24  18  10  101.29    4.40
  10 -24  18  110.49    5.60
  18 -10  24  108.49    4.10
  24 -18  10   91.49    4.80
 -18  10  24   98.09    5.20
 -18  24  12   43.60    3.50
  18 -24  12   43.70    3.80
  24 -12  18   41.70    3.60
  12 -18  24   50.49    3.80
 -24  12  18   42.60    3.60
  24 -18  12   44.40    3.60
 -18  12  24   46.70    4.00
 -18  24 -12   46.30    3.50
  12 -24  18   49.50    4.10
  18 -12  24   39.40    3.00
  24  12  18   41.80    3.60
 -24  18  12   47.30    3.60
 -12  24  18   39.70    3.50
 -24  14  18   87.79    4.30
  18 -24  14   91.49    5.10
 -18  24  14   78.39    4.20
  14 -18  24   82.29    4.60
  24 -14  18   87.99    4.00
 -24  18  14   78.39    4.40
 -14  24  18   85.89    4.90
  24 -18  14   86.49    4.50
 -18  14  24   88.19    5.20
  18 -14  24   93.39    4.40
  14 -24  18   88.29    5.40
  16 -18  24  277.57    7.90
 -16  18  24  288.27    8.40
  18 -24  16  281.07    8.50
 -18  24  16  300.87    7.60
  24 -16  18  299.37    8.00
 -18  16  24  284.87    8.50
 -16  24  18  290.77    8.10
  16 -24  18  301.17    8.80
  18 -16  24  291.67    7.90
 -24  18  16  297.47    7.80
 -18  18  24   96.79    5.40
  24 -18  18  113.19    4.80
 -18  24  18  108.29    4.90
  18 -24  18  108.79    5.70
 -24  20   0  397.36    9.10
  20  24   0  403.86    8.30
  24   0  20  388.86    9.20
 -24   0  20  374.06    9.10
  20   0  24  397.76    9.20
 -20   0  24  379.26    9.40
  24  -2  20  316.27    8.00
  20   2  24  316.77    7.80
 -24   2  20  321.97    8.20
 -24  20  -2  309.47    7.90
  20  24  -2  318.77    5.70
 -20  24  -2  323.97    7.90
  24  20  -2  312.97    6.10
  20  -2  24  313.17    7.90
 -24  20   2  308.77    7.90
 -20   2  24  322.57    8.70
  24   2  20  326.37    8.00
 -24   4  20    7.10    2.40
 -20  24   4    8.00    2.00
  20   4  24    6.00    2.00
 -24  20  -4   11.00    2.10
  24  20   4    6.50    2.20
 -20  -4  24    9.40    2.00
  24  -4  20   10.50    2.10
 -20   4  24    7.50    2.50
 -20  24  -4    7.60    2.10
 -24  -4  20    5.00    1.80
  24   4  20   10.20    2.20
  20  -4  24    7.70    2.10
 -24  20   4    8.40    1.90
 -20  -6  24    2.80    1.60
  24  -6  20    3.50    1.70
 -24   6  20   -1.10    1.90
 -20  24   6    2.50    1.90
  24  20   6    2.10    2.00
   6 -20  24    2.20    2.20
 -24  20  -6    2.90    1.90
   6 -24  20   -0.40    2.30
 -20   6  24    3.40    2.60
  24   6  20    2.20    2.00
 -24  20   6    3.90    1.70
 -20  24  -6   -0.40    1.80
  20  -6  24    1.90    1.80
   8 -20  24   32.50    3.30
 -24   8  20   33.70    3.10
  24  -8  20   38.30    2.90
 -20  24   8   38.80    3.10
  24  20   8   38.00    3.30
  24 -20   8   37.80    3.50
  24   8  20   39.50    3.20
  20  -8  24   35.20    3.00
   8 -24  20   31.30    3.50
 -24  20   8   38.60    3.10
 -20   8  24   31.80    3.70
 -20  24  -8   36.50    3.10
  24 -10  20  534.75   11.40
 -24  10  20  507.05   11.70
  10 -20  24  537.85   11.80
  24  10  20  516.75   11.40
  24 -20  10  517.65   12.00
 -24  20  10  532.35   11.50
  20 -10  24  522.85   11.00
 -20  10  24  530.85   12.40
  10 -24  20  536.45   12.50
  12 -20  24  579.04   12.50
 -24  12  20  580.24   12.50
  20 -24  12  563.84   12.70
  24 -12  20  545.45   12.00
 -20  24  12  555.74   11.70
 -20  12  24  575.94   13.10
  12 -24  20  558.74   12.90
  20 -12  24  540.05   11.90
 -12  24  20  577.44   12.70
  24 -14  20   36.50    3.20
 -24  14  20   26.50    3.10
  20 -24  14   31.80    3.60
 -20  24  14   32.90    3.10
 -14  20  24   26.40    3.30
 -20  14  24   27.30    3.50
 -14  24  20   25.40    3.10
  24 -20  14   30.40    3.40
  20 -14  24   31.30    3.00
 -20  24  16   23.10    2.90
  20 -24  16   20.70    3.40
  16 -20  24   25.10    3.20
 -24  16  20   16.60    2.80
  24 -20  16   19.40    3.10
  16 -24  20   26.00    3.70
 -20  16  24   25.20    3.50
 -16  24  20   25.00    3.30
  20 -16  24   20.20    2.90
  20 -24  18   15.70    3.40
  18 -20  24   16.60    3.10
 -20  24  18   16.60    2.80
  24 -18  20   19.60    3.00
 -24  18  20   15.30    2.90
 -18  20  24   15.30    3.30
 -18  24  20   14.30    2.90
  20 -18  24   15.00    2.60
 -20  18  24   16.30    3.20
  18 -24  20   14.30    3.30
  22  24   0  965.90   17.30
 -24   0  22  964.90   18.60
 -22  24   0  944.31   18.30
  24   0  22  996.70   18.60
 -22   0  24  966.60   18.60
  22   0  24  956.20   18.40
  24  22   0  973.30   17.30
 -24  22   0 1000.20   18.50
  24  22   2  666.23   13.20
  24  -2  22  641.64   13.40
 -24  22  -2  646.54   13.40
  22   2  24  652.53   13.50
 -24   2  22  688.73   14.00
  24   2  22  665.93   13.60
 -22  24  -2  674.33   13.50
  24  -4  22  115.19    4.60
 -24  22  -4  116.99    4.70
 -24   4  22  107.19    5.00
  22   4  24  118.99    4.60
 -22  24   4  108.39    4.10
 -22  -4  24  117.89    4.60
  24  22   4  109.19    4.90
 -24  -4  22  107.19    4.40
 -22   4  24  110.89    5.00
 -24  22   4  109.29    4.20
 -22  24  -4  109.99    4.50
  24   4  22  116.09    4.80
  22  -4  24  118.79    4.70
  24  22   6    0.10    2.00
 -24   6  22   -1.70    2.00
  22   6  24   -1.10    1.70
 -22  24   6   -0.10    1.70
 -22  -6  24    0.50    1.60
  24  -6  22   -0.40    1.60
 -24  22  -6    1.40    1.90
   6 -22  24    0.50    2.10
 -22   6  24   -0.10    2.20
  24   6  22   -0.30    1.90
   6 -24  22    0.90    2.70
 -24  22   6    0.70    1.70
  22  -6  24    0.90    1.70
 -22  24  -6    1.10    1.90
  22   8  24   71.29    4.10
 -24  22  -8   82.49    3.80
 -22  24   8   76.99    4.00
  24  -8  22   83.99    3.80
  24  22   8   79.09    4.60
  22  -8  24   74.19    3.60
 -22  24  -8   77.09    4.00
 -22   8  24   74.49    4.80
  24   8  22   75.09    3.90
 -24  22   8   72.19    3.90
 -24  10  22  743.93   15.30
 -22  24  10  709.43   14.60
  10 -24  22  737.93   15.80
 -24  22  10  736.23   14.70
  24 -22  10  733.83   15.30
  22 -10  24  737.13   14.30
 -22  10  24  732.73   15.30
  22 -24  12  703.53   15.00
  22 -12  24  699.53   14.30
 -12  24  22  710.63   15.00
 -22  12  24  717.63   15.00
 -24  14  22  123.09    5.80
  24 -14  22  120.59    5.20
 -14  22  24  106.99    5.40
 -22  24  14  108.49    4.70
  14 -24  22  120.29    5.90
 -24  22  14  123.69    5.20
 -22  14  24  120.39    5.40
 -14  24  22  116.59    5.50
  22 -14  24  123.79    5.10
  24 -22  14  123.39    5.60
 -16  22  24   -0.50    2.60
  16 -22  24   -3.10    2.30
  22 -24  16    0.00    2.80
  24 -16  22   -1.20    2.10
 -24  16  22    1.70    2.60
 -22  24  16    0.00    2.10
 -24  22  16    1.20    2.40
 -22  16  24    0.30    2.50
 -16  24  22   -1.50    2.50
  16 -24  22   -0.70    2.90
  22 -16  24    0.00    2.30
  24 -22  16   -0.60    2.80
 -24   0  24  490.75   11.20
 -24  24   0  484.55   10.60
  24  24   0  489.05    9.60
 -24  -2  24  193.58    6.30
 -24   2  24  208.28    6.90
 -24  24  -2  216.48    6.20
 -24  24   2  200.78    6.10
  24  -2  24  199.78    6.10
  24   2  24  209.38    6.20
  24  24   2  209.38    6.30
 -24  -4  24   15.70    2.60
 -24   4  24   17.90    2.80
 -24  24  -4   12.70    2.30
 -24  24   4   16.60    2.30
  24  -4  24   14.40    2.40
  24   4  24   15.80    2.50
  24  24   4   12.80    2.80
 -24   6  24   65.79    4.70
 -24  24  -6   63.19    3.90
 -24  24   6   60.59    3.40
  24  -6  24   66.89    3.50
  24   6  24   62.39    3.90
 -24   8  24   10.30    2.80
 -24  24  -8    9.00    2.10
 -24  24   8   10.60    2.20
  24  -8  24    5.50    1.90
  24   8  24    7.60    2.10
 -24  10  24  281.27    8.40
 -24  24  10  279.17    7.40
  24 -10  24  284.07    7.40
  24  10  24  287.17    7.60
 -24  24  12  180.28    5.80
  24 -24  12  162.98    6.40
  24 -12  24  180.38    5.90
  24  12  24  169.78    5.90
  25  -1  -1 1389.26   25.90
  25  -1   1 1452.65   25.60
  25   3   1    0.30    1.40
  -3  25   1    0.60    1.40
   3  25  -1    1.60    1.50
  25  -3  -1   -0.60    1.70
   1  25   3    1.20    1.70
  25  -1   3    1.40    1.50
  25   1  -3    0.00    1.80
  -1  25  -3    0.00    1.40
  -3  25  -1    0.50    1.50
   3  25   1    0.00    1.70
  25   1   3    0.50    1.50
  25   3  -1    0.00    1.40
   1  25  -3    0.30    1.30
  25  -1  -3   -0.40    1.90
  -1  25   3   -0.60    1.60
 -25   3   1    0.40    1.40
  25  -3   1    0.50    1.60
  -3  25  -3  474.35   10.40
   3  25   3  478.55   10.80
   3  25  -3  468.05    9.90
  25  -3   3  486.35   10.70
  25  -3  -3  462.85   10.80
  25  -5  -1   97.19    4.50
   5  25  -1   86.69    3.90
  -1  25  -5   86.39    3.90
  25   5   1   88.09    3.70
  -5  25   1   96.79    4.10
  25  -1   5   86.89    4.10
   1  25  -5   94.69    3.80
   5  25   1   82.59    4.10
  25   5  -1   91.89    3.90
 -25   5   1   98.79    3.90
  25  -5   1   92.29    4.40
  -5  25   3  812.32   16.20
 -25   3   5  820.42   16.10
   5  25  -3  843.22   15.80
  25   5  -3  850.61   16.30
  -5  25  -3  854.31   16.20
 -25   5   3  821.72   16.20
   3  25  -5  810.72   15.70
   5  25  -5 1348.67   23.70
  -5  25  -5 1321.07   23.90
  -7  25   1  166.18    5.30
  25  -1   7  157.08    5.20
   7  25  -1  164.88    5.30
  25  -7  -1  165.68    5.90
  -1  25  -7  170.58    4.90
  25   7   1  157.48    5.10
 -25  -1   7  162.58    5.00
   1  25  -7  167.88    4.80
  -7  25  -1  171.78    5.40
  25   7  -1  156.58    5.10
  25  -7   1  170.08    5.90
  25   1   7  164.88    5.40
   7  25  -3  288.57    6.90
  -7  25   3  269.67    7.20
  25  -7   3  281.47    7.50
  -3  25   7  286.27    7.70
  -7  25  -3  280.87    7.20
  25   7  -3  282.27    7.10
  25   3   7  270.97    6.90
  25  -5   7  854.91   16.40
   5  -7  25  835.52   16.40
  -7  25   5  858.21   16.70
  -5  25  -7  809.62   16.20
 -25   5   7  829.32   16.30
  25  -7   5  844.42   16.50
  -5  25   7  847.32   17.00
  -7  25  -7  246.88    6.90
  -7  25   7  253.87    7.30
 -25   7   7  243.58    6.70
   7  25  -7  257.77    6.00
   7  -7  25  257.67    6.70
   9  25  -1  337.47    8.30
   1  -9  25  352.96    8.10
  25   9   1  346.07    8.10
  -1  25  -9  346.97    8.20
 -25   9  -1  360.26    8.40
  25  -9  -1  341.57    8.90
   9  25   1  339.87    8.50
   1  25  -9  347.97    8.00
  25   9  -1  344.57    8.00
  25   1   9  361.36    8.10
  -9  25   3   78.59    3.90
   3  -9  25   80.49    3.90
   9  25  -3   84.59    3.50
 -25   9  -3   77.79    3.60
  25   9   3   82.49    3.60
  -3  25  -9   84.69    3.80
 -25   9   3   89.09    3.90
  25   9  -3   85.29    3.80
   3  25  -9   85.19    3.60
  25  -9   3   85.19    4.30
  -9  25  -3   82.99    3.80
  -3  -9  25   89.19    3.80
 -25   5   9  404.16    9.40
   5  -9  25  399.46    9.50
  25  -5   9  415.96    9.60
   9  25  -5  424.86    8.60
  -5  25  -9  418.06    9.50
 -25   9   5  411.96    9.50
  -9  25  -5  418.06    9.20
   5  25  -9  415.16    8.70
   9  -5  25  421.56    9.60
   7  -9  25   45.30    3.20
   9  25  -7   44.60    2.40
  25   9   7   35.10    2.90
  -7  25  -9   40.10    3.20
 -25   7   9   44.80    3.00
  -9  25   7   39.50    3.20
  25  -7   9   42.00    3.20
  -7  25   9   40.10    3.40
  25   7   9   39.40    3.20
   9  -7  25   43.40    3.20
  25  -9   7   39.90    3.20
 -25   9   7   38.40    3.10
   7  25  -9   40.00    2.30
  -9  25  -7   42.50    3.10
   9  -9  25  227.18    6.40
  25  -9   9  218.28    6.50
  25   9   9  215.18    6.40
  -9  25   9  223.38    6.80
  -9  25  -9  223.98    6.50
  25  11   1  553.54   11.40
  11  25  -1  544.75   11.60
  -1  25 -11  537.85   11.40
 -11  25   1  563.44   11.90
  25  -1  11  574.54   11.50
   1 -11  25  538.05   11.60
 -11  25  -1  535.35   11.70
 -25  11   1  571.74   11.80
  25 -11   1  576.24   12.40
   1  25 -11  549.65   11.10
  -1 -11  25  546.15   11.60
 -25   3  11    1.20    1.60
  11  25  -3    0.70    1.40
 -25  11  -3    0.30    1.40
  -3  25 -11    1.00    1.60
  25  11   3    0.30    1.40
  25  -3  11   -0.20    1.60
   3 -11  25    1.00    1.70
 -11  25   3    0.00    1.40
  -3 -11  25    1.70    1.60
  25   3  11    0.90    1.60
 -25  -3  11   -0.60    1.40
 -11  25  -3    0.20    1.40
 -25  11   3    0.80    1.60
  25 -11   3   -1.50    1.80
  25  11  -3    1.00    1.50
   3  25 -11    0.20    1.40
 -25  11  -5   34.20    2.90
  25  11   5   35.40    3.00
 -25   5  11   35.60    2.90
  -5  25 -11   30.90    2.70
 -11  25   5   38.60    3.10
   5 -11  25   30.90    2.70
  11  25  -5   32.20    2.20
  25  -5  11   33.10    2.90
  25   5  11   40.40    3.20
  25 -11   5   41.40    3.30
  -5 -11  25   34.70    2.80
  11  -5  25   36.90    2.90
 -25  11   5   36.10    3.10
  25  11   7   80.59    4.10
  11  25  -7   73.79    2.20
  -7  25 -11   77.89    4.00
   7 -11  25   76.69    3.90
  25  -7  11   79.89    3.90
 -25   7  11   78.29    3.70
  11  -7  25   80.69    3.90
  25 -11   7   80.29    3.90
  -7 -11  25   71.49    3.40
 -11  25  -7   78.59    4.00
  25   7  11   72.49    4.10
  -7  25  11   78.49    4.30
 -25  11   7   73.99    3.40
 -11  25   9  398.56    9.60
 -25   9  11  422.56    9.40
  25  11   9  396.96    9.60
   9 -11  25  412.16    9.70
  25   9  11  390.46    9.60
  -9 -11  25  415.56    8.70
 -11  25  -9  408.16    9.60
  -9  25  11  420.56   10.10
 -25  11   9  413.76    9.20
  11  -9  25  418.96    9.60
  25 -11   9  398.26    9.60
 -11  25  11  672.93   14.10
  11 -11  25  654.93   13.70
 -25  11  11  642.94   13.60
 -11 -11  25  668.83   12.30
 -13  25   1  109.39    4.30
   1 -13  25  105.99    4.30
  25  13   1  104.29    4.10
 -25   1  13  103.49    4.20
 -25  13  -1  112.79    4.40
  25  -1  13  109.39    4.10
  25  13  -1  108.59    3.70
  -1 -13  25  104.49    4.30
  25   1  13  106.89    4.40
 -13  25  -1  114.19    4.40
  25 -13   1  109.69    4.90
 -25  13   1  115.19    4.50
 -25  13  -3  213.48    6.10
  25  13   3  210.28    5.70
  13  25  -3  202.98    5.20
  25  -3  13  201.78    5.80
 -13  25   3  203.28    6.20
 -13  25  -3  212.68    5.80
 -25  13   3  211.78    6.10
  -3 -13  25  201.48    5.80
  13  -3  25  207.18    6.00
  25 -13   3  209.28    6.70
  25  13  -3  213.38    5.60
  25   3  13  216.08    6.40
  -5  25 -13  373.96    8.90
  25  13   5  388.46    9.00
  25  -5  13  387.26    9.00
  13  25  -5  363.96    6.90
 -13  25   5  371.26    8.80
 -25  13  -5  376.36    8.60
 -25   5  13  374.66    8.60
 -25  13   5  365.26    8.80
  13  -5  25  385.66    9.00
  25   5  13  384.86    9.10
  25 -13   5  368.16    9.40
 -13  25  -5  382.86    9.00
 -25   7  13   32.80    2.80
 -13  25   7   33.60    2.90
  25  -7  13   32.80    2.90
  25  13   7   31.50    3.10
  -7  25 -13   34.00    3.00
   7 -13  25   26.40    2.70
  25   7  13   36.60    3.10
  -7  25  13   28.90    3.00
  13  -7  25   34.30    2.90
  25 -13   7   32.50    3.10
 -25  13   7   31.50    2.70
 -13  25  -7   36.70    3.00
  -9  25 -13   53.09    3.60
 -25   9  13   53.29    3.70
  25  13   9   51.59    3.70
  25  -9  13   58.59    3.60
   9 -13  25   52.09    3.50
  25 -13   9   48.90    3.50
  -9 -13  25   53.79    2.60
 -13  25  -9   53.09    3.60
  25   9  13   53.69    3.80
  -9  25  13   52.09    3.80
 -25  13   9   54.79    3.20
 -11  25 -13  137.89    5.30
  11 -13  25  142.69    4.90
 -13 -11  25  148.69    4.00
 -25  11  13  152.38    5.30
 -13  25  11  150.58    5.40
  25 -11  13  150.18    5.00
  25  11  13  153.08    5.50
 -11  25  13  152.68    5.80
 -25  13  11  148.89    5.30
  13 -11  25  138.19    5.10
  25 -13  11  138.89    5.20
 -13  25 -11  146.89    5.20
 -25  13  13   88.69    4.40
  13 -13  25   88.79    3.90
 -13  25 -13   84.69    4.20
  25  13  13   87.59    4.40
 -13  25  13   86.89    4.40
  25 -13  13   82.89    4.20
  13 -25  13   79.49    4.80
 -25   1  15    2.00    1.70
   1 -15  25    0.20    1.50
  25  15   1    1.50    1.60
  25  -1  15    1.10    1.60
 -25  15  -1    0.60    1.50
 -15  25   1    0.90    1.60
  15  25  -1    1.40    1.80
  25  15  -1    0.90    1.50
  -1 -15  25    1.80    1.50
 -15  25  -1    0.50    1.40
 -25  15   1    0.30    1.60
  15  -1  25   -0.80    1.70
  25   1  15    0.30    1.80
 -25  -1  15    0.30    1.60
 -25   3  15  689.83   13.70
 -15  25   3  716.53   14.20
  25  15   3  682.33   13.80
  15  -3  25  680.63   14.00
 -25  15   3  699.23   14.10
  25   3  15  702.03   14.30
  25 -15   3  719.63   14.80
  25  -5  15 1542.65   26.90
   5 -15  25 1507.85   26.80
  25  15   5 1511.25   27.10
 -25  15  -5 1501.35   26.80
 -25   5  15 1496.95   27.10
  25   5  15 1503.65   27.20
 -15  25  -5 1520.85   27.10
  15  -5  25 1486.95   27.20
 -15  25   7  492.75   11.00
 -15  -7  25  526.55   10.80
  25  15   7  514.55   11.30
   7 -15  25  504.05   10.80
 -25  15  -7  498.75   11.00
  25  -7  15  522.85   11.20
 -25   7  15  530.35   11.40
  -7 -15  25  511.25   10.30
  25   7  15  494.35   11.20
  15  -7  25  523.45   11.20
 -15  25  -7  520.05   11.20
 -25  15   7  505.55   10.80
  25  -9  15   58.59    3.60
   9 -15  25   64.59    3.60
 -25   9  15   60.49    3.90
 -15  25   9   62.39    3.70
 -15  -9  25   58.59    3.00
 -25  15   9   56.79    3.60
  25   9  15   55.09    3.90
 -15  25  -9   60.99    3.70
  -9  25  15   62.19    4.00
   9 -25  15   62.79    4.60
  25 -15   9   59.29    4.10
 -25  11  15   -0.80    2.00
  25  15  11    2.60    2.00
  11 -15  25    1.60    1.90
 -15  25  11    0.60    1.60
  25 -11  15    0.20    1.80
 -25  15  11    1.50    1.90
  15 -11  25    0.20    1.70
  25  11  15    1.40    2.00
  11 -25  15    0.00    2.30
  25 -15  11    0.10    1.90
 -11  25  15    0.00    2.00
 -15  25 -11    0.80    1.70
 -25  13  15  109.19    4.80
  15 -25  13  105.49    5.30
  13 -15  25  107.49    4.70
 -15  25  13  105.39    4.60
  25 -13  15  102.79    4.50
  25  15  13  116.19    4.70
  15 -13  25  120.59    4.40
  25 -15  13  117.49    4.60
 -25  15  13  112.29    4.70
 -13  25  15  111.09    5.10
  25  13  15  113.49    4.60
  13 -25  15  113.39    5.50
 -15  25  15  364.86    9.10
  25  15  15  367.46    9.10
  15 -25  15  353.66    9.50
  25 -15  15  368.86    9.10
  25  17   1    9.20    1.80
 -25  17  -1    8.90    2.00
 -17  25   1   10.30    2.00
  17   1  25    9.80    2.10
 -17  -1  25    9.60    2.50
  17  25  -1    8.60    2.00
  25  -1  17    9.50    2.10
 -25   1  17    7.30    1.80
  25   1  17   14.60    2.30
 -17  25  -1   13.10    2.00
 -25  17   1   12.60    2.10
 -17   1  25   10.10    2.50
  17  -1  25    9.30    2.00
 -25  -1  17    9.10    2.00
  25  17  -1    9.60    1.70
 -25   3  17  763.82   15.20
 -25  17  -3  753.12   15.10
  17  25  -3  744.83   12.90
  25  -3  17  779.62   14.80
   3 -17  25  761.82   15.20
  17  25  -3  766.32   13.00
 -17  25   3  752.82   15.00
  25  17   3  737.33   14.80
 -17  25  -3  737.83   15.00
  17  -3  25  752.52   15.10
 -17   3  25  765.62   15.90
  25   3  17  772.12   15.20
  25  17  -3  773.02   13.50
   5 -17  25 1399.96   25.40
 -25   5  17 1401.26   25.40
 -17  -5  25 1388.46   25.10
  25  17   5 1380.56   25.10
  25   5  17 1387.66   25.30
  25 -17   5 1400.06   25.80
  -5 -17  25 1330.57   24.30
 -17  25  -5 1397.96   25.20
 -25  17   5 1403.56   24.80
  25  -7  17  485.15   10.60
 -17  25   7  464.65   10.50
 -25   7  17  487.95   11.00
  25  17   7  475.85   10.80
  25   7  17  471.25   10.80
 -25  17   7  477.35   10.20
  17  -7  25  473.35   10.60
 -17  25  -7  490.05   10.70
   7 -25  17  478.05   11.50
  25  17   9   17.00    2.60
  25  -9  17   14.40    2.30
   9 -17  25   14.90    2.60
 -17  25   9   13.90    2.30
 -25   9  17   15.50    2.70
  25   9  17   15.30    2.50
 -25  17   9   17.00    2.40
 -17  25  -9   14.00    2.40
 -17   9  25   12.50    2.80
   9 -25  17   16.20    3.00
  -9  25  17    9.60    2.50
  17  -9  25   17.40    2.40
  25 -17   9   12.10    2.60
 -25  11  17   23.20    3.00
  25  17  11   25.90    2.90
  11 -17  25   23.60    2.90
  25 -11  17   25.20    2.80
 -17  25  11   25.50    2.80
 -25  17  11   19.40    2.50
  11 -25  17   21.50    3.20
  25  11  17   25.70    2.80
  25 -17  11   19.20    2.90
 -11  25  17   25.60    3.10
 -17  25 -11   21.70    2.40
  17 -11  25   22.60    2.50
 -17  11  25   21.70    3.20
  25  17  13  161.78    5.90
  17 -25  13  157.98    6.40
 -25  13  17  163.18    5.90
  13 -17  25  161.38    5.80
 -17  13  25  169.68    6.50
  25  13  17  153.48    5.50
  13 -25  17  155.88    6.30
 -13  25  17  171.98    6.20
  25 -17  13  167.38    5.80
 -25  17  13  169.58    5.70
  17 -13  25  162.68    5.30
  25 -15  17  566.94   12.30
 -25  15  17  554.44   12.50
  17 -25  15  582.84   13.10
 -17  25  15  571.84   12.10
  15 -25  17  579.04   13.20
 -17  15  25  591.84   13.10
  25  15  17  581.44   12.50
  17 -15  25  554.84   12.20
 -25  17  15  563.04   12.40
  25 -17  17  597.04   12.50
  17 -25  17  613.74   13.60
  17 -17  25  585.54   12.80
 -25  17  17  597.74   12.90
 -17  17  25  569.64   13.20
 -17  25  17  603.84   12.80
 -25  19  -1   28.70    2.80
 -25   1  19   21.90    2.50
  19   1  25   30.10    2.70
  25  19   1   22.60    2.20
  19  25  -1   25.20    2.00
  25  -1  19   27.90    2.80
 -19  -1  25   20.80    2.90
 -19  25   1   21.50    2.30
  19  25  -1   22.00    2.30
  25  19  -1   25.60    2.00
 -19  25  -1   27.20    2.50
  25   1  19   27.10    2.80
 -19   1  25   29.40    3.50
  19  -1  25   22.60    2.60
 -25  19   1   21.30    2.50
 -25  19  -3  117.19    4.50
 -19  -3  25  118.09    5.00
  19   3  25  108.89    4.60
  25  19   3  115.89    4.70
  25  -3  19  113.19    4.50
 -19  25   3  126.49    4.60
 -25   3  19  122.59    5.00
  25   3  19  123.09    4.80
 -25  19   3  113.99    4.60
 -19   3  25  128.99    5.80
  19  -3  25  121.19    4.70
 -19  25  -3  124.49    4.70
 -25   5  19  274.07    7.70
 -25  19  -5  281.27    7.30
 -19  25   5  267.17    7.20
 -19  -5  25  274.47    7.10
  19  -5  25  278.37    7.30
 -19   5  25  281.77    8.30
 -25   7  19   57.69    4.20
   7 -19  25   59.09    4.20
  25  -7  19   50.99    3.30
 -19  -7  25   46.10    2.80
  25  19   7   49.70    4.00
 -19  25   7   48.60    3.50
 -25  19  -7   50.49    3.20
 -19  25  -7   50.99    3.60
 -19   7  25   57.39    4.40
 -25  19   7   53.19    3.20
   7 -25  19   58.09    4.70
  19  -7  25   49.60    3.60
  25 -19   7   52.99    4.20
  25   7  19   49.70    3.70
 -19  25   9   21.90    2.60
  25  -9  19   22.80    2.60
  25  19   9   25.30    2.90
 -25   9  19   29.40    3.20
  25 -19   9   21.10    3.10
 -19  25  -9   30.40    2.90
 -19   9  25   22.00    3.30
   9 -25  19   24.60    3.50
  25   9  19   25.20    2.80
  19  -9  25   24.30    2.60
 -25  19   9   27.10    2.80
 -19  25  11  102.69    4.40
  11 -19  25  105.19    4.90
 -25  11  19  104.99    4.80
  25 -11  19  107.29    4.60
  25  11  19  111.29    4.60
 -19  25 -11  109.79    4.60
 -25  19  11  118.69    4.80
 -19  11  25  116.19    5.80
 -11  25  19  119.59    5.30
  11 -25  19  113.19    5.80
  25 -19  11  107.39    5.20
  19 -11  25  108.89    4.20
  13 -19  25   -1.10    2.10
  19 -25  13    0.70    2.50
 -19  25  13    0.60    1.90
 -25  13  19   -0.40    1.90
  25 -13  19    1.00    2.00
 -25  19  13   -0.20    2.00
  13 -25  19    1.70    2.80
  25  13  19    0.90    2.20
 -13  25  19    2.00    2.30
 -19  13  25    1.10    2.70
  25 -19  13    2.60    2.50
  19 -13  25    0.80    2.00
  25 -15  19  255.47    7.20
 -15  19  25  269.17    8.10
  19 -25  15  271.97    8.20
  15 -25  19  256.77    8.20
  19 -15  25  263.57    7.30
 -25  19  15  259.17    7.40
  25 -19  15  271.27    7.80
 -19  15  25  272.37    8.20
  25 -17  19  201.18    6.60
  17 -19  25  210.38    6.50
  19 -25  17  220.58    7.60
 -17  19  25  203.88    7.10
 -19  25  17  205.98    6.40
  19 -17  25  206.68    6.70
 -17  25  19  213.88    6.80
  17 -25  19  204.58    7.40
  25 -19  17  210.18    6.60
 -25  19  17  199.48    6.50
 -19  17  25  219.18    7.60
  21  25  -1  313.97    6.70
 -25  21  -1  298.67    7.70
  21   1  25  306.27    7.90
  21  25  -1  305.97    6.30
  25  -1  21  302.27    7.80
 -21  25   1  321.67    7.50
  25  21  -1  301.57    6.60
  21  -1  25  305.87    7.80
  21  25   1  312.27    7.40
 -21  25  -1  296.77    7.70
 -25  21   1  312.97    7.80
 -25  -1  21  323.97    7.60
 -25  21  -3   43.40    3.30
  25  -3  21   41.10    3.20
 -21  25   3   43.50    3.00
  21   3  25   42.80    3.30
 -21  -3  25   40.40    3.50
 -25   3  21   51.89    3.90
  25  21   3   49.99    4.00
 -25  21   3   41.10    3.30
  25   3  21   44.20    3.50
 -21   3  25   42.40    3.60
 -25  -3  21   45.20    3.60
  21  -3  25   48.60    3.40
 -21  25  -3   41.60    3.50
  21   5  25   12.20    2.30
 -25  21  -5   12.60    2.30
 -21  25   5    7.60    2.10
  25  21   5    5.60    2.30
  25  -5  21    8.20    1.90
 -25   5  21   13.60    2.80
 -25  -5  21    9.60    1.80
  25   5  21    8.10    2.30
  21  -5  25   13.20    2.30
 -21   5  25   14.20    3.10
 -21  25  -5   10.40    2.20
 -25  21   5   13.60    2.20
 -25   7  21    1.20    2.30
 -21  25   7    1.00    1.90
  25  21   7   -0.40    2.30
   7 -21  25    0.70    2.50
 -25  21  -7   -1.30    1.60
  25  -7  21    0.30    1.60
  21  -7  25    0.30    1.90
  25   7  21    0.40    1.90
 -25  21   7    0.50    1.60
   7 -25  21   -1.70    2.60
 -21   7  25    1.70    2.60
 -21  25  -7    0.90    1.90
  25  -9  21  176.28    5.70
  25  21   9  177.68    5.90
   9 -21  25  176.18    6.50
  25   9  21  161.68    5.60
 -21  25  -9  168.38    5.50
 -21   9  25  169.28    6.60
   9 -25  21  172.98    7.00
  25 -21   9  173.68    6.30
 -25  21   9  179.28    5.70
  25 -11  21  357.06    8.70
 -21  25  11  351.06    8.70
 -21  25 -11  370.96    8.80
  25  11  21  378.76    8.70
 -25  21  11  348.97    8.70
 -11  25  21  375.76    9.40
  25 -21  11  358.06    9.40
  21 -11  25  365.26    8.50
  11 -25  21  347.07    9.90
 -21  11  25  355.46    9.60
  13 -21  25  141.39    6.00
  25 -13  21  124.89    5.20
  21 -25  13  130.39    6.00
 -21  25  13  138.39    4.90
  25 -21  13  134.79    5.80
  13 -25  21  133.89    6.40
 -13  25  21  142.59    5.90
 -25  21  13  129.19    5.20
 -21  13  25  146.19    6.30
  25  13  21  122.69    5.20
  21 -13  25  131.89    5.10
  15 -21  25   40.00    3.90
  21 -25  15   31.70    3.70
 -15  21  25   36.30    3.80
 -21  25  15   30.20    3.00
  25 -15  21   28.80    2.90
 -25  21  15   38.70    3.40
 -15  25  21   33.40    3.60
  15 -25  21   41.40    4.40
  21 -15  25   35.80    3.30
  25 -21  15   37.60    3.80
 -25   1  23  403.06    9.90
  23   1  25  413.66    9.50
  25  -1  23  413.06    9.50
  25  23   1  423.56    8.80
 -23  25   1  408.86    9.50
 -25  23   1  424.16    9.50
  25   1  23  418.16    9.60
  23  -1  25  418.86    9.60
 -23   1  25  400.46    9.70
  23  25   1  407.96    9.00
 -23  25  -1  401.96    9.40
 -25  23  -3   34.50    3.00
  25  23   3   23.70    3.00
 -25   3  23   27.10    3.30
  23   3  25   33.90    3.10
  25   3  23   28.60    2.80
  23  -3  25   32.50    2.90
 -23   3  25   32.20    3.60
 -23  25  -3   28.80    2.80
 -25  23   3   30.40    2.90
 -25  -3  23   35.00    3.20
  23  25   3   32.60    3.20
  23   5  25   47.10    3.50
 -25   5  23   48.90    4.00
 -23  -5  25   37.60    2.90
  25  23   5   43.10    3.60
 -25  23  -5   40.60    3.50
  25  -5  23   41.10    3.20
 -23  25   5   37.40    3.00
  23  25   5   48.80    3.60
 -25  -5  23   41.30    3.30
 -25  23   5   39.80    3.20
 -23  25  -5   38.00    3.10
  23  -5  25   44.10    3.30
  25   5  23   43.60    3.80
 -25  23  -7    6.90    2.00
 -25   7  23    7.70    2.60
  23   7  25    8.60    2.10
  25  23   7    8.00    2.60
 -23  25   7    7.00    2.10
  25  -7  23    5.60    1.90
 -25  23   7   10.80    2.10
  25   7  23    8.20    2.30
 -23  25  -7    5.30    2.20
 -23   7  25   10.50    2.80
  23  -7  25   10.00    2.00
  23   9  25  132.19    5.20
 -23  25   9  123.29    5.00
  25  -9  23  125.39    4.90
 -25  23  -9  128.69    5.00
  23  -9  25  130.99    4.60
 -23   9  25  132.79    5.50
 -25  23   9  121.59    4.80
  25   9  23  123.39    5.00
 -23  25  -9  133.59    4.80
 -23  25  11  278.87    7.50
  11 -23  25  287.77    8.30
 -25  11  23  294.27    8.20
  25  11  23  296.57    7.50
 -25  23  11  277.97    7.50
  11 -25  23  295.57    9.00
  23 -11  25  278.67    7.50
  25 -23  11  281.67    8.30
 -25  25  -1   36.60    3.10
 -25  25   1   44.10    3.60
  25  -1  25   36.30    3.10
  25   1  25   45.50    3.60
  25  25   1   34.80    3.00
 -25  -3  25  163.08    6.10
 -25   3  25  152.68    6.50
 -25  25  -3  162.28    5.40
 -25  25   3  148.39    5.30
  25  -3  25  154.28    5.40
  25   3  25  167.98    5.70
  25  25   3  161.38    6.20
 -25  -5  25  428.66    8.90
 -25   5  25  446.16   10.60
 -25  25  -5  441.56    9.90
 -25  25   5  436.66    9.50
  25  25   5  457.75   10.70
 -25  25  -7  131.89    4.90
 -25  25   7  129.49    4.70
  25  -7  25  136.29    4.70
  25   7  25  133.59    5.20
  25  25   7  139.19    6.00
   2  26   0  178.08    5.50
  26   0   2  161.08    5.50
  26  -2   0  169.78    5.70
   0  26   2  176.08    5.70
   2  26   2   46.30    3.60
  26  -2  -2   45.30    3.50
  26  -2   2   40.40    3.20
  26   2  -2   40.70    3.40
  -2  26  -2   44.80    3.00
  -2  26   2   49.60    3.20
   2  26  -2   49.40    3.20
   0  26   4  184.48    6.00
   4  26   0  182.88    5.80
  26   0   4  179.98    5.60
  26  -4   0  190.88    6.30
 -26   2   4  728.83   14.50
  26  -2   4  747.73   14.80
   4  26  -2  730.23   14.60
  -2  26  -4  758.12   14.70
   2  26   4  736.03   15.20
  -4  26  -2  739.63   14.80
   4  26   2  730.63   15.10
   2  26  -4  747.53   14.60
  26  -4   2  722.63   14.90
  26   4  -2  746.03   14.90
   4  26  -4 1239.08   22.80
  26  -4   4 1268.67   23.40
  26   4  -4 1287.17   23.40
  26   0   6   55.19    3.50
  26   6   0   49.60    3.40
 -26   6   0   56.39    3.10
   0  26  -6   57.79    3.00
   0  26   6   59.49    3.70
  26  -6   0   52.69    3.80
   6  26   0   53.39    3.60
 -26   0   6   49.80    3.20
  -6  26   2  501.05   10.90
  -2  26  -6  492.05   10.30
  26  -2   6  469.25   10.80
   6  26  -2  468.65   10.40
  26  -6   2  498.35   11.20
  -2  26   6  506.25   11.40
   6  26   2  479.15   11.00
  26   2   6  502.15   10.90
 -26   6   2  504.55   10.80
   2  26  -6  500.45   10.10
  26  -4   6 1582.94   27.90
   6  26  -4 1582.54   27.50
 -26   4   6 1569.64   28.00
  -6  26   4 1508.95   28.00
  26   6  -4 1563.44   27.90
  -6  26  -4 1581.84   28.00
  -4  26   6 1588.54   28.70
   4  26  -6 1573.84   27.10
 -26   6   4 1538.05   28.00
   6  26  -6 1482.15   25.60
  -6  26  -6 1487.45   26.30
  26  -6   6 1475.75   26.90
 -26   0   8  268.77    6.90
  26   0   8  289.57    7.40
   0  26  -8  271.87    7.00
  26   8   0  278.37    6.90
  -8  26   0  288.17    7.40
   8  26   0  269.57    7.40
 -26   8   0  278.27    7.20
  -2  26  -8   28.10    2.60
  -8  26   2   27.70    2.60
  26  -2   8   25.10    2.60
 -26   2   8   21.30    2.40
 -26   8  -2   25.10    2.40
   2  -8  26   20.20    2.40
   8  26  -2   27.60    2.40
  -8  26  -2   24.40    2.60
 -26   8   2   26.80    2.60
  26   2   8   24.00    2.40
  -2  26   8   28.80    3.00
  26  -8   2   22.60    2.80
   8  26   2   23.00    2.70
   2  26  -8   22.10    2.30
  26   8  -2   21.40    2.30
  -4  26  -8  537.55   11.50
  26  -4   8  541.05   11.70
 -26   4   8  535.75   11.50
   8  26  -4  545.15   11.00
 -26   8   4  556.94   11.60
  26   4   8  532.55   11.30
  26   8  -4  522.25   11.30
  -8  26   6  713.13   14.50
   6  -8  26  713.33   14.30
   8  26  -6  719.63   13.10
  -6  26  -8  722.83   14.40
  26   6   8  692.63   14.00
  26  -8   6  694.83   14.30
   6  26  -8  690.83   13.30
  -6  26   8  707.83   14.90
  26  -8   8   17.20    2.40
   8  26  -8   17.60    1.80
  26   8   8   18.00    2.60
 -26   8   8   17.20    2.40
  -8  26  -8   20.10    2.50
  -8  26   8   16.80    2.60
   8  -8  26   18.60    2.40
  26 -10   0  405.16   10.00
  10  26   0  407.16    9.60
 -10  26   0  417.56    9.60
 -26  10   0  415.56    9.50
   0 -10  26  424.96    9.50
  26  -2  10    3.90    1.80
 -10  26   2    7.30    1.70
  -2  26 -10    5.60    1.80
 -26   2  10    4.60    1.80
  10  26  -2    3.30    1.50
  26  10   2    4.10    1.70
 -26  10  -2    3.70    1.60
   2 -10  26    4.30    1.80
  -2 -10  26    5.10    1.70
  26  10  -2    5.80    1.70
 -26  10   2    4.50    1.80
   2  26 -10    4.80    1.70
 -26  -2  10    4.80    1.70
  26 -10   2    6.10    2.30
  26   2  10    5.40    1.70
 -10  26  -2    5.70    1.80
 -26  10  -4  171.88    5.50
 -10  26   4  163.78    5.50
  -4  26 -10  163.08    5.40
 -26   4  10  166.48    5.40
  26  10   4  159.58    5.00
  10  26  -4  167.98    4.80
  26  -4  10  168.98    5.50
  -4 -10  26  161.28    5.00
  -4  26  10  166.28    5.90
 -10  26  -4  164.48    5.00
  26  10  -4  169.88    5.30
 -26  10   4  171.28    5.40
  10  -4  26  164.38    5.40
  26 -10   4  170.18    5.90
  26   4  10  164.58    5.40
   6 -10  26  157.08    5.40
  -6  26 -10  162.08    5.50
  10  26  -6  155.38    4.20
  26  -6  10  157.68    5.40
  26  10   6  154.38    5.40
 -10  26  -6  161.68    5.40
 -26  10   6  169.38    5.50
  -6 -10  26  169.58    4.90
  26 -10   6  150.88    5.40
  10  -6  26  159.88    5.30
  26   6  10  165.08    5.60
  -8  26 -10   43.40    3.40
  26  -8  10   44.90    3.00
 -10  26   8   40.60    3.30
   8 -10  26   36.20    3.10
  26  10   8   41.60    3.40
 -26   8  10   45.00    3.20
  10  -8  26   39.80    3.20
 -10  26  -8   46.00    3.50
  26 -10   8   36.60    3.20
  -8  26  10   43.00    3.60
  26   8  10   42.60    3.60
 -26  10   8   39.10    3.20
  26  10  10  253.77    7.10
 -10  26 -10  264.07    7.20
 -26  10  10  245.08    6.50
 -10 -10  26  237.88    6.10
 -10  26  10  250.77    7.20
  10 -10  26  240.68    6.80
 -12  26   0  125.59    4.70
  26   0  12  122.99    4.40
 -26  12   0  132.79    4.70
   0  26 -12  120.99    4.50
  12  26   0  121.29    4.80
 -26   0  12  122.99    4.60
   0 -12  26  128.79    4.70
  26  -2  12   55.69    3.40
 -26  12  -2   55.19    3.40
   2 -12  26   49.20    3.50
 -26   2  12   52.79    3.50
  26  12   2   55.29    3.40
  12  26  -2   51.99    3.10
  -2  26 -12   55.89    3.30
 -12  26   2   55.99    3.40
  -2 -12  26   56.39    3.40
  26   2  12   53.39    3.40
 -12  26  -2   53.59    3.30
  26 -12   2   53.29    3.90
  26  12  -2   57.19    3.10
 -26  -2  12   51.49    3.10
 -26  12  -4  380.46    8.60
 -26   4  12  354.76    8.80
  12  26  -4  361.46    7.70
 -26  12   4  373.46    8.90
  26 -12   4  370.46    9.40
  26  12  -4  375.36    8.20
  26   4  12  372.16    9.10
  26  12   6  202.28    6.20
 -12  26   6  207.48    6.20
 -26   6  12  215.08    6.00
  26  -6  12  210.38    6.20
   6 -12  26  198.18    6.20
 -12  26  -6  207.18    6.20
  12  -6  26  205.28    6.20
  26   6  12  206.08    6.40
  26 -12   6  203.78    6.50
  -6  26  12  210.08    6.70
  26  -8  12    5.50    1.90
 -26   8  12    8.10    1.80
  26  12   8    6.90    2.10
  -8  26 -12    7.30    1.90
   8 -12  26    7.60    2.10
 -12  26   8    5.80    1.80
 -12  26  -8    4.70    1.90
  -8 -12  26    5.10    1.70
  26   8  12    3.00    1.90
  12  -8  26    7.00    2.10
  26 -12   8    4.30    2.10
  -8  26  12    5.30    2.10
 -26  12   8    7.40    1.90
 -12  26  10   28.60    2.80
  26  12  10   28.80    3.00
  10 -12  26   34.10    3.10
 -26  10  12   31.40    2.80
 -12 -10  26   32.30    2.40
 -10  26 -12   31.70    2.80
 -10  26  12   36.50    3.50
  26 -12  10   32.70    3.00
  12 -10  26   33.50    3.00
 -12  26 -10   31.00    3.00
  26  10  12   37.40    3.30
 -26  12  10   31.50    2.70
  12 -12  26    9.10    2.10
 -26  12  12    6.50    2.10
 -12  26  12    9.20    2.30
 -12  26 -12    8.40    2.10
  26 -12  12    4.70    2.10
  26  12  12    5.10    2.20
   0 -14  26    2.10    1.60
  14  26   0    1.60    1.90
  26  14   0    2.10    1.70
 -26  14   0    3.10    1.70
 -14  26   0    2.00    1.70
 -26   0  14   -0.30    1.70
  26   0  14    1.30    1.60
 -26   2  14  426.46    9.60
  26  14   2  406.76    9.20
 -26  14  -2  419.76    9.60
  14  26  -2  411.36    8.70
  26   2  14  410.46    9.70
 -26  14   2  420.16    9.60
 -14  26  -2  430.16    9.30
  26 -14   2  411.16   10.10
  26  14  -2  423.26    8.80
  14  -2  26  411.96    9.50
 -26  14  -4 1234.38   22.20
  14  26  -4 1222.08   20.70
  26  -4  14 1179.78   22.30
 -14  26   4 1187.08   22.40
 -14  26  -4 1223.48   22.40
  26 -14   4 1246.48   23.20
  14  -4  26 1248.88   22.50
 -26  14   4 1202.28   22.40
 -26   6  14  976.90   18.80
  26  14   6 1022.00   19.20
  26   6  14 1018.40   19.30
 -14  26  -6 1025.30   19.20
  26 -14   6  992.60   19.70
  14  -6  26 1018.00   19.20
 -14  26   8  143.39    5.20
  26  -8  14  149.79    5.20
  26  14   8  152.08    5.50
   8 -14  26  148.99    5.00
  14  -8  26  147.19    5.20
 -14  26  -8  152.48    5.30
  -8  26  14  159.98    5.80
  -8 -14  26  143.19    4.50
  26 -14   8  145.39    5.60
  26   8  14  150.18    5.50
  10 -14  26   38.50    3.20
 -14 -10  26   40.40    3.00
  26 -10  14   38.30    3.20
  14 -10  26   39.60    3.30
 -14  26 -10   39.40    3.40
 -26  14  10   37.30    3.20
  26 -14  10   43.50    3.60
  26  10  14   32.30    3.00
  12 -14  26   37.00    3.00
  26  14  12   31.30    3.10
 -14  26  12   38.30    3.20
 -26  12  14   36.70    3.20
  26 -12  14   35.10    3.00
  14 -12  26   35.70    3.00
  26 -14  12   31.60    2.80
  26  12  14   37.70    3.30
 -26  14  12   38.10    3.20
 -12  26  14   37.50    3.60
 -26  14  14  253.27    7.30
 -14  26  14  256.97    7.40
  26 -14  14  253.27    7.20
  14 -14  26  262.07    7.00
  26  14  14  258.47    7.30
 -16  26   0  116.59    4.30
  16   0  26  108.99    4.50
  26   0  16  108.39    4.50
  16  26   0  110.69    4.70
  26  16   0  108.39    4.30
 -26   0  16  114.29    4.60
 -26  16   0  109.09    4.40
 -26  16  -2  743.53   14.60
  26  -2  16  714.13   14.20
  26  16   2  713.23   13.90
 -16  26   2  750.32   14.60
  26   2  16  739.13   14.80
  26  16  -2  721.63   13.60
 -26  -2  16  721.23   14.20
 -26  16   2  706.73   14.50
 -16  26   4 2071.89   36.00
 -26  16  -4 2039.50   35.90
  26  -4  16 2129.19   35.70
  26  16   4 2072.19   35.90
 -26  16   4 2030.80   36.00
 -26  -4  16 2028.00   35.20
  16  -4  26 2061.19   36.10
  26 -16   4 2130.89   36.80
 -16  26  -4 2059.69   36.00
 -26  16  -6 1645.84   29.30
  26  -6  16 1641.04   29.50
  26  16   6 1714.33   29.70
 -16  26   6 1634.94   29.50
  16  -6  26 1655.23   29.50
  26   6  16 1685.13   29.70
 -16  26  -6 1639.14   29.50
  26  -8  16  396.36    9.30
   8 -16  26  388.86    9.40
 -16  -8  26  380.36    8.50
 -16  26   8  407.66    9.10
  26   8  16  403.46    9.60
  16  -8  26  395.46    9.30
  26 -16   8  397.76    9.90
  -8  26  16  398.26    9.90
 -26  16   8  393.16    8.90
 -16  26  -8  408.76    9.40
 -26  10  16  139.79    5.40
  26  16  10  144.99    5.60
  26 -10  16  140.29    5.20
 -16  26  10  133.79    5.20
  10 -16  26  150.48    5.60
 -26  16  10  155.08    5.20
  16 -10  26  146.59    5.20
 -10  26  16  145.39    5.60
  26 -16  10  142.69    5.70
 -16  26 -10  143.79    5.30
  26  10  16  146.69    5.60
  12 -16  26  342.07    8.70
 -26  12  16  357.26    8.80
  12 -26  16  355.96    9.60
 -16  26 -12  333.57    8.60
 -26  16  12  345.87    8.70
 -12  26  16  365.56    9.20
  26 -16  12  340.37    8.80
  26  12  16  343.17    8.80
  14 -16  26  634.44   13.40
 -26  14  16  647.94   13.60
 -16  26  14  639.54   13.10
 -26  16  14  638.24   13.40
  26  14  16  646.54   13.30
 -14  26  16  614.84   13.60
 -26  16  16 1005.60   19.20
 -16  16  26  969.70   19.70
 -16  26  16  987.50   19.10
  16 -16  26  995.10   19.20
  16 -26  16 1031.70   20.00
  26  18   0    1.90    1.90
  18   0  26    3.00    1.70
   0 -18  26   -0.40    2.00
 -26   0  18    4.10    2.10
 -18  26   0    3.40    1.70
 -26  18   0    3.10    1.80
  26   0  18    3.00    2.00
  18  26   0    2.60    2.20
 -18   0  26    3.50    2.60
 -18  26   2  346.47    8.40
  18  26  -2  349.47    7.10
  18  26  -2  352.16    7.00
  26  18   2  359.96    8.00
 -26  18  -2  363.06    8.60
 -26   2  18  366.46    8.40
 -18  -2  26  365.36    9.40
  18  -2  26  351.16    8.60
  26   2  18  362.16    8.80
 -26  -2  18  348.37    8.40
 -26  18   2  346.67    8.60
 -18   2  26  356.06    9.40
  26  18  -2  357.76    7.60
 -18  26   4  914.91   17.30
  26  -4  18  915.01   16.90
 -18  -4  26  879.01   17.40
 -18   4  26  912.41   18.20
 -26  -4  18  885.81   16.40
 -18  26  -4  883.21   17.30
  18  -4  26  877.11   17.30
  26   4  18  918.71   17.50
   6 -18  26  653.13   13.70
 -18  26   6  635.74   13.20
  26  18   6  643.94   13.40
 -26   6  18  654.73   13.60
  18  -6  26  645.04   13.30
  26   6  18  642.44   13.40
 -18  26  -6  631.44   13.30
 -26  18   6  654.73   13.00
 -18   6  26  649.54   14.20
  26 -18   6  636.44   13.80
 -26   8  18   52.49    3.80
 -18  26   8   42.70    3.40
  26  18   8   49.60    4.10
  26  -8  18   44.90    3.40
   8 -18  26   50.89    3.80
 -18  -8  26   43.30    2.60
 -18   8  26   52.49    4.20
   8 -26  18   44.40    4.00
  26   8  18   44.60    3.50
 -26  18   8   44.20    3.20
  18  -8  26   44.80    3.60
 -18  26  -8   47.50    3.60
 -18  26  10    2.10    1.80
  10 -18  26    1.70    2.20
  26  18  10    1.40    2.30
  26 -10  18    1.80    1.90
 -26  10  18    0.40    2.20
  26  10  18    1.40    2.20
 -18  10  26    1.10    2.50
 -10  26  18    2.00    2.20
  26 -18  10    0.40    2.30
 -26  18  10    0.70    1.80
  10 -26  18    1.10    2.70
 -18  26 -10    0.90    1.90
  18 -10  26    2.10    1.80
 -18  26  12   47.10    3.80
 -26  12  18   50.49    4.30
  26  18  12   54.09    4.10
 -18  12  26   54.79    4.30
 -26  18  12   51.69    3.90
  26  12  18   49.80    3.70
  12 -26  18   49.60    4.10
  18 -12  26   49.99    3.30
  26 -18  12   50.59    4.20
 -12  26  18   50.39    4.20
 -18  26 -12   45.10    3.70
  26  18  14  404.86    9.60
 -26  14  18  406.06    9.90
  18 -26  14  393.46   10.20
 -18  26  14  396.06    9.50
 -18  14  26  409.76   10.40
  14 -26  18  419.16   10.50
 -26  18  14  405.26    9.70
  18 -14  26  392.86    9.50
  26 -18  14  389.26    9.80
  18 -26  16  758.42   15.90
  16 -18  26  755.22   15.30
 -16  18  26  747.93   15.70
 -18  26  16  728.73   14.80
  26 -16  18  731.53   15.10
  18 -16  26  771.22   15.30
 -18  16  26  724.23   15.70
  26  16  18  727.13   15.00
 -26  18  16  757.72   15.20
  26 -18  16  741.13   15.10
  26   0  20   39.70    3.40
  26  20   0   40.10    2.90
 -20  26   0   38.90    2.90
 -26  20   0   39.30    3.40
 -20   0  26   43.80    3.90
  20   0  26   41.30    3.20
  20  26   0   35.00    3.10
  26  -2  20   10.10    2.20
 -20  -2  26   14.40    2.60
 -26  20  -2    9.80    2.20
  26  20   2   11.00    2.20
  20   2  26    7.30    2.00
 -26   2  20    9.70    2.40
 -20  26   2   10.50    1.90
  26   2  20    8.40    2.30
  20  -2  26    7.00    2.10
 -26  -2  20    6.00    2.30
 -20   2  26   12.90    3.20
 -26  20   2   11.20    2.20
 -20  26  -2   12.00    2.20
 -20  26   4  162.78    5.30
 -26  20  -4  170.78    5.50
 -20  -4  26  157.48    5.70
  26  -4  20  170.28    5.20
 -26   4  20  160.78    5.90
  26  20   4  169.18    5.90
 -20   4  26  175.18    6.80
 -20  26  -4  165.88    5.50
 -26  -4  20  160.48    5.10
  20  -4  26  154.48    5.40
 -26  20   4  166.08    5.50
  26   4  20  173.78    5.80
 -26  20  -6  137.49    4.80
  26  20   6  148.39    5.70
 -20  26   6  142.69    5.10
  26  -6  20  136.59    4.70
 -20  -6  26  135.49    4.70
 -26  20   6  131.59    4.60
 -20   6  26  139.19    6.30
  20  -6  26  137.89    5.00
 -20  26  -6  128.89    5.00
 -20  26   8    1.10    2.00
 -26  20  -8    0.20    1.80
   8 -20  26   -1.50    2.10
 -26   8  20   -1.10    2.30
  26  -8  20    1.00    2.00
  26  20   8   -1.20    2.30
 -20  26  -8    1.20    1.90
 -26  20   8   -0.50    1.70
  20  -8  26    0.40    1.80
  26   8  20    0.70    2.10
 -20   8  26    0.80    2.70
  26 -20   8    1.50    2.40
   8 -26  20   -0.50    2.70
  26 -10  20   36.90    3.10
  10 -20  26   41.90    3.40
  26  20  10   44.70    3.70
 -20  26  10   42.10    3.30
 -26  10  20   38.90    3.60
 -20  26 -10   39.70    3.20
  26 -20  10   47.60    3.90
  10 -26  20   40.70    4.00
 -20  10  26   45.10    4.30
  20 -10  26   37.40    2.90
 -10  26  20   45.00    3.80
 -26  20  10   37.90    3.10
  12 -20  26   17.70    2.80
  26  20  12   19.40    2.90
 -26  12  20   23.40    3.20
  26 -12  20   17.60    2.70
 -20  12  26   16.30    3.40
  12 -26  20   16.80    3.40
  26  12  20   23.90    2.90
 -12  26  20   18.90    3.10
  20 -12  26   13.80    2.40
 -26  20  12   19.70    2.80
  26 -20  12   12.50    2.90
  14 -20  26  117.59    5.20
 -20  26  14  115.69    4.90
  26 -14  20  120.19    4.60
  26  20  14  119.69    5.60
  20 -26  14  105.29    5.70
  14 -26  20  119.89    6.20
  20 -14  26  109.99    4.90
 -26  20  14  112.59    5.10
 -14  26  20  118.59    5.70
  26 -20  14  117.39    5.70
  22  26   0  314.27    6.90
 -26   0  22  302.07    7.80
 -22   0  26  308.37    8.60
  22   0  26  308.87    7.80
  22  26   0  301.67    7.40
 -26  22   0  313.27    7.80
 -22  26   0  302.97    7.80
  26   0  22  314.57    8.00
 -26  22  -2   57.99    3.60
 -22  -2  26   58.49    4.50
 -26   2  22   64.49    4.60
  26  -2  22   59.89    3.90
  26  22   2   62.09    3.90
 -22  26   2   61.89    3.40
  22   2  26   61.39    3.90
  26   2  22   63.59    3.90
  22  26   2   59.59    4.20
 -22   2  26   64.19    4.80
 -26  22   2   60.19    3.70
  22  -2  26   64.29    3.80
 -22  26  -2   61.69    3.80
 -22  -4  26    7.40    2.50
 -26   4  22    6.80    2.70
  26  22   4   15.30    2.90
  22   4  26   10.00    2.20
  26  -4  22   11.80    2.10
 -26  22  -4   13.20    2.40
 -22  26   4    9.80    1.90
 -26  22   4   11.20    2.30
 -22   4  26   12.70    2.80
  26   4  22   13.50    2.50
  22  -4  26   10.00    2.20
 -26  -4  22    7.40    2.30
 -22  26  -4    8.70    2.20
  26  -6  22   58.09    3.50
 -22  -6  26   54.79    3.40
 -26   6  22   56.49    4.70
 -22  26   6   54.49    3.60
  22   6  26   62.99    3.80
  26  22   6   54.89    4.60
 -26  22  -6   54.69    3.50
 -26  22   6   56.49    3.40
  26   6  22   58.79    4.00
  22  -6  26   52.59    3.70
 -22  26  -6   57.69    3.80
 -22   6  26   55.19    4.20
  26  -8  22   12.30    2.40
 -22  26   8   12.00    2.30
 -26   8  22   17.50    3.20
  22   8  26   19.90    2.70
  26  22   8   18.00    3.20
 -26  22  -8   17.10    2.50
  22  -8  26   11.40    2.10
  26   8  22   13.50    2.60
 -26  22   8   14.10    2.10
 -22  26  -8   16.80    2.50
 -22   8  26   14.00    3.10
  26 -10  22  168.08    5.70
 -22  26 -10  167.08    5.70
 -26  22  10  161.88    5.50
  22 -10  26  178.08    5.30
  26 -22  10  166.48    6.30
  26  10  22  176.08    5.90
 -22  26  12  135.09    5.40
  12 -22  26  143.19    6.30
  26  22  12  136.99    5.90
  26 -12  22  142.39    5.30
  26 -22  12  141.59    5.90
 -26  22  12  141.29    5.30
  12 -26  22  143.79    6.90
  22 -12  26  139.29    5.30
  26  12  22  144.39    5.30
 -12  26  22  143.39    5.90
  24   0  26  156.18    5.40
 -26  24   0  157.68    5.30
 -26   0  24  150.98    5.80
  26   0  24  153.78    5.50
 -24  26   0  158.68    5.40
   0 -24  26  152.58    7.10
 -24  -2  26    0.80    2.80
  24   2  26   -0.60    2.00
  26  -2  24    0.30    2.00
  26  24   2   -1.60    2.30
 -24  26   2    0.10    1.90
 -26  24  -2   -0.80    1.90
 -26   2  24   -0.70    2.70
   2 -24  26   -0.60    3.20
  24  26   2    2.30    2.70
 -24   2  26   -1.40    2.70
  26   2  24    0.50    2.10
 -24  26  -2   -0.50    2.00
  24  -2  26    0.40    2.00
 -26  24   2    1.10    2.00
 -26  -2  24   -1.60    2.70
  24   4  26  220.98    6.60
 -26   4  24  222.28    7.30
  26  24   4  225.08    7.30
 -24  26   4  225.38    6.10
 -26  24  -4  225.18    6.50
 -24  -4  26  215.38    6.70
  24  -4  26  209.38    6.40
 -24  26  -4  219.28    6.40
  24  26   4  216.98    7.10
  26   4  24  233.68    6.70
 -24   4  26  224.08    7.30
 -26  24   4  215.18    6.40
  26  24   6  217.48    7.30
 -26  24  -6  217.38    6.30
  26  -6  24  223.58    6.10
 -24  26   6  229.68    6.10
  24   6  26  224.08    6.60
  24  26   6  234.08    7.10
 -24  26  -6  228.18    6.60
  26   6  24  228.68    6.80
 -24   6  26  220.08    7.60
 -26  24   6  220.08    6.10
 -26   8  24    8.10    2.90
  24   8  26   10.30    2.30
  26  24   8    9.70    3.20
  26  -8  24   13.30    2.40
 -26  24   8   12.30    2.30
 -24   8  26    8.30    3.00
  24  -8  26   14.40    2.20
  26   8  24   14.00    2.70
 -24  26  -8    8.90    2.20
  -1  27  -1  179.48    5.60
   1  27  -1  177.98    5.70
  27  -1  -1  165.88    6.00
  -3  27   1  136.59    4.90
   3  27  -1  142.09    4.90
  27  -3  -1  129.69    5.40
   1  27   3  126.09    5.20
  27  -1   3  132.99    4.90
  27   1  -3  126.29    5.20
   3  27   1  132.59    5.10
  27   1   3  124.69    4.80
   1  27  -3  138.99    4.90
  27  -1  -3  131.79    5.30
  -1  27   3  143.89    5.40
  27  -3   1  134.59    5.30
  27  -3   3  623.04   13.20
 -27   3   3  662.93   13.30
   3  27   3  638.74   13.70
   3  27  -3  654.23   13.10
  27   3  -3  625.14   13.50
   1  27   5  568.54   12.60
  -1  27  -5  565.24   11.90
  -5  27   1  595.74   12.40
  27   5  -1  579.64   12.20
   1  27  -5  575.94   12.00
  -1  27   5  559.64   12.70
 -27   5   1  595.34   12.30
  -5  27  -1  579.94   12.30
 -27   3   5 1193.78   21.90
  27  -3   5 1185.68   22.30
  27  -5   3 1215.18   22.40
  -5  27  -3 1222.68   22.20
 -27   5   3 1176.38   22.00
 -27   5   5 1963.00   34.10
  -5  27   5 1952.00   34.30
  27   5   5 1896.81   34.00
  27  -1   7   88.59    4.20
 -27   7  -1   84.99    3.90
  27  -7  -1   80.79    4.40
  -1  27  -7   85.19    3.90
  -7  27   1   89.59    3.80
  27   7   1   79.19    3.70
  -1  27   7   77.59    4.30
  -7  27  -1   82.39    4.00
  27  -7   1   94.19    4.80
   7  27   1   85.89    4.50
   1  27  -7   79.89    3.70
  27   1   7   81.09    4.10
 -27   3   7  704.63   14.60
  -7  27   3  742.73   14.90
  -3  27  -7  741.73   14.70
   7  27   3  743.83   15.20
  27   3   7  749.73   15.00
  -7  27  -3  739.13   14.80
  27   7  -3  730.33   14.90
  27  -7   3  733.23   15.20
  -3  27   7  738.33   15.40
  27  -5   7 1584.24   28.40
  -5  27  -7 1589.04   28.40
   7  27  -5 1575.04   27.70
  -7  27   5 1630.44   28.50
 -27   5   7 1549.74   28.30
   5  27  -7 1546.05   27.70
  27   5   7 1617.74   28.20
  -7  27  -5 1597.04   28.00
 -27   7   5 1600.94   28.40
  -7  27   7 1046.80   20.40
  27  -7   7 1067.49   20.40
  27   7   7 1092.29   19.90
  -9  27   1  131.09    5.00
 -27   1   9  129.59    4.70
  -1  27  -9  126.49    4.70
   1  -9  27  116.39    4.50
  27  -9  -1  120.19    5.30
  27  -1   9  130.59    5.00
  27  -9   1  125.69    5.30
   9  27   1  131.99    5.20
   1  27  -9  123.79    4.60
 -27   9   1  134.89    4.90
  27   1   9  126.09    4.90
  -9  27  -1  132.89    4.80
  -1  -9  27  118.69    4.40
 -27   3   9   44.10    3.30
  -9  27   3   39.00    3.10
  27  -3   9   43.20    3.30
  27   9   3   40.90    3.40
   3  -9  27   41.90    3.20
  -3  27  -9   39.80    3.30
   9  27  -3   46.80    2.90
  27  -9   3   44.80    3.70
  -9  27  -3   38.80    3.00
  -3  -9  27   38.20    3.10
   3  27  -9   42.70    3.10
  27   3   9   43.30    3.10
  -3  27   9   42.10    3.40
  27   9  -3   45.80    3.60
 -27   9   3   45.80    3.20
  -9  27   5  344.57    8.60
   9  27  -5  344.67    7.80
  -5  27  -9  368.86    8.80
  27   9   5  357.56    8.30
  27  -5   9  347.97    8.70
   5  -9  27  347.97    8.70
  -5  27   9  369.46    9.30
  -5  -9  27  364.26    8.50
  27   5   9  347.27    8.40
  27  -9   5  365.16    9.00
 -27   9   5  368.76    8.70
  -9  27  -5  366.76    8.30
   5  27  -9  353.46    8.00
   9  27  -7  191.98    4.90
  -9  27   7  192.98    6.00
   7  -9  27  182.08    5.90
 -27   7   9  186.58    5.90
  27  -7   9  181.78    5.70
  -7  27   9  193.28    6.30
  -9  27  -7  179.08    5.80
   7  27  -9  179.98    4.80
 -27   9   7  191.18    5.90
   9  -7  27  177.08    5.70
  -9  27  -9  121.89    4.70
  27  -9   9  119.09    4.80
  27   9   9  120.99    5.00
 -27   9   9  118.19    4.80
  -9  27   9  119.49    5.00
  27  11   1   12.30    2.20
  -1  27 -11   12.50    2.20
 -27  11  -1    9.50    2.00
   1 -11  27   13.10    2.20
  11  27  -1    7.40    2.00
 -27   1  11   10.00    2.10
  27  -1  11    8.90    2.10
 -11  27   1   12.70    2.20
  11  27   1    8.60    2.30
 -27  -1  11    9.60    1.80
 -27  11   1   13.70    2.30
  -1 -11  27   10.50    2.00
  27 -11   1   12.20    2.60
 -11  27  -1   10.30    2.10
  27   1  11   12.20    2.00
   1  27 -11   10.70    2.00
  27  11  -1    9.70    2.10
 -27  11  -3  183.48    5.60
   3 -11  27  179.98    5.80
  27  11   3  173.58    5.60
 -27   3  11  176.28    5.70
  27  -3  11  176.88    5.80
  11  27  -3  177.78    4.90
  -3  27 -11  174.68    5.70
  27   3  11  170.28    5.40
 -27  11   3  189.28    5.70
 -11  27  -3  187.28    5.40
  27 -11   3  187.28    6.30
  27  11  -3  180.28    5.80
 -11  27   5  371.46    8.90
  -5  27 -11  383.46    9.00
  11  27  -5  366.66    7.40
 -27   5  11  369.86    8.90
  27  11   5  366.06    8.50
   5 -11  27  361.56    8.90
  27  -5  11  357.16    8.80
  27 -11   5  376.96    9.40
  27   5  11  359.36    8.90
  -5  27  11  377.86    9.40
 -11  27  -5  353.56    8.70
  27  11   7   93.89    4.50
  11  27  -7   94.39    2.80
 -27   7  11   87.79    4.30
  27  -7  11   89.09    4.20
   7 -11  27   91.19    4.30
  11  -7  27   92.09    4.20
  -7  27  11   94.19    4.70
 -11  27  -7   91.39    4.40
 -27  11   7   98.59    4.40
  27 -11   7  100.79    4.60
  27   7  11  101.69    4.70
  27  -9  11   33.00    2.90
  27  11   9   34.20    3.20
  -9  27 -11   32.20    3.00
 -27   9  11   28.10    2.60
   9 -11  27   26.80    2.80
 -11  27   9   35.80    3.00
 -11  27  -9   33.70    3.00
 -27  11   9   27.80    2.60
  27 -11   9   29.10    2.70
  27   9  11   30.60    3.00
  -9  27  11   31.70    3.30
 -11  27 -11    5.00    2.20
  11 -11  27    5.10    2.00
 -27  11  11    4.80    1.80
 -11 -11  27    1.20    1.60
  27 -11  11    4.70    2.10
 -11  27  11    2.80    2.00
  27  11  11    4.20    2.10
 -27   1  13   39.10    3.40
   1 -13  27   34.10    2.90
  27  -1  13   39.30    3.10
 -13  27   1   39.40    3.10
  27  13   1   41.50    3.40
 -27  13  -1   45.00    3.30
 -13  27  -1   43.70    3.10
 -27  13   1   42.70    3.20
 -27  -1  13   40.20    3.30
  27   1  13   36.00    3.10
  13  27   1   41.90    3.40
  27  13  -1   38.80    3.30
  27 -13   1   40.60    3.60
 -27   3  13  658.73   13.30
  13  27  -3  637.64   12.10
 -13  27   3  626.84   13.20
   3 -13  27  625.94   13.20
 -27  13   3  651.53   13.30
 -13  27  -3  632.34   12.80
  27  13  -3  646.74   12.80
  27   3  13  633.54   13.30
  27 -13   3  646.34   13.80
  13  -3  27  637.34   13.00
  27  -5  13  864.21   16.90
  -5  27 -13  879.31   17.00
 -27  13  -5  875.61   16.80
  -5  27  13  854.11   17.40
 -27  13   5  889.01   16.90
 -13  27  -5  841.32   16.80
  13  -5  27  834.92   16.80
  27  -7  13  319.07    8.20
  -7  27 -13  323.67    8.30
  27  13   7  326.87    8.40
 -27   7  13  330.17    8.00
   7 -13  27  329.37    8.40
 -13  27   7  320.57    8.20
 -13  27  -7  325.57    8.20
 -27  13   7  333.77    8.30
  27   7  13  336.67    8.50
  27 -13   7  310.57    8.50
  -7  27  13  328.37    8.70
  13  -7  27  337.07    8.20
   9 -13  27   11.90    2.40
  27  13   9   11.70    2.50
 -27   9  13    9.60    2.10
  27  -9  13    8.30    2.00
  -9  27 -13   15.30    2.50
 -13  27   9    9.10    2.10
 -27  13   9   11.10    2.10
 -13  27  -9   10.90    2.30
  27   9  13    8.70    2.20
  13  -9  27   10.40    2.20
  -9  27  13   13.00    2.60
  27 -13   9   13.50    2.50
  11 -13  27   41.10    3.20
  27 -11  13   40.40    3.30
 -27  11  13   45.80    3.40
  27  13  11   46.30    3.70
 -13  27  11   38.10    3.20
 -11  27 -13   37.90    3.20
  13 -11  27   41.00    3.50
 -27  13  11   39.70    3.20
 -11  27  13   43.80    3.70
 -13  27 -11   35.80    3.10
  27 -13  11   39.80    3.20
 -13  27 -13   44.10    3.70
  13 -13  27   48.90    3.40
  27 -13  13   46.30    3.80
 -13  27  13   48.40    3.80
 -27  13  13   48.80    3.70
  27  13  13   48.20    4.10
 -15  27   1  250.27    6.90
 -27  15  -1  250.07    6.80
 -27   1  15  250.37    6.90
  27  -1  15  242.58    6.50
  27  15   1  248.78    6.80
  27  15  -1  254.57    6.60
 -27  15   1  250.57    6.80
  15  -1  27  246.48    6.80
 -27  -1  15  238.38    6.70
  15  27   1  255.07    7.30
 -27  15  -3 1201.08   22.30
   3 -15  27 1235.18   22.10
 -15  27   3 1229.68   22.40
  27  15   3 1223.78   21.90
 -27   3  15 1209.88   22.50
  15  27  -3 1198.68   21.00
  27   3  15 1226.38   22.60
  15  -3  27 1187.18   22.30
  27 -15   3 1193.58   23.00
  27  15  -3 1233.58   21.50
   5 -15  27 1934.51   33.00
  27  15   5 1921.61   33.30
 -27  15  -5 1849.81   33.00
 -15  27   5 1893.91   33.30
  27  -5  15 1907.21   33.30
  27   5  15 1908.31   33.50
  15  -5  27 1892.31   33.30
 -27  15   5 1888.61   33.30
 -15  27  -5 1849.42   33.20
 -27   7  15  946.31   17.60
  27  15   7  900.31   17.90
 -15  -7  27  931.51   17.70
   7 -15  27  947.01   17.60
 -15  27   7  905.91   17.40
  27  -7  15  934.51   17.80
  27   7  15  929.61   18.00
  27 -15   7  913.41   18.40
 -15  27  -7  930.61   17.90
  15  -7  27  902.91   17.80
  -7  27  15  928.21   18.40
   9 -15  27  211.18    6.10
 -15  27   9  205.18    6.30
 -15  -9  27  209.78    5.90
 -27   9  15  199.78    6.30
  27  -9  15  195.68    6.20
 -27  15   9  216.88    6.00
  15  -9  27  195.88    6.20
  27   9  15  208.88    6.60
 -15  27  -9  207.48    6.40
 -27  11  15  142.79    5.50
  27 -11  15  157.38    5.10
 -15  27  11  145.19    5.30
  11 -15  27  163.48    5.40
  27  15  11  162.98    6.00
  27  11  15  159.38    5.70
  15 -11  27  145.89    5.40
 -15  27 -11  152.18    5.40
 -11  27  15  152.98    5.90
  27 -15  11  145.09    5.60
 -27  15  11  160.48    5.10
 -27  13  15  403.36    9.70
 -15  27  13  400.06    9.20
  13 -15  27  399.16    9.50
  27 -15  13  384.56    9.40
 -27  15  13  391.36    9.50
  15 -13  27  405.66    9.20
 -13  27  15  411.36    9.90
 -27  15  15  686.13   14.40
  15 -15  27  717.83   14.60
  27  15  15  717.93   14.70
 -15  27  15  700.53   14.40
 -27  17  -1  304.27    7.70
 -27   1  17  304.37    7.90
  27  -1  17  300.57    7.40
  17   1  27  308.27    7.80
 -17  -1  27  306.87    8.50
  17  27  -1  297.17    7.20
  27  17   1  298.37    7.60
 -27  17   1  304.57    7.70
  27   1  17  297.67    7.80
 -27  -1  17  287.97    7.60
  17  27   1  308.77    8.10
  17  -1  27  293.07    7.50
  27  17  -1  290.67    7.20
  27  -3  17 1248.38   23.00
  27  17   3 1303.47   23.00
 -17  27   3 1272.77   23.40
  17  -3  27 1300.67   23.60
 -27  17   3 1311.37   23.60
  27   3  17 1296.77   23.70
 -17  27  -3 1253.67   23.40
 -17  -5  27 1752.72   30.80
  27  -5  17 1744.13   30.50
  27  17   5 1666.33   30.50
  27 -17   5 1709.03   31.10
 -27  17   5 1741.83   30.60
 -17  27   7  734.33   15.00
  27  17   7  781.32   15.40
  27  -7  17  758.02   15.00
  27   7  17  750.32   15.20
  17  -7  27  749.92   15.10
 -17  27  -7  750.62   15.10
 -27   9  17   98.79    4.80
  27  17   9   88.09    4.90
 -17  27   9   96.09    4.10
  27  -9  17   88.79    4.30
 -17  -9  27   88.19    2.80
   9 -17  27   94.29    4.70
 -27  17   9   89.89    4.00
  17  -9  27   89.79    4.30
  27   9  17   96.69    4.60
 -17  27  -9   91.39    4.40
  27 -17   9   93.29    4.90
  11 -17  27  160.68    5.90
  27 -11  17  147.99    5.30
  27  17  11  157.78    6.00
  27 -17  11  161.18    6.00
 -17  11  27  144.09    6.20
 -11  27  17  144.39    5.80
  27  17  13  422.06   10.20
 -27  13  17  445.46   10.30
  27 -13  17  413.06    9.80
  27 -17  13  422.36   10.30
 -17  13  27  431.96   10.80
 -27  17  13  431.36   10.00
  17 -13  27  433.56    9.70
  27  13  17  431.56   10.20
 -13  27  17  425.06   10.40
 -17  27  15  870.41   17.20
  15 -17  27  919.21   17.70
  27 -17  15  909.01   17.50
  17 -15  27  873.31   17.40
 -17  15  27  917.91   18.30
  15 -27  17  913.01   18.50
  27  15  17  906.31   17.60
 -15  27  17  856.31   17.50
 -27  17  15  900.61   17.60
  17 -17  27  934.51   18.20
 -27  19  -1   66.29    3.80
 -19  27   1   63.19    3.40
  27  -1  19   56.19    3.70
 -27   1  19   60.59    4.30
  19  27  -1   58.69    3.10
  19  27  -1   61.49    3.20
  27  19   1   64.99    4.10
 -19  -1  27   61.49    5.00
  19   1  27   59.59    3.60
  19  27   1   67.09    4.80
  27  19  -1   55.89    3.50
  27   1  19   60.79    3.90
 -19  27  -1   57.69    3.50
 -19   1  27   64.99    5.10
  19  -1  27   67.29    3.90
 -27  19   1   62.69    3.80
  27  -3  19  461.25    9.80
 -27  19  -3  455.55   10.10
  19   3  27  445.16   10.00
 -27  19   3  432.56   10.00
  19  -3  27  450.55   10.10
 -19  27  -3  429.86   10.00
 -27   5  19  610.44   12.90
  27  -5  19  619.94   12.40
 -19  27   5  589.34   12.50
 -27  19  -5  616.84   12.40
 -19  -5  27  599.14   12.60
 -19  27  -5  598.94   12.60
  19  -5  27  624.74   12.70
 -27  19   5  592.74   12.60
  27   5  19  599.04   12.80
 -19   5  27  603.34   13.70
 -19  27   7  184.78    5.90
 -19  -7  27  192.48    5.30
  27  -7  19  194.48    6.10
  27  19   7  207.88    6.60
 -27  19  -7  194.18    5.90
 -19   7  27  192.98    7.10
  27 -19   7  194.88    6.60
  27   7  19  184.48    6.10
  19  -7  27  190.48    6.00
 -19  27  -7  193.68    6.00
 -27   9  19   11.00    2.60
 -19  27   9   13.10    2.40
   9 -19  27   11.20    2.80
  27  19   9   12.80    2.90
  27  -9  19   15.60    2.50
 -27  19   9    9.30    2.00
 -19   9  27   11.70    3.10
  -9  27  19   15.20    2.80
  19  -9  27   14.50    2.40
  27 -19   9   13.00    2.80
  27   9  19   13.10    2.60
 -19  27  -9   14.70    2.50
  11 -19  27    2.50    2.60
 -19  27  11    1.50    1.90
  27 -11  19    2.70    2.20
 -27  11  19    0.90    2.40
  27  19  11    1.80    2.60
 -19  11  27    0.30    2.80
  11 -27  19    2.80    2.90
 -19  27 -11    0.60    2.10
 -11  27  19    1.10    2.30
 -27  19  11    1.00    1.90
  27 -19  11    2.40    2.60
  19 -11  27    1.00    1.80
  27  11  19    1.90    2.40
  27  19  13  176.08    6.30
 -27  13  19  174.68    6.40
  13 -19  27  174.48    6.40
 -19  27  13  168.48    5.60
  27 -13  19  185.98    5.60
  13 -27  19  181.98    7.20
  27  13  19  169.68    6.10
 -13  27  19  167.88    6.50
 -27  19  13  169.68    5.90
  27 -19  13  174.78    6.40
 -19  13  27  186.58    7.20
  15 -19  27  614.74   13.00
  19 -15  27  612.54   12.90
 -27  19  15  602.94   12.90
  27  15  19  620.24   12.90
  27 -19  15  603.54   13.20
 -21  -1  27   37.60    3.70
  27  21   1   45.90    3.40
 -21  27   1   45.30    3.30
 -27   1  21   48.60    3.50
  27  -1  21   49.10    3.70
  21   1  27   44.20    3.50
 -27  21  -1   46.50    3.50
  27  21  -1   45.40    2.80
  21  27   1   41.70    3.10
 -27  -1  21   36.70    3.40
  27   1  21   41.40    3.50
 -21  27  -1   43.10    3.40
  21  -1  27   40.00    3.40
 -27  21   1   45.60    3.50
  21   3  27   11.80    2.30
 -21  27   3    9.80    2.00
  27  21   3    9.50    2.40
  27  -3  21   12.90    2.10
  21  -3  27   11.10    2.30
 -27  -3  21   12.70    2.70
  27   3  21   12.00    2.50
 -21  27  -3    8.20    2.20
 -27  21   3   12.70    2.30
 -21   3  27   17.40    3.40
  27  -5  21  108.79    4.30
 -21  27   5  107.59    4.50
 -21  -5  27  115.29    5.00
 -27   5  21  122.99    5.60
  21   5  27  113.79    4.60
 -27  21  -5  109.39    4.50
 -21   5  27  116.29    6.00
  21  -5  27  119.09    4.80
  27   5  21  122.99    4.90
 -27  21   5  114.99    4.70
 -21  27  -5  118.69    4.70
  21   7  27   33.40    3.10
 -21  27   7   38.00    3.10
 -27   7  21   27.40    3.30
 -27  21  -7   34.60    3.00
 -27  21   7   33.70    2.90
 -21   7  27   43.20    4.20
 -21  27  -7   34.80    3.10
  21  -7  27   32.30    3.00
  27   7  21   32.70    3.10
 -21  27   9   30.20    2.90
  27  21   9   24.40    3.30
  27  -9  21   25.00    2.80
 -27   9  21   28.90    3.40
 -27  21   9   27.20    2.60
 -21  27  11  101.69    4.70
  27 -11  21   91.29    4.60
  11 -21  27  101.99    5.40
  27  21  11   98.29    5.50
 -21  27 -11   95.59    4.60
 -27  21  11  106.29    4.40
  27 -21  11   91.89    5.10
 -11  27  21  104.29    5.30
  21 -11  27  102.89    4.30
  27  11  21  100.49    5.00
 -27  23  -1   80.09    4.10
  27  -1  23   83.49    4.30
 -23  -1  27   79.99    5.40
 -27   1  23   86.49    4.80
  23   1  27   86.39    4.30
 -23  27   1   75.79    4.20
  23  27   1   86.09    4.60
  23  -1  27   89.69    4.30
 -23  27  -1   82.79    4.20
 -27  23   1   90.59    4.30
  23  27   1   78.89    5.20
 -23   1  27   76.09    5.30
 -27  23  -3   14.10    2.50
  23   3  27   13.20    2.50
  27  23   3   12.60    2.80
 -23  27   3    8.10    2.00
 -23  -3  27    8.50    3.10
 -27   3  23    9.40    2.90
  27  -3  23   10.50    2.10
 -23   3  27   12.60    3.30
  23  27   3    8.50    2.80
 -23  27  -3   13.60    2.40
 -27  23   3    9.90    2.30
 -27  -3  23    7.80    2.80
  27   3  23    7.00    2.40
 -27   5  23  163.68    6.50
 -23  -5  27  154.78    5.50
 -23  27   5  158.68    5.00
  27  -5  23  160.48    5.20
  23   5  27  167.58    5.60
  27  23   5  159.08    6.50
 -27  23  -5  164.88    5.40
  23  -5  27  162.88    5.50
  27   5  23  165.48    5.70
 -23  27  -5  164.58    5.70
 -23   5  27  160.38    6.60
 -27  23   5  167.68    5.60
  23  27   5  165.88    6.30
 -27   7  23   68.39    5.00
  27  -7  23   59.09    3.80
 -27  23  -7   51.49    4.00
  23   7  27   57.19    3.80
 -23  27  -7   53.29    3.90
  27   7  23   62.49    4.20
  23  -7  27   61.09    3.60
 -27  23   7   59.89    3.70
   0  28   0  531.55   11.50
  28   0   0  513.75   11.70
  -2  28   0   45.30    3.20
   2  28   0   41.70    3.20
  28   0  -2   44.00    3.60
  28   0   2   37.10    3.00
  28  -2   0   40.10    3.50
  28   2   0   42.00    3.50
   0  28  -2   45.70    3.30
   0  28   2   47.40    3.50
  28   2   2   36.60    3.10
  28   2  -2   35.00    3.40
  -2  28  -2   34.20    3.00
  -2  28   2   38.70    3.00
   2  28  -2   35.70    2.80
   2  28   2   27.90    2.90
  28  -2  -2   36.00    3.30
  28  -2   2   29.50    2.70
   4  28   0  200.88    6.00
   0  28   4  215.08    6.80
  28  -4   0  209.68    6.80
  28   4   0  207.38    6.10
   0  28  -4  216.88    6.20
  -4  28   0  220.28    6.00
  28   0   4  210.38    6.30
   2  28   4  512.55   11.80
  28  -2   4  512.05   11.50
  28   4   2  511.55   11.30
  28   2  -4  519.65   11.70
  -4  28   2  517.75   11.40
  28  -4  -2  510.35   11.80
  28  -4   2  522.55   11.70
   4  28   2  508.85   11.60
  -2  28   4  522.85   11.60
  -4  28  -4 1055.39   20.00
 -28   4   4 1096.29   19.90
  28   4   4 1068.59   20.30
   4  28  -4 1081.69   19.90
  28   4  -4 1052.99   20.40
  -4  28   4 1053.99   20.20
   0  28   6  164.28    5.90
  28   0   6  152.78    5.50
  -6  28   0  152.98    5.30
  -2  28  -6  425.66    9.30
 -28   2   6  413.56    9.50
   6  28  -2  435.06    9.60
   2  28   6  410.96   10.10
  -6  28   2  408.16    9.70
  28  -6  -2  400.76   10.20
  28  -2   6  419.46    9.50
   2  28  -6  426.36    9.10
   6  28   2  413.36   10.20
  -2  28   6  427.86   10.30
  28   2   6  413.46    9.80
  -6  28  -2  426.36    9.70
  28   6  -2  419.36    9.90
  28   6   4 1421.46   25.50
  -4  28  -6 1401.66   24.90
  28  -4   6 1394.66   25.60
 -28   4   6 1364.96   25.30
   6  28  -4 1385.46   24.90
  -4  28   6 1422.26   25.90
  28   4   6 1368.16   25.40
   6  28   4 1398.66   25.90
  28   6  -4 1388.86   25.50
 -28   6   4 1419.66   25.40
 -28   6   6 1541.45   27.60
  -6  28   6 1551.74   27.70
  28  -6   6 1507.85   27.60
   6  28  -6 1505.45   26.50
   6  -6  28 1498.15   27.50
  28   6   6 1557.54   27.60
   8  28   0   31.20    3.00
   0  -8  28   28.30    2.80
  -8  28   0   27.20    2.80
  28  -8   0   32.70    3.30
  28   0   8   24.70    2.70
   0  28   8   22.10    2.90
 -28   8   0   31.10    2.70
   0  28  -8   27.60    2.70
  28   8   0   26.80    2.60
 -28   2   8   39.50    3.20
  -8  28   2   32.10    2.70
  28  -2   8   36.80    3.10
   8  28  -2   30.40    2.70
   2  -8  28   33.90    2.90
  -2  28  -8   29.60    2.80
  28   8   2   35.20    3.00
  -2  28   8   34.60    3.30
   2  28  -8   29.00    2.60
  28  -8   2   37.20    3.50
 -28   8   2   38.00    3.10
   8  28   2   30.70    3.10
  -8  28  -2   38.80    3.10
   8  28  -4  535.65   11.20
 -28   4   8  535.65   11.80
  28   8   4  547.35   11.80
  -4  28  -8  554.94   11.80
  -8  28   4  546.55   11.90
   4  28  -8  550.14   11.30
  -4  28   8  558.74   12.50
 -28   8   4  546.95   11.90
  -8  28  -4  543.75   11.40
  28   8  -4  563.74   11.90
  28  -8   4  542.25   12.20
  28   4   8  546.45   11.90
 -28   6   8  964.40   18.70
  28   8   6 1001.60   18.70
  -8  28   6 1000.30   18.60
  -6  28  -8  977.40   18.80
   6  -8  28  973.20   18.80
  28   6   8  956.70   18.40
   6  28  -8  981.80   18.00
  28  -8   6  955.70   18.80
  -6  28   8  987.70   19.30
  -8  28  -6  993.30   18.80
   8  -6  28 1000.70   18.50
  -8  28   8  241.38    7.10
  28   8   8  253.77    6.80
  28  -8   8  253.87    7.20
   8  28  -8  250.07    6.00
 -28   8   8  248.48    7.00
   8  -8  28  243.78    6.90
  -8  28  -8  253.47    7.10
  28  10   0  167.78    5.60
   0 -10  28  164.18    5.50
  10  28   0  163.98    5.80
  28 -10   0  174.98    6.30
 -28  10   0  170.98    5.50
 -10  28   0  173.58    5.60
   0  28 -10  171.48    5.50
  28   0  10  167.28    5.60
 -28  10  -2   15.80    2.30
 -10  28   2   17.20    2.50
 -28   2  10   13.20    2.20
  28  10   2   11.80    2.30
   2 -10  28   12.20    2.30
  -2  28 -10   15.00    2.50
  28  -2  10   14.40    2.40
  10  28  -2   13.50    2.20
  10  28   2   13.30    2.60
  -2  28  10   13.80    2.70
  -2 -10  28   10.80    2.10
 -10  28  -2   12.40    2.20
  28   2  10   11.30    2.20
   2  28 -10   12.90    2.20
  28  10  -2   14.40    2.50
 -28  10   2   11.60    2.10
  28 -10   2   15.10    2.70
   4 -10  28  140.39    5.30
 -28   4  10  158.38    5.50
  28  10   4  160.18    5.50
  28  -4  10  152.48    5.50
  -4  28 -10  155.28    5.40
 -10  28   4  141.39    5.10
  10  28  -4  155.08    4.80
  28 -10   4  150.38    5.80
  28  10  -4  151.18    5.40
  10  -4  28  144.49    5.20
  28   4  10  159.78    5.20
  -4  28  10  150.18    5.70
 -10  28   6  224.28    6.70
  -6  28 -10  234.58    6.70
   6 -10  28  219.78    6.50
  10  28  -6  226.28    5.70
  28  10   6  237.68    6.40
 -28   6  10  227.38    6.80
  10  -6  28  227.28    6.50
  28 -10   6  232.48    7.00
  -6  28  10  225.08    7.10
 -28  10   6  244.48    6.90
  28   6  10  243.98    6.50
  28  -8  10   -0.40    1.90
  28  10   8    4.20    2.00
  -8  28 -10    0.30    1.90
 -28   8  10    5.40    2.10
   8 -10  28    3.20    1.90
 -10  28   8    4.10    1.80
  28   8  10    3.10    2.10
 -10  28  -8    2.20    2.00
 -28  10   8    0.70    1.80
  -8 -10  28   -0.10    1.60
  -8  28  10    1.80    2.10
  10  -8  28    3.10    1.90
  28 -10   8    3.10    1.90
 -28  10  10  159.08    5.50
  28  10  10  166.78    5.80
  28 -10  10  158.38    5.60
 -10  28  10  157.38    5.60
 -10  28 -10  151.18    5.50
  10 -10  28  155.98    5.40
 -28   0  12   27.10    2.60
   0  28 -12   35.00    2.90
 -12  28   0   32.60    3.00
  12  28   0   31.10    3.10
  28   0  12   34.00    2.90
 -28  12   0   36.60    3.10
 -12  28   2   28.30    2.80
  12  28  -2   32.70    2.80
  28  -2  12   32.80    3.00
 -28  12  -2   30.40    2.60
  -2  28 -12   27.10    2.70
  28  12   2   26.50    2.70
   2 -12  28   31.40    2.90
  12  28   2   26.80    3.10
 -28  12   2   32.60    2.90
  28   2  12   30.70    2.80
  28 -12   2   30.70    3.20
  28  12  -2   32.70    3.00
 -28  12  -4  420.46    9.70
  -4  28 -12  445.36    9.70
  12  28  -4  419.76    8.90
 -28   4  12  429.06    9.90
  28  -4  12  438.96   10.00
  28  12   4  417.06    9.80
  12  -4  28  430.16    9.50
 -28  12   4  414.26    9.80
  -4  28  12  434.66   10.40
  12  28  -6  304.67    6.10
  28  12   6  306.37    7.70
   6 -12  28  306.27    8.00
  28  -6  12  296.47    7.90
 -12  28   6  293.47    7.70
 -28   6  12  311.17    8.00
 -28  12   6  307.77    7.90
 -12  28  -6  303.47    7.80
  28 -12   6  292.77    8.30
  -6  28  12  314.77    8.50
  12  -6  28  298.67    7.90
  28   6  12  294.97    8.00
  28  -8  12   16.90    2.30
  28  12   8   14.50    2.60
 -28   8  12   19.50    2.70
  -8  28 -12   18.40    2.50
 -12  28   8   14.60    2.40
  12  -8  28   14.60    2.40
 -12  28  -8   15.50    2.60
  28   8  12   14.10    2.50
  -8  28  12   14.20    2.60
 -28  12   8   14.00    2.40
  28 -12   8   10.80    2.50
 -28  10  12   11.60    2.10
 -10  28 -12   12.00    2.30
  10 -12  28   15.20    2.40
 -12  28  10   17.40    2.40
  28 -10  12   14.10    2.50
  28  12  10   13.20    2.60
  12 -10  28   16.40    2.60
  28  10  12   15.80    2.70
 -12  28 -10   15.70    2.60
 -10  28  12   13.50    2.70
  28 -12  10   12.50    2.40
 -28  12  10   12.40    2.30
 -12 -12  28   -0.20    1.40
 -28  12  12    0.80    1.80
 -12  28 -12   -0.90    1.80
  28 -12  12    0.80    1.90
  28  12  12    1.00    2.30
 -12  28  12    0.60    2.10
  12 -12  28    0.90    1.90
 -28   0  14    9.60    2.20
  28   0  14   11.20    2.00
  28  14   0   11.70    2.30
  14  28   0   10.80    2.60
 -28  14   0   14.30    2.40
 -14  28   0   11.30    2.10
 -14  28   2  211.08    6.20
 -28  14  -2  205.48    6.10
  14  28  -2  209.98    5.90
  28  14   2  203.98    6.30
 -28   2  14  220.48    6.50
  28  -2  14  211.08    6.30
 -28  -2  14  210.38    6.10
  14  28   2  220.38    7.00
 -14  28  -2  204.38    5.80
 -28  14   2  215.88    6.30
  14  -2  28  209.68    6.10
  28 -14   2  210.78    6.90
  28   2  14  218.78    6.20
  28  -4  14  983.10   18.60
  14  28  -4  965.60   16.70
   4 -14  28  956.00   18.50
  28  14   4  985.20   18.30
 -28   4  14  988.60   18.70
  14  -4  28  971.60   18.50
 -28  14   4  954.30   18.50
  28 -14   4  963.70   19.10
 -28   6  14  922.71   18.00
 -14  28   6  960.20   17.60
  14  -6  28  915.11   17.90
  -6  28  14  930.11   18.50
 -14  28  -6  920.71   17.90
  28   6  14  917.11   18.10
 -28   8  14  246.98    6.70
  28  -8  14  235.58    6.80
   8 -14  28  235.48    6.60
  28  14   8  254.67    7.30
 -14  28   8  231.18    6.70
  28   8  14  245.08    7.10
  -8  28  14  246.48    7.30
  14  -8  28  250.77    6.90
  28 -14   8  241.88    7.40
 -14  28  -8  235.28    6.80
  28  14  10   22.50    3.00
  28 -10  14   19.30    2.50
  10 -14  28   22.20    2.50
 -14 -10  28   19.80    2.50
 -14  28  10   17.20    2.50
 -14  28 -10   28.10    3.00
  28 -14  10   25.60    3.00
  14 -10  28   27.00    2.80
  28  10  14   26.30    3.10
  28 -12  14   35.80    3.20
 -14  28  12   37.00    3.00
  12 -14  28   37.20    3.10
  28  14  12   38.90    3.60
 -28  12  14   28.80    2.70
  28  12  14   35.60    3.40
 -12  28  14   29.20    3.10
  14 -12  28   37.30    3.00
 -28  14  12   37.80    3.00
 -14  28 -12   31.80    3.10
  14 -14  28  219.08    6.30
  28  14  14  226.38    7.00
  28 -14  14  231.68    6.50
 -28  14  14  229.18    6.70
 -28   0  16   87.89    4.50
  16   0  28   98.29    4.30
  28   0  16   91.49    4.00
  16  28   0   94.49    4.90
  28  16   0   84.49    4.40
 -16  28   0   92.59    3.90
 -28  16   0   93.89    4.30
 -28  16  -2  277.27    7.30
  16  28  -2  279.77    6.30
 -28   2  16  262.37    7.50
  28  16   2  262.97    7.30
 -16  28   2  277.37    7.30
  28  -2  16  272.87    6.90
  28  16  -2  280.37    7.20
  16  -2  28  261.37    7.10
 -28  16   2  266.97    7.20
 -16  28  -2  273.07    6.90
 -16  28   4 1276.47   23.00
  16  -4  28 1218.28   23.00
  28 -16   4 1220.68   23.50
  28   4  16 1269.57   23.30
 -16  28  -4 1277.07   23.10
 -16  28   6 1177.28   21.80
  28  -6  16 1161.58   21.70
 -28   6  16 1173.58   21.60
 -28  16   6 1146.79   21.70
  -6  28  16 1179.48   22.40
  16  -6  28 1168.28   21.70
  28   6  16 1179.08   21.90
  28  -8  16  350.46    8.60
   8 -16  28  337.77    8.80
 -16  -8  28  353.76    8.50
 -28   8  16  369.06    8.60
  28  16   8  361.16    9.10
  28 -16   8  344.07    9.20
  16  -8  28  344.67    8.60
  -8  28  16  367.86    9.20
 -16  28  -8  349.37    8.70
  28   8  16  349.17    8.80
 -16  28  10   43.20    3.30
  28  16  10   40.50    3.60
  28 -10  16   33.00    3.00
  16 -10  28   38.00    3.20
 -28  16  10   36.90    3.00
  28  10  16   38.80    3.40
 -16  28 -10   31.80    3.00
 -10  28  16   37.70    3.50
  28 -12  16  157.08    5.50
 -16  28  12  147.49    5.50
  28  16  12  166.38    6.10
  12 -16  28  164.28    5.90
 -12  28  16  159.38    6.10
  28 -16  12  150.08    5.80
  16 -12  28  158.18    5.20
  28  12  16  155.18    5.80
 -28  16  12  146.59    5.10
 -16  28 -12  151.08    5.60
  28 -14  16  389.16    9.40
 -16  28  14  383.86    9.20
 -28  14  16  397.36    9.70
 -28  16  14  398.76    9.40
  16 -14  28  396.46    9.40
  28 -16  14  384.86    9.50
 -14  28  16  406.16    9.70
  28  14  16  391.66    9.70
  28  16  16  708.43   14.60
  28 -16  16  683.43   13.90
 -28  18   0  242.28    6.70
 -18  28   0  243.58    6.40
  28  18   0  233.98    6.70
  18   0  28  239.38    6.70
 -18   0  28  247.48    7.90
 -28   2  18  570.14   12.20
 -18  -2  28  543.35   12.70
 -28  18  -2  552.64   11.80
  18   2  28  555.24   11.80
  18  28  -2  568.54   10.10
 -18  28   2  576.74   11.50
  18  28  -2  546.45   10.00
 -18  28  -2  539.05   11.70
 -18   2  28  552.04   12.70
 -28  18   2  541.65   11.80
 -18  28   4 1280.07   23.30
 -28  18  -4 1282.97   23.10
  18  -4  28 1256.67   23.30
 -18   4  28 1273.07   24.30
  28   4  18 1279.47   23.50
 -18  28   6 1048.90   19.90
  28  -6  18 1076.09   20.10
 -28  18  -6 1046.10   19.90
 -28  18   6 1094.09   20.20
 -18   6  28 1100.59   21.10
  28 -18   6 1091.89   20.70
 -18  28  -6 1054.99   20.00
  18  -6  28 1060.79   20.10
 -18  -8  28  338.27    7.00
  28  -8  18  326.07    8.30
  -8 -18  28  335.87    7.20
 -18   8  28  346.47    9.50
  18  -8  28  343.97    8.40
  28   8  18  348.67    8.70
 -18  28  -8  340.87    8.60
  28 -18   8  327.47    8.80
 -28  10  18   54.89    4.30
  10 -18  28   59.99    4.50
 -18  28  10   53.39    3.60
  28 -10  18   58.69    4.00
 -18  28 -10   55.89    3.80
  28  10  18   55.39    4.10
 -10  28  18   51.39    4.30
 -28  18  10   56.59    3.70
  28 -18  10   56.59    4.40
  18 -10  28   59.09    3.70
 -28  12  18  166.28    6.00
  12 -18  28  158.68    6.10
  28  18  12  168.88    6.40
 -18  12  28  165.08    6.60
 -18  28 -12  157.68    5.80
  18 -12  28  159.28    5.20
  28  12  18  165.88    5.90
 -28  18  12  161.28    5.40
 -12  28  18  158.78    6.10
  28 -18  12  168.68    6.40
 -18  28  14  585.94   13.40
  28  18  14  603.64   12.90
 -28  18  14  573.14   12.50
 -14  28  18  601.14   13.50
  28  14  18  586.94   12.70
  18 -14  28  591.84   12.60
 -20   0  28    1.10    2.90
  28   0  20    2.20    2.00
 -28   0  20    1.90    2.70
  20   0  28    1.20    2.00
  20  28   0    1.60    2.40
 -20  28   0    2.10    1.90
   0 -20  28   -0.10    2.70
  28  20   0    2.90    2.30
  20  28   0    1.80    2.10
 -28  20   0   -0.30    1.90
  28  20   2   -0.60    2.50
   2 -20  28    1.10    2.60
 -20  -2  28    1.40    2.80
 -28  20  -2   -0.50    1.90
  20   2  28    1.80    1.90
 -28   2  20    0.10    2.40
  28  -2  20   -0.70    1.70
 -20  28   2    1.00    1.70
 -20  28  -2    3.20    2.00
  -2 -20  28   -2.60    2.40
  20  -2  28    0.10    2.00
  28   2  20    1.50    2.10
 -28  20   2    1.50    2.00
 -20   2  28    0.50    2.90
 -28  -2  20    2.20    2.50
  28  20   4  146.59    5.40
  20   4  28  143.19    5.10
 -20  -4  28  144.69    6.00
 -20  28   4  148.09    5.00
  20  -4  28  150.38    5.30
 -28  20   4  139.89    5.20
 -20   4  28  146.09    6.80
 -20  28  -4  143.09    5.20
  28   4  20  145.29    5.40
  -4 -20  28  140.09    6.20
 -20  28   6  137.49    5.00
 -20  -6  28  133.29    5.20
 -28  20  -6  127.09    4.80
  28  -6  20  132.99    5.00
  28  20   6  136.59    5.90
  20  -6  28  128.69    5.00
 -28  20   6  130.09    5.10
  -6 -20  28  127.39    5.40
  28   6  20  139.49    5.30
 -20  28  -6  136.89    5.20
  28  20   8   11.10    3.10
 -20  28   8   10.40    2.30
 -28   8  20    8.20    2.70
  28  -8  20   10.50    2.40
  28   8  20    5.30    2.40
  28 -20   8    9.20    2.80
 -20  28  -8    8.20    2.40
  20  -8  28   10.20    2.40
 -20   8  28   11.10    3.60
  -8  28  20    8.20    2.70
 -28  20   8   13.50    2.30
  28 -10  20   49.80    3.90
 -20  28  10   51.99    3.80
  28  20  10   57.29    4.90
  10 -20  28   56.79    4.30
  28  10  20   56.79    4.40
 -10  28  20   53.09    4.50
 -28  20  10   49.50    3.50
 -20  28 -10   49.90    3.70
  28 -20  10   59.39    4.60
  20 -10  28   49.80    3.50
 -22  28   0   87.59    4.30
 -28  22   0   87.89    4.30
  22  28   0   82.19    3.50
  28   0  22   83.69    4.40
   0 -22  28   76.19    6.00
  28  22   0   84.59    4.20
  22  28   0   85.59    3.00
 -28   0  22   84.09    5.40
  22   0  28   85.89    4.30
  22   2  28   48.90    3.70
 -22  -2  28   50.89    3.90
  28  -2  22   47.20    3.40
  28  22   2   53.29    4.00
 -28  22  -2   43.90    3.70
 -22   2  28   40.40    3.80
 -22  28  -2   48.60    3.80
 -28  22   2   52.79    3.90
  28   2  22   48.30    3.90
  22  -2  28   46.40    3.80
  28  -4  22   23.80    2.50
  22   4  28   29.20    2.90
 -22  28   4   27.60    2.60
 -28  22  -4   25.60    2.70
  28  22   4   24.50    3.10
 -22  -4  28   24.80    3.40
 -28  22   4   29.50    3.00
 -22  28  -4   27.00    2.80
  28   4  22   29.40    3.10
  22  -4  28   26.20    2.80
 -22   4  28   22.90    3.60
 -22  28   6   84.19    4.20
  28  -6  22   78.39    4.10
 -28  22  -6   74.89    4.00
 -22  -6  28   85.09    4.10
  22   6  28   85.49    4.20
  28   6  22   85.09    4.70
 -22  28  -6   79.49    4.30
  22  -6  28   77.69    4.40
 -28  22   6   81.79    4.20
  -1  29   1  540.45   12.10
   1  29  -1  546.95   11.70
  29  -1  -1  580.74   12.80
  29   1  -1  562.54   12.60
  29   3   1    0.60    1.80
  -3  29   1   -0.50    1.80
   3  29  -1    1.50    2.00
  29   1  -3   -1.60    2.10
   1  29   3    0.20    2.00
  29  -1   3   -1.20    1.70
  29  -3  -1    0.10    2.10
  -1  29  -3   -0.40    1.80
   3  29   1    0.00    1.70
  29   1   3    0.90    1.90
  29   3  -1   -0.40    2.10
  29  -1  -3    2.80    2.30
  29  -3   1   -0.50    2.10
  -1  29   3   -0.10    1.90
   1  29  -3    0.80    1.80
  -3  29  -1    0.30    1.80
   3  29   3  279.87    8.00
  29  -3   3  281.57    7.70
   3  29  -3  286.87    7.50
  -3  29  -3  295.37    7.60
  29   3   3  279.07    7.60
  -5  29   1   81.09    3.90
   5  29  -1   82.39    4.30
  -1  29  -5   84.39    3.80
   1  29   5   81.99    4.60
  29  -1   5   79.19    4.30
  29   5   1   76.09    4.20
  29  -5  -1   76.09    4.60
   1  29  -5   89.49    3.90
  29   1   5   86.99    4.00
   5  29   1   81.09    4.40
  -1  29   5   84.59    4.70
  29  -5   1   85.39    4.90
  29   5  -1   81.69    4.50
  29  -3   5  541.95   12.20
  29   5   3  544.85   11.80
  -3  29  -5  571.54   11.60
 -29   3   5  562.64   12.00
   3  29   5  559.34   12.60
  -5  29   3  574.44   12.20
  29   3   5  574.54   12.30
  -3  29   5  556.64   12.30
   5  29   3  568.44   12.70
  -5  29  -3  556.24   12.00
  29  -5   3  549.74   12.40
 -29   5   3  572.34   12.00
  29   5  -3  550.14   12.30
 -29   5   5 1072.79   20.40
   5  29   5 1085.69   21.20
  -5  29  -5 1106.89   20.20
  29   5   5 1117.79   20.90
  -1  29  -7    1.10    1.90
  -7  29   1   -0.40    1.60
  29  -7  -1   -0.50    2.20
   1  29   7    0.30    2.00
   7  29  -1    0.70    1.90
  29   7   1    1.10    2.00
  29  -1   7    0.00    1.90
   7  29   1    1.50    2.10
  29   7  -1    0.40    2.00
  -1  29   7   -0.10    2.00
  -7  29  -1    1.10    1.80
  29  -7   1   -0.60    2.20
   1  29  -7    0.70    1.90
 -29   7   1    0.30    1.70
  29   1   7    0.40    2.00
   7  29  -3  313.47    7.80
  29  -3   7  294.17    7.80
   3  -7  29  312.07    7.90
   3  29   7  311.77    8.60
  -3  29  -7  316.27    8.00
  -7  29   3  302.57    8.00
  -3  29   7  323.07    8.60
   3  29  -7  302.37    7.70
  29  -7   3  291.67    8.30
  -7  29  -3  304.37    7.80
  29   7  -3  301.57    8.20
  29   3   7  321.17    8.20
 -29   7   3  311.17    7.80
   7  29   3  302.57    8.50
   5  -7  29 1004.70   19.10
 -29   5   7 1019.30   19.40
  -5  29  -7 1033.60   19.30
  29  -5   7  980.30   19.40
   7  29  -5 1022.50   18.40
  -5  29   7 1008.50   19.70
  29   5   7 1039.80   19.50
  -7  29  -5  995.50   18.80
   7  29   5 1024.10   19.90
 -29   7   5 1005.70   19.30
  29  -7   5 1027.40   19.60
   5  29  -7  980.50   18.70
   7  29  -7  813.92   15.40
   7  -7  29  819.62   16.00
  -9  29   1  133.89    5.20
   1  -9  29  132.49    5.00
  29  -1   9  133.19    5.10
  29   9   1  129.99    5.20
 -29   9  -1  131.99    5.00
   9  29  -1  123.79    4.90
  -1  29  -9  131.19    5.00
  -1  -9  29  140.39    4.80
   1  29  -9  134.59    5.00
  -9  29  -1  134.19    5.10
  -1  29   9  136.49    5.60
  29  -9   1  136.89    5.50
  29   9  -1  127.09    5.20
   3  -9  29   25.40    2.70
 -29   3   9   25.00    2.70
  29   9   3   25.20    2.90
  29  -3   9   19.80    2.60
  -3  29  -9   28.90    3.00
  -9  29   3   26.80    2.50
  29   9  -3   25.70    3.00
   9  29   3   27.70    3.30
  -3  29   9   28.50    3.30
  29  -9   3   24.80    3.20
  -9  29  -3   24.90    2.50
 -29   9   3   24.70    2.70
  29   3   9   24.20    2.80
   3  29  -9   23.00    2.60
   5  -9  29  366.66    9.00
  29   9   5  365.36    9.00
 -29   5   9  370.66    9.00
   9  29  -5  362.06    7.90
  -5  29  -9  367.76    9.00
  -9  29   5  352.96    9.00
  29   5   9  384.16    9.00
  -5  29   9  373.06    9.50
  -9  29  -5  376.56    8.70
   9  -5  29  366.66    8.80
  29  -9   5  352.16    9.30
 -29   7   9  324.67    8.30
   9  29  -7  313.27    7.10
  -7  29  -9  308.47    8.10
  29  -9   7  302.27    8.10
   7  29  -9  300.27    6.90
 -29   9   7  307.47    8.00
   9  -7  29  310.47    8.00
  -9  29  -7  309.37    8.10
  -7  29   9  320.57    8.50
  -9  29   9    4.60    2.00
  -9  29  -9    2.60    2.10
  29  -9   9    4.20    2.00
  29   9   9    5.20    2.10
   9  -9  29    6.20    2.20
 -29   9   9    4.10    2.00
 -11  29   1  333.37    8.30
  29  11   1  323.47    8.20
   1 -11  29  329.57    8.30
  -1  29 -11  327.87    8.20
  29  11  -1  330.87    8.30
  29 -11   1  334.17    8.90
  29   1  11  338.97    8.60
  11  29   1  338.27    8.90
   1  29 -11  344.77    8.00
 -11  29  -1  327.77    8.30
 -29  11   1  340.37    8.40
   3 -11  29    4.10    2.00
  29  -3  11    4.00    2.10
  -3  29 -11    4.60    2.10
  11  29  -3    4.10    2.00
 -11  29   3    2.60    2.00
 -29   3  11    2.90    2.10
  29  11   3    1.90    2.10
  11  -3  29    3.10    1.90
  29   3  11    3.40    1.90
  11  29   3    0.90    2.30
  29  11  -3    3.50    2.30
   3  29 -11    2.60    1.90
 -29  11   3    2.20    1.90
 -11  29  -3    1.80    1.70
  -3  29  11    4.70    2.40
  29 -11   3    2.80    2.40
 -29   5  11   70.49    4.10
  -5  29 -11   68.29    4.20
   5 -11  29   65.59    4.00
  29  11   5   62.29    4.20
  29  -5  11   61.79    3.90
  11  29  -5   61.89    3.00
 -11  29   5   62.39    3.70
  11  -5  29   65.79    3.70
  29 -11   5   63.59    4.40
 -11  29  -5   60.19    3.70
  29   5  11   69.99    3.90
  -5  29  11   67.79    4.50
 -29  11   5   69.39    3.80
  11  29  -7    2.60    1.20
   7 -11  29    4.70    2.20
 -11  29   7    4.10    2.00
  -7  29 -11    5.50    2.40
  29  11   7    5.20    2.00
 -29   7  11    7.80    2.40
  29  -7  11    5.90    2.00
 -11  29  -7    1.40    2.10
  29   7  11    4.20    2.00
 -29  11   7    4.60    2.10
  29 -11   7    1.70    2.20
  11  -7  29    3.10    2.00
  -7  29  11    4.60    2.40
  -7 -11  29    0.20    1.90
 -11  29   9  113.69    4.50
  -9  29 -11  120.29    4.90
   9 -11  29  114.99    4.90
  29  11   9  105.69    4.90
  29  -9  11  113.99    5.00
 -29   9  11  116.79    4.90
  -9  29  11  110.89    5.00
  11  -9  29  114.29    4.70
 -29  11   9  109.69    4.90
  29 -11   9  113.59    5.00
  29   9  11  117.89    5.20
 -11  29  -9  117.79    5.00
  11 -11  29  290.87    7.90
  29  11  11  305.67    8.20
 -11  29 -11  300.37    7.90
 -11  29  11  304.67    8.00
 -29  11  11  299.97    8.00
 -29   1  13   77.49    4.30
  29  13   1   76.19    4.10
 -13  29   1   70.99    3.90
 -29  13  -1   68.79    3.70
  13  29  -1   65.69    3.90
  29  -1  13   77.49    4.30
  13  29   1   75.39    4.80
  29  13  -1   74.39    4.30
  29   1  13   80.49    3.90
 -29  -1  13   68.09    4.00
 -29  13   1   69.39    3.90
 -29  13  -3   95.79    4.20
  29  -3  13   84.39    4.40
   3 -13  29   85.49    4.50
 -29   3  13   91.89    4.50
 -13  29   3   84.89    4.30
  29  13   3   88.39    4.60
  13  29   3   91.59    5.20
  29 -13   3   90.59    4.80
  29  13  -3   81.49    4.60
 -29  13   3   89.49    4.30
  -3  29  13   94.69    4.90
  13  -3  29   95.49    4.10
  29   3  13   88.49    4.00
  29  -5  13  337.47    8.50
 -29   5  13  341.17    8.60
   5 -13  29  336.17    8.60
  29  13   5  336.17    8.40
  13  -5  29  346.67    8.50
  -5  29  13  334.17    8.90
  29 -13   5  321.07    8.90
 -29  13   5  334.17    8.40
 -13  29  -5  324.57    8.30
  29  13   7  122.79    4.90
 -29   7  13  130.89    5.20
  29  -7  13  113.39    4.70
 -13  29   7  118.39    4.80
   7 -13  29  122.09    5.10
 -29  13   7  118.39    4.90
 -13  29  -7  110.59    4.70
  13  -7  29  116.29    4.70
  29   7  13  131.09    5.40
  29 -13   7  109.69    5.30
  -7  29  13  125.49    5.40
   9 -13  29    7.90    2.40
  -9  29 -13    5.20    2.30
 -13  29   9    8.30    2.30
 -29   9  13    8.20    2.50
  29  13   9    6.20    2.50
  29  -9  13    4.90    2.20
  13  -9  29    5.90    2.20
  -9  29  13    6.90    2.40
  29 -13   9    3.30    2.40
 -29  13   9    5.40    2.30
 -13  29  -9    6.70    2.30
  29   9  13    5.10    2.30
  11 -13  29   66.09    3.90
 -29  11  13   65.29    4.00
  29 -11  13   56.99    4.10
  29  13  11   69.39    4.70
 -11  29 -13   66.99    4.50
 -13  29  11   73.39    3.80
  13 -11  29   61.49    4.10
  29  11  13   67.49    4.60
 -29  13  11   66.39    4.10
 -11  29  13   63.89    4.20
  29 -13  11   63.79    4.00
 -13  29 -11   64.99    4.20
  13 -13  29   38.50    3.10
  29 -13  13   32.00    2.90
  29  13  13   42.90    3.70
 -13  29  13   40.80    3.40
 -15  29   1   10.40    2.20
  29  15   1    7.80    2.20
  15  29  -1    5.40    2.20
 -29   1  15   11.60    2.60
  29  -1  15    9.60    2.10
 -29  15  -1    6.70    2.10
  15  29   1    9.70    2.80
  29  15  -1    5.50    2.50
 -29  15   1    9.40    2.20
 -29  -1  15    8.10    2.20
 -15  29  -1   12.20    2.10
  15  -1  29    8.20    2.10
  29   1  15    6.70    2.00
  15  29  -3  168.98    4.70
 -29  15  -3  168.28    5.30
  29  -3  15  171.38    5.70
 -15  29   3  164.88    5.50
 -29   3  15  165.78    5.90
  15  -3  29  164.68    5.50
 -15  29  -3  163.18    5.60
 -29  15   3  169.28    5.60
  29   3  15  177.08    5.60
 -15  29   5  688.73   14.00
   5 -15  29  669.83   13.80
  29  15   5  688.93   13.90
  29  -5  15  685.23   14.10
 -29  15   5  711.13   14.20
  15  -5  29  668.73   14.00
  -5  29  15  703.73   14.80
  29   5  15  701.13   14.30
  29 -15   5  707.83   14.70
 -29   7  15  388.96    9.50
   7 -15  29  392.06    9.00
  29  -7  15  374.26    9.20
 -15  29   7  363.46    8.80
  29  15   7  394.66    9.20
  -7  29  15  369.86    9.60
  29   7  15  387.66    9.40
 -29  15   7  397.36    9.30
  15  -7  29  390.86    9.20
 -29   9  15   28.10    3.00
  29  15   9   26.30    3.30
   9 -15  29   20.60    2.60
 -15  -9  29   18.90    2.90
 -15  29   9   24.70    2.70
  29   9  15   28.30    3.30
  29 -15   9   22.70    3.10
 -29  15   9   26.80    2.90
  15  -9  29   19.60    2.60
 -29  11  15   13.40    2.50
  29  15  11    7.30    2.80
 -15  29  11   13.00    2.50
  29 -11  15    9.50    2.40
  11 -15  29   13.40    2.50
 -15  29 -11   13.10    2.50
 -11  29  15   15.30    2.90
  29  11  15    9.70    2.60
  29 -15  11    9.40    2.60
  15 -11  29   11.20    2.40
 -29  15  11   15.00    2.50
 -29  13  15   23.00    2.70
  29 -13  15   18.30    2.80
 -15  29  13   17.60    2.60
  29  15  13   26.60    3.40
  13 -15  29   22.30    2.90
  29  13  15   16.80    2.90
  29 -15  13   19.10    2.90
  15 -13  29   17.00    2.40
 -29  15  13   24.00    2.80
 -13  29  15   14.50    2.70
  15 -15  29  117.29    5.20
  29  15  15  135.39    5.80
 -15  29  15  129.29    5.00
  29 -15  15  118.89    5.00
 -17  29   1  141.89    4.80
  17   1  29  156.18    5.30
 -17  -1  29  145.29    6.40
  17  29  -1  151.88    5.20
 -29  17  -1  146.99    5.20
  29  -1  17  146.59    4.90
 -29   1  17  153.48    5.80
  29  17   1  159.98    5.50
 -29  17   1  146.59    5.30
  17  -1  29  142.09    5.10
  29   1  17  156.78    5.10
  29  17  -1  147.09    5.60
 -29  -1  17  139.29    5.50
 -17  29   3  631.94   13.10
 -29  17  -3  652.63   13.00
 -17  -3  29  633.84   14.10
  17  -3  29  648.04   13.30
 -29  17   3  636.24   13.20
 -17  29  -3  645.74   13.20
  29   3  17  651.63   13.40
 -17  29   5 1223.48   22.60
  29  -5  17 1232.18   22.70
  29   5  17 1267.87   23.10
  17  -5  29 1228.48   22.70
  29 -17   5 1224.48   23.30
 -29  17   5 1254.37   22.90
 -29   7  17  786.02   15.30
 -17  -7  29  780.22   15.30
 -17  29   7  749.23   15.20
  17  -7  29  755.72   15.30
 -17  29  -7  761.82   15.30
  -7 -17  29  770.62   14.90
 -17  -9  29  100.09    3.60
   9 -17  29  113.49    5.30
  29  -9  17   97.79    4.60
 -29   9  17  104.89    4.70
 -17  -9  29  105.69    3.50
 -17  29   9   93.69    4.50
  29 -17   9   94.79    5.20
  17  -9  29  105.69    4.70
  29   9  17  109.79    5.10
  -9  29  17  100.39    5.10
 -17  29  -9  108.49    4.90
 -29  17   9   94.69    4.70
  11 -17  29   45.40    3.70
 -29  11  17   43.70    3.60
 -17  29  11   45.30    3.40
  29 -11  17   39.10    3.40
 -11  29  17   45.80    3.90
  29  11  17   41.90    3.60
 -17  29 -11   45.70    3.40
 -29  17  11   45.50    3.60
  29 -13  17  160.48    5.80
 -17  29  13  156.58    5.60
  13 -17  29  164.18    6.10
  29  17  13  159.88    6.30
  29 -17  13  151.58    6.00
  29  13  17  167.08    6.20
  17 -13  29  158.78    5.40
 -13  29  17  162.28    6.00
 -19  -1  29   26.70    3.90
 -29  19  -1   33.80    3.00
  29  -1  19   33.10    2.80
  19  29  -1   24.80    2.40
  19  29  -1   25.00    2.20
  19   1  29   30.50    2.80
 -19  29   1   32.00    2.80
  29  19  -1   30.10    3.00
  19  29   1   28.90    3.70
  19  -1  29   32.10    3.00
 -29  19   1   22.30    2.60
 -19  29  -1   31.80    3.00
 -29   3  19  192.18    6.60
 -29  19  -3  181.78    5.70
  29  19   3  187.68    6.60
  19   3  29  178.68    5.70
 -19  29   3  190.18    5.60
  29  -3  19  192.28    5.70
 -19  29  -3  178.98    5.80
 -29  19   3  190.08    5.90
  19  -3  29  182.98    5.90
  29   3  19  182.08    6.00
  29  -5  19  413.46    9.60
 -19  -5  29  397.56    9.80
 -19  29   5  412.86    9.50
  29   5  19  412.36    9.80
 -19   5  29  428.66   10.90
 -19  29  -5  411.66    9.60
 -29  19   5  403.56    9.50
  -5 -19  29  424.46   10.00
  19  -5  29  409.76    9.50
 -19  -7  29  221.88    6.30
 -19  29   7  210.18    6.30
  29  -7  19  224.98    6.50
  29  19   7  221.68    7.30
 -19  29  -7  207.58    6.50
  -7  29  19  225.98    7.10
 -29  19   7  215.18    6.50
  29 -19   7  231.88    7.30
  -7 -19  29  221.58    6.40
  29   7  19  211.08    6.70
  19  -7  29  219.38    6.50
  29  -9  19    5.30    2.40
   9 -19  29    1.60    2.70
  29  19   9    6.10    3.10
 -29   9  19    5.80    2.60
 -19  29   9    7.30    2.20
  29   9  19    7.20    2.60
 -19  29  -9    4.00    2.30
  19  -9  29    8.50    2.30
 -29  19   9    8.30    2.40
 -19   9  29    7.60    3.30
  -9  29  19    6.60    2.70
  29 -19   9    6.50    2.80
  29  21   1  132.19    5.90
  21   1  29  135.99    5.10
 -21  -1  29  124.39    6.30
  29  -1  21  136.49    4.80
 -29  21  -1  136.49    5.20
 -29  -1  21  132.69    6.10
  21  29   1  135.99    6.20
  21  29   1  136.29    5.40
 -29  21   1  130.89    5.00
 -21  29  -1  124.59    5.00
  29   1  21  130.09    5.00
 -21  -3  29   37.00    3.90
  29  -3  21   38.50    3.30
 -29   3  21   43.60    4.10
  29  21   3   38.50    3.90
 -21  29   3   41.10    3.20
  21  -3  29   39.90    3.30
 -21   3  29   34.70    4.20
  -3 -21  29   36.10    4.30
  29  -5  21   11.70    2.50
 -21  29   5   11.60    2.20
  21   5  29   10.40    2.30
  29  21   5    9.40    2.90
 -29  21  -5   13.40    2.40
 -21  -5  29   13.20    3.20
 -29  21   5    9.70    2.40
 -21   5  29   11.10    3.40
  29   5  21   14.60    2.80
   0  30   0 1523.75   27.30
  30   0   0 1500.05   27.90
   2  30   0  695.63   14.50
  30   0  -2  718.03   15.00
  30  -2   0  691.73   15.00
  30  -2   2  289.57    8.20
  30  -2  -2  307.37    8.50
   2  30   2  296.57    7.90
   2  30  -2  299.07    7.90
  -2  30   2  298.57    8.00
  -2  30  -2  319.77    8.00
  30   0   4    9.90    2.50
   4  30   0    6.40    2.20
  -4  30   0    8.50    2.20
  30   4   0   12.20    2.70
  30  -4   0    8.40    2.60
   0  30   4   11.80    2.50
   0  30  -4    9.90    2.30
  30  -2   4   11.30    2.30
  -2  30  -4    7.60    2.10
   4  30  -2    5.60    2.10
  -4  30   2    6.10    2.20
  30   4   2    4.30    2.10
  30  -4  -2    4.50    2.50
   2  30   4    8.30    2.50
   2  30  -4    8.60    2.20
  -2  30   4    6.10    2.20
   4  30   2    9.80    2.50
  30  -4   2    6.90    2.60
  30   4  -2    5.20    2.40
  -4  30  -2    6.00    2.10
  30   2   4    9.10    2.50
   4  30  -4  282.87    7.40
  30   4   4  261.87    7.20
   4  30   4  257.97    7.90
  -4  30   4  283.77    7.30
  30   0   6    2.10    1.90
   0  30  -6    1.60    1.70
  -6  30   0    1.80    2.00
  30  -6   0    3.00    2.40
   0  30   6    0.60    2.20
  30   6   0    2.40    2.20
   6  30   0    2.80    2.00
   6  30  -2   21.40    2.50
   2  30   6   20.70    3.10
  -2  30  -6   17.10    2.20
  30   6   2   16.70    2.60
  30  -2   6   18.90    2.80
  -6  30   2   18.00    2.40
   2  30  -6   14.30    2.10
   6  30   2   18.60    2.90
  30   2   6   12.10    2.40
  30  -6   2   18.30    3.10
  -2  30   6   14.10    2.60
  30   6  -2   13.20    2.90
  -6  30  -2   16.00    2.50
   4  30   6  566.04   12.60
   6  30  -4  566.04   11.80
 -30   4   6  544.15   11.80
  30   6   4  541.75   12.00
  -6  30   4  556.74   12.10
  30   4   6  570.34   12.30
   6  30   4  563.94   12.70
  -4  30   6  535.85   12.20
  -6  30  -4  560.84   11.60
   4  30  -6  567.74   11.40
  30  -6   4  555.94   12.40
  30  -6   6  849.61   16.90
 -30   6   6  886.71   17.10
  30   6   6  853.91   17.10
   6  -6  30  862.11   17.00
  -6  30  -6  874.61   17.00
   0  30  -8  251.57    7.10
  30   0   8  259.17    7.50
   0  -8  30  260.87    7.20
   0  30   8  259.47    7.70
  30  -8   0  257.07    7.80
  -8  30   0  251.17    7.00
   8  30  -2   57.99    3.60
 -30   2   8   59.89    3.90
  30  -2   8   61.29    3.70
  -2  30  -8   54.09    3.90
   2  -8  30   55.69    3.60
   2  30   8   56.29    4.40
  30   8   2   56.29    4.10
  -8  30   2   54.99    3.80
  30  -8   2   51.59    4.10
   8  30   2   55.59    4.50
  -2  -8  30   50.19    3.70
 -30   8   2   48.20    3.50
  -8  30  -2   55.49    3.80
  -2  30   8   56.99    4.40
   2  30  -8   52.79    3.80
  30   2   8   55.19    4.10
 -30   4   8  140.59    5.20
  -4  30  -8  135.69    5.30
   4  -8  30  140.69    5.20
  -8  30   4  135.59    5.20
  30  -4   8  133.09    5.20
   8  30  -4  132.59    5.00
  30   8   4  137.39    5.50
  30  -8   4  139.79    5.80
  -8  30  -4  135.59    4.70
 -30   8   4  136.99    5.10
  30   4   8  134.99    5.40
   8  30   4  137.49    5.90
   4  30  -8  138.39    5.10
  -4  30   8  138.99    5.70
  -6  30  -8  537.05   11.60
 -30   6   8  511.35   11.50
  30  -6   8  534.25   11.70
  30   8   6  535.15   11.70
   6  -8  30  532.65   11.50
   6  30  -8  520.05   10.90
  -8  30  -6  496.35   11.40
 -30   8   6  497.75   11.40
   8  -6  30  521.15   11.10
  -6  30   8  498.95   11.60
  30  -8   6  526.15   11.70
 -30   8   8   99.49    4.70
  30   8   8  100.19    4.80
  -8  30  -8   98.19    4.60
   8  30  -8  102.39    4.10
  -8  30   8   96.99    4.50
   8  -8  30  102.39    4.60
   0  30  10  712.93   15.00
 -10  30   0  704.33   14.20
  30  10   0  687.83   14.00
  30   0  10  694.33   14.40
 -30  10   0  696.83   14.20
  -2  30 -10  381.46    9.20
  30  -2  10  374.26    9.30
   2 -10  30  377.56    9.20
 -10  30   2  378.06    9.20
 -30   2  10  389.96    8.90
  30 -10   2  364.06    9.60
 -10  30  -2  381.06    8.80
 -30  10   2  367.56    8.90
  -2  30  10  367.26    9.60
  10  30   2  381.06    9.80
   2  30 -10  373.96    8.90
  30   2  10  391.56    9.40
 -10  30   4    4.40    1.90
   4 -10  30    8.40    2.30
 -30   4  10    9.30    2.50
  30  10   4    6.50    2.50
  10  30  -4    6.10    2.00
  30  -4  10    9.60    2.20
  -4  30 -10    6.60    2.40
  10  -4  30    5.50    2.10
  30 -10   4    4.30    2.50
  -4 -10  30    0.60    2.00
   4  30 -10    3.00    1.90
 -30  10   4    4.00    2.00
 -10  30  -4    2.20    1.80
  -4  30  10    4.60    2.40
  30   4  10    5.30    2.40
  10  30   4    5.70    2.80
   6 -10  30   28.80    2.90
  30  -6  10   31.50    3.10
  -6  30 -10   32.60    3.20
 -30   6  10   30.90    3.20
  10  30  -6   25.20    2.40
  30   6  10   30.50    3.10
 -30  10   6   34.10    3.10
  10  -6  30   31.60    3.00
  30 -10   6   24.20    3.00
  -6  30  10   29.70    3.30
 -10  30  -6   28.80    3.00
  30  10   8   33.80    3.10
 -30   8  10   37.00    3.40
  30  -8  10   35.80    3.30
   8 -10  30   35.60    3.20
  10  -8  30   32.50    3.10
  30 -10   8   39.60    3.50
 -30  10   8   36.20    3.20
  30   8  10   36.20    3.10
  -8  30  10   32.70    3.20
 -10  30  -8   32.00    3.10
 -10  30 -10  396.06    9.70
  10 -10  30  400.96    9.60
  30  10  10  402.66    9.40
 -30  10  10  412.06    9.80
  12  30   0  793.42   16.00
  30   0  12  839.42   16.40
  30  -2  12  353.16    8.70
 -30  12  -2  338.27    8.40
  12  30  -2  338.77    8.10
 -30   2  12  350.76    8.70
 -12  30   2  339.17    8.50
 -30  12   2  352.56    8.60
  30  12  -2  339.47    9.00
 -12  30  -2  336.77    8.10
  30 -12   2  354.46    9.20
  12  -2  30  350.56    8.60
  -2  30  12  334.87    9.10
  30  12   4    7.90    2.50
  -4  30 -12    8.60    2.30
 -30   4  12   10.00    2.50
  30  -4  12   13.60    2.50
  12  30  -4   12.30    1.90
 -12  30   4   16.20    2.50
   4 -12  30   11.70    2.40
  -4  30  12   12.60    2.60
  12  30   4   10.80    3.00
 -12  30  -4   11.50    2.30
  30   4  12   12.90    2.40
  12  -4  30   14.80    2.30
  30 -12   4    9.70    2.60
 -30  12   4   12.10    2.40
  -6  30 -12   -0.10    2.10
  12  30  -6    0.70    1.40
  30  -6  12   -1.30    1.80
   6 -12  30   -0.40    2.10
 -12  30   6    0.40    1.80
 -30   6  12    0.30    2.10
  30  12   6    1.30    2.30
  12  -6  30    0.20    1.90
 -12  30  -6   -1.90    2.00
  -6  30  12    0.30    2.30
 -30  12   6    1.60    2.00
  -6 -12  30    0.30    2.20
  30   6  12    1.10    2.10
  30 -12   6   -1.10    2.30
   8 -12  30  118.79    5.00
  30  12   8  119.49    4.90
 -30   8  12  119.99    5.10
 -12  30   8  116.89    4.90
  30  -8  12  117.99    4.90
  -8  30  12  129.29    5.40
  12  -8  30  121.09    4.90
 -30  12   8  123.29    5.00
  30 -12   8  133.69    5.60
 -12  30  -8  122.69    5.00
  30  12  10  378.26    9.40
 -30  10  12  379.76    9.40
  10 -12  30  400.46    9.50
 -30  12  10  400.46    9.50
 -12  30 -10  383.86    9.50
  12 -10  30  372.46    9.20
 -10  30  12  378.86    9.50
  30 -12  10  392.56    9.50
 -12  30  12  507.95   11.00
 -12 -12  30  499.15    9.90
 -12  30 -12  490.15   11.00
  12 -12  30  485.55   11.00
  30 -12  12  504.45   10.90
 -14  30   0  494.85   10.50
  14  30   0  480.55   10.80
 -30   0  14  479.15   10.60
  30   0  14  480.85   10.90
 -30  14   0  487.45   10.70
  14  30  -2  125.49    4.90
 -14  30   2  117.19    4.70
  30  -2  14  111.99    4.90
 -30  14  -2  109.49    4.50
  30   2  14  121.19    4.60
 -30  14   2  117.79    4.80
  30  14  -2  116.49    5.50
 -14  30  -2  109.09    4.40
  30  14   4   21.30    2.90
 -14  30   4   21.60    2.70
  30  -4  14   22.40    2.80
 -30   4  14   28.10    3.30
  30 -14   4   26.20    3.30
  14  -4  30   23.50    2.70
  30   4  14   23.20    2.70
 -30  14   4   26.70    3.00
 -14  30  -4   24.30    2.90
  -4  30  14   21.60    3.00
 -14  30   6   96.99    4.50
  30  14   6  115.99    5.10
 -30   6  14  108.09    5.20
  30  -6  14  101.79    4.70
  14  -6  30  104.39    4.70
  -6  30  14   97.89    5.10
 -30  14   6  110.29    4.90
 -14  30  -6  100.19    4.60
  30  14   8    3.40    2.30
   8 -14  30    3.00    2.10
 -30   8  14    4.80    2.50
 -14  30   8    0.90    1.90
  30  -8  14    4.50    2.00
  30 -14   8    3.50    2.60
  14  -8  30    2.90    2.10
 -30  14   8    5.20    2.30
  -8 -14  30    1.30    2.20
  30   8  14    3.10    2.50
  -8  30  14    3.00    2.50
 -14  30  -8    2.50    2.20
 -14 -10  30  134.89    5.70
 -30  10  14  135.39    5.50
  30 -10  14  126.09    5.20
  10 -14  30  142.09    5.10
 -14 -10  30  132.59    4.90
 -14  30  10  133.49    5.30
  30  14  10  146.99    6.00
 -10 -14  30  125.69    4.90
  14 -10  30  136.59    5.20
 -14  30 -10  142.39    5.60
  30 -14  10  132.49    5.50
 -30  14  10  130.49    5.30
 -10  30  14  142.49    5.70
  30  10  14  146.59    5.80
  30 -12  14  260.17    7.40
  12 -14  30  273.77    7.20
  14 -12  30  275.57    7.10
 -14  30 -12  256.17    7.40
  30 -14  12  263.87    7.60
 -30  14  12  262.27    7.40
 -14  30  14   72.69    3.90
  14 -14  30   65.79    4.00
 -16  30   0    0.30    1.80
   0 -16  30    0.70    2.30
 -30   0  16   -0.90    2.30
  16  30   0   -0.90    2.20
  16   0  30    0.40    1.90
  30   0  16   -0.60    2.00
  30  16   0   -0.50    2.50
 -30  16   0   -0.90    1.90
 -30  16  -2   74.89    3.90
  30  -2  16   77.49    4.30
 -16  30   2   70.09    3.80
  30  16   2   74.19    4.50
  16  30  -2   72.59    4.00
  16  30   2   74.99    5.70
 -16  30  -2   68.79    3.80
  16  -2  30   69.69    3.90
 -30  16   2   70.99    4.20
  30  16  -2   75.49    4.90
  30   2  16   70.59    4.00
 -30   4  16  586.04   12.60
 -30  16  -4  570.34   12.10
  30  -4  16  566.74   12.20
  30  16   4  581.04   12.50
 -16  30   4  551.24   11.90
  30   4  16  592.04   12.00
  16  -4  30  552.54   12.10
 -30  16   4  568.64   12.20
 -16  30  -4  576.44   12.10
  -4  30  16  556.94   12.70
 -16  30   6  777.12   15.50
 -30   6  16  806.62   16.10
  30  -6  16  777.32   15.70
  30 -16   6  790.52   16.20
  16  -6  30  783.62   15.60
 -30  16   6  794.12   15.70
 -16  -8  30  171.08    6.60
 -16  30   8  163.68    5.70
  30  -8  16  166.78    5.80
 -16  -8  30  175.38    5.90
 -30   8  16  174.38    6.30
   8 -16  30  176.28    6.10
  -8 -16  30  167.68    5.70
 -16  30  -8  170.88    5.90
 -30  16   8  185.08    6.00
  30   8  16  186.38    6.40
  30 -16   8  163.68    6.30
  16  -8  30  172.38    5.90
  -8  30  16  171.38    6.40
 -30  10  16   -1.50    2.30
  10 -16  30   -0.20    2.40
 -16  30  10    0.10    1.80
  30  16  10    1.50    2.70
  30 -10  16    0.80    2.00
  16 -10  30    1.10    2.20
 -10  30  16    1.40    2.50
 -30  16  10   -0.40    2.30
  30 -16  10    1.90    2.70
  30  10  16   -0.80    2.40
 -16  30 -10    1.90    2.30
  30 -12  16    1.70    2.40
 -16  30  12   -0.20    2.10
  30  16  12    1.50    2.80
  12 -16  30    2.20    2.40
 -30  12  16   -0.70    2.20
 -12  30  16    1.20    2.40
 -30  16  12   -1.90    2.10
  30  12  16    1.40    2.70
  30 -16  12    0.60    2.60
 -16  30 -12    0.80    2.50
  16 -12  30   -0.90    2.00
  30  18   0    6.20    3.00
 -18  30   0    9.20    2.00
  18  30   0    4.70    2.70
 -18   0  30    3.10    3.10
  30   0  18    3.20    2.00
   0 -18  30    0.80    2.70
 -30  18   0    6.20    2.30
  18   0  30    7.10    2.10
 -30   0  18   11.00    3.00
 -18  30   2   42.00    3.20
 -30  18  -2   44.50    3.60
  30  -2  18   46.00    3.80
  18   2  30   44.40    3.40
 -18  30  -2   45.20    3.80
 -30  18   2   48.40    3.70
  30   2  18   49.90    3.60
 -18   2  30   45.90    4.30
  30  -4  18  233.28    6.80
 -30  18  -4  222.28    6.50
 -18  30   4  227.98    6.60
 -30  18   4  234.18    6.70
  30   4  18  226.08    6.90
 -18   4  30  239.48    8.00
  18  -4  30  226.78    6.60
 -18  -6  30  349.37    9.30
 -18  30   6  356.36    8.60
  18  -6  30  366.06    8.80
 -30  18   6  360.86    8.90
  30   6  18  377.76    9.20
  -6  30  18  368.26    9.50
 -18   6  30  370.36   10.00
  30  -8  18   49.60    4.10
 -18  -8  30   47.80    3.90
  30  18   8   42.10    3.80
 -18  30   8   49.70    3.90
 -18  -8  30   47.30    3.90
  30   8  18   49.90    4.30
  30 -18   8   50.19    4.30
  -8 -18  30   47.90    4.10
  18  -8  30   52.49    4.00
 -30  18   8   48.30    4.10
 -18  30  -8   50.79    3.80
  20   0  30  129.59    5.20
  30   0  20  126.59    4.80
  20  30   0  124.79    4.90
  20  30   0  132.29    4.80
 -30   0  20  134.29    6.30
 -20  30   0  130.09    5.10
 -30  20   0  133.69    5.10
  30  20   0  144.29    6.30
 -30  20  -2   37.40    3.10
  20   2  30   44.20    3.70
 -20  30   2   36.50    3.10
 -20  -2  30   46.70    4.50
 -30   2  20   49.10    4.30
  30  -2  20   45.00    3.60
  30   2  20   49.50    3.70
 -20  30  -2   42.20    3.30
  20  -2  30   46.50    3.80
 -20   2  30   33.80    4.30
 -30  20   2   49.80    3.60
  30  -4  20    1.60    2.20
  20   4  30   -1.80    2.00
   4 -20  30   -0.70    2.60
 -20  30   4   -1.80    1.80
 -20  -4  30   -0.60    3.30
 -30   4  20    2.40    3.00
  30  20   4    0.80    3.20
 -30  20   4    1.90    2.20
  -4 -20  30    0.60    3.50
 -20   4  30   -0.90    3.40
  20  -4  30    0.80    2.10
  30   4  20    0.60    2.40
 -20  30  -4    0.60    2.20
  -1  31  -1 1460.35   26.30
   1  31   1 1435.96   26.30
  31  -1  -1 1415.06   26.70
  31  -1   1 1456.85   26.90
  31   1  -1 1419.16   26.80
  31   1   1 1444.06   26.70
  -1  31  -3  463.05   10.50
  -3  31   1  473.95   10.40
  31  -3  -1  472.55   11.20
  31   3   1  457.05   10.90
  31   3  -1  459.15   11.20
  31  -3   1  449.06   11.10
   3  31   1  455.25   10.70
   1  31  -3  453.65   10.50
  -3  31  -1  481.95   10.70
  31  -3   3  170.28    6.10
   3  31  -3  171.38    5.80
   3  31   3  174.48    6.20
  -3  31  -3  159.88    5.70
  -3  31   3  164.58    6.00
  31   3  -3  157.38    6.30
   5  31  -1    4.60    2.10
  31   5   1    3.90    2.40
  31  -1   5    6.30    2.40
  -5  31   1    6.40    2.20
   1  31   5    6.60    2.50
  31  -5  -1    6.10    2.70
  -1  31  -5    5.60    2.00
   5  31   1    5.50    2.30
   1  31  -5    5.90    2.00
  -5  31  -1    7.30    2.20
  -1  31   5    5.80    2.30
  31  -5   1    7.40    2.70
  31   5  -1    2.90    2.70
  31   1   5    6.90    2.50
  -3  31  -5   21.20    2.50
   5  31  -3   16.90    2.60
   3  31   5   18.70    3.00
  31   5   3   15.20    2.70
  -5  31   3   22.30    2.90
  31  -5   3   17.70    3.00
  -3  31   5   14.10    2.40
   3  31  -5   13.60    2.10
  -5  31  -3   18.40    2.50
  31   3   5   18.70    2.70
  31   5  -3   17.20    3.10
   5  31   3   19.10    3.00
  31  -5   5  429.96   10.30
  -5  31  -5  435.36    9.70
   5  31  -5  432.96    9.50
 -31   5   5  437.56   10.20
   7  31  -1  167.38    5.70
  -7  31   1  157.58    5.70
  31   7   1  163.68    5.80
   1  31   7  163.48    6.20
  -1  31  -7  167.38    5.80
  31  -1   7  164.28    5.70
   1  31  -7  164.68    5.70
  31   7  -1  151.58    6.20
  31  -7   1  162.88    6.20
  -7  31  -1  160.68    5.50
  -1  31   7  156.28    6.10
   7  31   1  152.48    5.70
   7  31  -3    1.50    2.20
   3  31   7    2.40    2.40
   3  -7  31    1.60    1.90
  -3  31  -7    2.60    2.10
  -7  31   3   -0.30    1.80
  31  -3   7    0.00    2.20
  31   7   3    1.40    2.20
  31  -7   3    2.60    2.60
 -31   7   3    1.10    2.00
  -7  31  -3    2.40    1.90
  -3  31   7    1.70    2.30
   3  31  -7    1.10    2.10
   7  31   3    2.40    2.70
  31   3   7    2.40    2.20
  31   7  -3    1.60    2.70
  31   7   5  331.07    8.70
   7  31  -5  335.67    7.80
  -5  31  -7  329.27    8.50
   5  31   7  331.27    9.10
  -7  31   5  318.67    8.40
  -7  31  -5  347.47    8.20
   7  -5  31  320.57    8.30
   7  31   5  341.67    9.20
  -5  31   7  317.87    8.40
  31   5   7  323.77    8.60
  31  -7   5  334.27    8.90
  31   7   7  201.88    6.60
 -31   7   7  187.58    6.20
  -7  31  -7  206.98    6.50
   7  -7  31  193.88    6.20
   7  31  -7  192.98    6.00
   7  31   7  200.38    7.10
  -9  31   1  747.93   15.30
  -1  31  -9  754.72   15.30
   9  31  -1  781.52   15.40
   1  31   9  772.22   16.00
  -1  31   9  773.02   16.10
  -9  31  -1  761.92   15.40
  31   9  -1  758.42   15.80
 -31   9   1  768.32   15.40
  -3  31  -9  277.67    7.60
  31   9   3  270.07    7.40
  31  -3   9  275.27    7.40
 -31   3   9  259.67    7.20
   9  31  -3  252.77    7.20
   3  -9  31  274.17    7.50
   3  31   9  273.47    8.10
  -9  31  -3  273.17    7.00
   9  31   3  268.77    8.20
   3  31  -9  255.67    7.20
  31   9  -3  251.57    7.80
  31  -9   3  254.67    7.90
  -9  31   5    8.30    2.20
 -31   5   9   10.30    2.50
   5  -9  31   10.50    2.50
  -5  31  -9    8.80    2.50
  31   9   5   10.80    2.70
  31  -5   9    7.80    2.50
   9  31  -5    7.40    2.00
   9  -5  31   11.30    2.20
   9  31   5    9.20    2.90
  31   5   9    8.20    2.50
  -9  31  -5    8.10    2.30
  -5  31   9    6.00    2.50
  31  -9   5   11.80    2.90
 -31   9   5    9.20    2.40
   5  31  -9    5.00    2.20
 -31   7   9    0.90    2.20
  31  -7   9   -0.10    2.10
  -7  31  -9    1.80    2.30
   7  -9  31    0.80    2.10
   9  31  -7    0.90    1.90
  31   9   7    1.10    2.40
  -9  31   7    0.30    2.10
   9  -7  31    2.00    2.10
  31  -9   7    3.00    2.40
 -31   9   7    0.80    2.10
  -7  31   9    0.60    2.10
   7  31  -9   -0.80    1.80
  -7  -9  31    0.10    2.00
  -9  31  -7    1.60    2.20
  31   7   9   -0.40    2.30
   9  -9  31  235.28    6.90
  -9  31  -9  215.88    6.90
  -9  31   9  218.08    6.40
 -31   9   9  226.98    7.00
 -31   1  11 1066.79   20.20
  31  -1  11 1091.49   20.40
 -11  31   1 1061.59   20.00
   1  31  11 1088.99   20.90
  -1  31 -11 1058.29   19.80
  11  31  -1 1032.60   19.90
 -31  11   1 1076.19   19.80
  31  11  -1 1033.30   20.40
  -1  31  11 1031.90   20.60
   3 -11  31  466.15   10.70
 -11  31   3  471.35   10.60
 -31   3  11  455.95   10.60
  31  -3  11  468.55   10.80
  -3  31 -11  476.95   10.80
  11  -3  31  474.05   10.60
  -3  31  11  467.35   11.20
  31 -11   3  478.25   11.20
  11  31   3  486.65   11.70
 -31  11   3  469.55   10.70
 -11  31   5   72.69    3.80
  31  -5  11   64.19    3.90
  11  31  -5   69.49    4.00
  -5  31 -11   73.39    4.40
   5 -11  31   70.19    4.30
 -31   5  11   60.69    4.40
  31  11   5   66.49    4.70
 -11  31  -5   68.59    4.20
  11  31   5   74.19    5.20
  -5  31  11   66.09    4.70
  11  -5  31   61.89    4.00
 -31  11   5   71.49    4.30
  31   5  11   74.49    4.60
  31 -11   5   66.19    4.70
 -11  31   7  167.88    5.80
  31  -7  11  178.28    6.00
   7 -11  31  176.08    6.10
 -31   7  11  179.48    6.20
  31  11   7  166.38    6.30
  -7  31 -11  174.38    6.10
 -31  11   7  166.48    6.00
  11  -7  31  162.78    5.70
  31 -11   7  171.68    6.40
 -11  31  -7  173.98    6.00
  -7  31  11  171.18    6.10
 -31   9  11  518.45   11.70
   9 -11  31  517.85   11.60
  31   9  11  548.65   11.50
  11  -9  31  541.75   11.70
  -9  31  11  535.85   11.70
 -11  31  -9  527.65   11.70
  31 -11   9  509.55   11.80
 -11 -11  31  953.10   18.00
  11 -11  31  951.50   18.30
 -11  31 -11  936.01   18.30
  13  -1  31 1085.29   20.20
  -1  31  13 1035.20   20.80
  31   1  13 1087.59   20.40
 -13  31  -1 1087.79   19.70
  31  13  -1 1037.10   20.50
  13  31  -3  335.27    8.00
 -31   3  13  349.07    8.90
 -13  31   3  348.27    8.50
  31  -3  13  335.07    8.70
  31   3  13  340.37    8.60
 -13  31  -3  327.87    8.10
  13  -3  31  348.77    8.20
  31 -13   3  345.87    9.20
  13  31  -5   52.29    3.00
  31  13   5   56.49    4.10
  31  -5  13   47.80    3.70
 -13  31   5   49.40    3.70
 -31   5  13   51.79    4.30
   5 -13  31   49.90    4.10
  -5  31  13   43.90    3.80
  13  -5  31   46.80    3.80
  31   5  13   54.99    3.70
  31 -13   5   54.89    4.20
 -31  13   5   52.59    4.00
  13  31   5   52.29    4.50
 -13  31  -5   55.99    4.10
   7 -13  31  122.99    5.30
 -31   7  13  138.99    5.60
  31  -7  13  128.89    5.10
  31  13   7  121.79    5.60
 -13  31   7  137.79    4.80
  31   7  13  132.39    5.10
 -13  31  -7  123.49    5.30
 -31  13   7  138.19    5.50
  13  -7  31  128.49    5.10
  -7  31  13  123.99    5.60
 -31   9  13  421.06    9.90
 -13  31   9  387.16    9.40
  31  -9  13  406.56    9.70
 -13  -9  31  406.36    9.50
  31 -13   9  403.06   10.00
  -9 -13  31  393.96    9.00
 -31  13   9  401.36    9.70
  -9  31  13  394.16    9.80
 -13  31  -9  404.06    9.70
  13  -9  31  390.86    9.50
 -13  31  11  714.03   14.80
  31  13  11  740.13   15.10
  31  11  13  748.53   15.20
  13 -11  31  729.33   14.90
 -11  31  13  710.23   14.80
 -31  13  11  748.33   15.00
  31  13  13  753.82   15.60
  13 -13  31  757.62   14.90
 -31   1  15   86.19    4.80
 -31  15  -1   85.79    4.10
  15   1  31   86.19    4.20
 -15  31   1   85.29    4.00
  31  -1  15   88.49    4.60
  31  15  -1   91.69    5.80
 -15  31  -1   83.89    4.10
 -31  15   1   81.49    4.30
  31   1  15   86.09    4.60
  15  31   1   86.09    5.40
  31  -3  15   29.30    3.10
 -15  31   3   26.40    2.80
 -31   3  15   27.50    3.30
  15  31  -3   20.40    2.10
  -3  31  15   31.70    3.50
  31   3  15   22.20    2.60
  15  -3  31   30.50    3.00
 -15  31  -3   23.10    2.80
 -31  15   3   27.00    3.00
 -15  31   5  274.27    7.40
  31  15   5  275.37    8.10
  31  -5  15  282.77    7.70
 -31  15   5  278.47    7.60
  15  -5  31  281.77    7.60
  -5  31  15  290.27    8.30
 -15  31  -5  287.57    7.70
  31 -15   5  296.67    8.20
 -31   7  15  111.49    5.50
 -15  31   7  100.99    4.80
  31  -7  15  105.19    4.60
 -31  15   7   96.99    4.70
  -7  31  15  106.29    5.40
 -15  31  -7  101.79    4.90
  15  -7  31  104.69    4.80
  31 -15   7  102.39    5.20
 -31   9  15    4.60    2.60
 -15  -9  31    5.40    2.70
 -15  -9  31    4.00    3.20
  31  15   9    2.60    2.50
   9 -15  31    4.20    2.30
  31  -9  15    3.00    2.30
 -15  31   9    4.90    2.10
 -31  15   9    6.00    2.50
  15  -9  31    5.90    2.30
  31 -15   9    7.00    2.80
  -9 -15  31    0.80    2.60
  -9  31  15    4.50    2.70
  31   9  15    6.00    2.70
 -15  31  -9    5.20    2.40
  11 -15  31  143.79    5.40
 -15  31  11  135.29    5.30
  31  11  15  143.49    5.80
  15 -11  31  130.79    5.20
  31 -15  11  130.29    5.80
 -15  31 -11  137.89    5.30
 -11  31  15  138.39    5.70
  31  17   1   22.10    3.20
 -17  31   1   22.20    2.40
  17  31  -1   26.20    3.10
  31  -1  17   33.70    3.30
 -17  -1  31   21.90    3.80
 -31  17  -1   29.80    2.80
  17   1  31   31.50    2.80
 -31  17   1   23.50    2.70
  17  -1  31   31.00    3.00
 -17  31  -1   26.60    2.80
  31  17  -1   28.80    3.70
  31   1  17   32.70    3.00
  17   3  31   69.29    4.00
 -31  17  -3   60.29    3.80
  31  -3  17   64.39    4.10
 -17  31   3   59.49    3.80
  17  -3  31   59.99    4.00
 -31  17   3   64.39    4.10
  31   3  17   64.39    3.90
  17  31   3   54.29    4.90
 -17  31  -3   67.89    4.10
 -17  31   5  282.87    7.40
 -31   5  17  285.37    8.20
 -17  -5  31  284.47    9.20
  31  -5  17  264.27    7.50
  17  -5  31  290.87    7.50
 -31  17   5  265.17    7.50
  -5  31  17  279.97    8.10
 -31   7  17  127.99    5.90
 -17  -7  31  133.89    6.60
 -17  31   7  126.99    5.10
  31  -7  17  120.39    5.10
 -31  17   7  130.49    5.50
  -7  31  17  124.09    5.60
  17  -7  31  121.99    5.20
  31 -17   7  125.89    5.70
  -7 -17  31  131.79    6.20
   0  32   0 2100.39   35.70
  32   0   0 1995.10   36.60
  -2  32   0 1140.39   21.80
   2  32   0 1175.58   21.50
  32   0  -2 1175.58   22.40
  32   0   2 1122.79   22.10
   0  32  -2 1169.28   21.70
   0  32   2 1159.98   21.90
  32   2   0 1151.48   22.40
  -2  32  -2  782.92   15.50
  -2  32   2  759.32   15.50
   2  32  -2  781.22   15.60
   2  32   2  752.12   15.60
  32   2   2  781.32   15.90
  32   2  -2  752.92   16.10
  32   0   4  178.38    5.80
   4  32   0  165.78    5.90
   0  32   4  162.68    5.90
  32  -4   0  165.68    6.50
  32   4   0  158.68    6.50
  -4  32   0  178.38    6.10
   0  32  -4  171.18    5.70
   4  32  -2  117.59    5.20
   2  32   4  114.59    5.20
  32  -2   4  110.79    5.30
  -4  32   2  105.29    4.70
  32   4   2  108.79    5.20
  -2  32  -4  115.89    4.60
   2  32  -4  112.19    4.90
  -2  32   4  108.89    4.90
  32  -4   2  116.49    5.70
  -4  32  -2  113.39    5.00
  32   4  -2  115.99    5.70
  32   2   4  114.59    5.30
  -4  32  -4    1.40    1.90
  -4  32   4    2.30    2.10
   4  32   4    1.80    2.40
  32   4   4    0.60    2.50
   4  32  -4    1.40    2.10
  32  -4   4   -0.70    2.50
  -6  32   0  148.89    5.40
   0  32  -6  140.59    5.50
   6  32   0  144.39    5.70
  32   0   6  154.08    5.80
   0  32   6  153.38    6.00
  32  -6   0  149.49    6.00
  32   6   0  147.89    6.20
  32   6   2  101.19    4.70
  -2  32  -6   96.19    4.70
  32  -2   6   83.09    4.70
  -6  32   2   93.69    4.60
   6  32  -2   89.89    4.90
   2  32   6   93.89    5.40
   2  32  -6   90.29    4.70
  -6  32  -2   93.79    4.70
  32   2   6   83.69    4.70
   6  32   2   92.49    4.80
  32  -6   2   94.59    5.40
  -2  32   6   97.99    4.90
  32   6  -2   90.29    5.40
   4  -6  32   51.29    3.90
  -4  32  -6   44.40    3.60
  32  -4   6   46.80    3.80
   4  32   6   40.00    3.80
  32   6   4   52.09    4.10
  32   4   6   44.60    3.80
   6  32   4   52.09    4.20
  32  -6   4   53.19    4.20
   4  32  -6   48.60    4.10
  -6  32  -4   45.90    3.50
  -4  32   6   45.00    3.50
   6  -6  32  103.79    4.60
  -6  32   6   93.19    4.70
  -6  32  -6   96.69    4.80
 -32   6   6  103.29    4.80
   6  32   6   98.69    5.60
  32  -6   6   94.89    4.90
  32   6   6  104.09    5.20
   0  32   8  733.13   15.40
  -8  32   0  704.43   14.60
  32  -2   8  466.45   10.70
   8  32  -2  443.86   10.40
   2  32   8  436.36   10.90
  -2  32  -8  448.36   10.40
  -2  32   8  427.46   10.70
  32   2   8  462.35   10.70
  32  -8   2  437.86   10.90
   2  32  -8  428.96   10.20
  32   8  -2  452.65   11.00
 -32   4   8    6.50    2.30
   4  -8  32    4.40    2.20
  -8  32   4    4.40    2.00
  32  -4   8    5.60    2.40
  32   8   4    3.70    2.40
   8  32  -4    6.00    2.20
   4  32   8    7.30    2.70
  -4  32  -8    6.30    2.40
  -4  32   8    3.20    2.30
   4  32  -8    5.20    2.50
   8  -4  32    8.20    2.30
  32  -8   4    6.50    2.90
   8  32   4    4.90    2.80
 -32   8   4    5.40    2.30
  -8  32  -4    5.70    2.10
  32   4   8    1.80    2.40
  -8  32   6   15.30    2.60
   6  32   8   18.50    3.40
   8  32  -6   11.70    2.60
   6  -8  32   12.70    2.60
  -6  32  -8   14.90    2.70
  32  -6   8   14.80    2.60
  32   8   6   15.40    3.10
 -32   6   8   17.30    2.70
  -6  32   8   12.50    2.50
  32   6   8   18.70    3.10
   8  32   6   13.00    3.30
   8  -6  32   13.10    2.40
  -8  32  -6   15.10    2.70
 -32   8   6   10.80    2.50
   6  32  -8   11.90    2.70
  32  -8   6   12.90    3.00
  32  -8   8   40.70    3.50
  -8  32   8   39.20    3.30
  -8  32  -8   30.00    3.10
  32   8   8   40.90    3.70
   8  -8  32   37.60    3.40
   0  32  10 1256.27   23.80
   0  32 -10 1243.28   23.10
  32  10   0 1266.07   23.60
  32   0  10 1216.48   23.30
  10  32  -2 1018.70   19.20
 -10  32   2  979.20   19.00
  -2  32  10 1003.50   19.90
  32   2  10 1017.80   19.50
 -10  32  -2 1030.50   18.80
  10  32   2  989.80   19.60
 -32  10   2  970.00   19.00
  32  -4  10  218.08    6.80
   4 -10  32  217.38    6.70
  -4  32 -10  213.38    6.90
  -4  32  10  215.58    7.00
 -32  10   4  211.28    6.40
  32   4  10  225.88    7.10
  10  32   4  225.68    7.90
 -10  32  -4  211.38    6.50
  32 -10   4  224.28    7.40
 -10  32   6  146.99    5.30
  32  10   6  146.39    6.00
  32  -6  10  141.29    5.60
 -32   6  10  146.69    5.80
  -6  32 -10  148.89    5.90
  10  32  -6  145.69    5.20
   6 -10  32  149.09    5.60
 -10  32  -6  151.78    5.50
  10  32   6  151.38    6.70
  32 -10   6  139.69    6.00
  -6  32  10  145.69    5.90
 -32  10   6  149.59    5.60
 -32   8  10  387.56    9.60
  32  -8  10  396.16    9.20
  32  10   8  386.56    9.80
  -8  32 -10  389.66    9.60
   8 -10  32  380.86    9.30
  32 -10   8  380.46    9.80
  10  -8  32  379.26    9.40
 -10  32  -8  399.16    9.60
 -32  10   8  380.56    9.60
  10 -10  32 1086.79   20.20
 -10 -10  32 1064.79   20.20
 -10  32 -10 1049.70   20.20
  32 -10  10 1039.00   20.20
   0  32  12 1477.85   26.90
 -32  12   0 1406.76   26.00
  12  32   0 1446.56   26.40
  32  -2  12 1168.98   21.90
  -2  32 -12 1148.59   21.80
  12  -2  32 1122.39   21.40
 -12  32  -2 1188.98   21.20
 -12  32   4  343.37    8.60
  -4  32 -12  331.97    8.80
 -32   4  12  340.07    8.90
  32  12   4  334.17    8.90
 -12  32  -4  337.37    8.60
  32 -12   4  334.47    9.10
  -4  32  12  350.46    9.30
  12  32   4  345.87    9.90
  32  -6  12  352.86    8.80
  -6  32 -12  330.97    8.70
  -6  32  12  335.77    9.00
  12  32   6  350.06    9.80
 -12  32  -6  329.57    8.60
  32 -12   6  332.37    9.10
 -12  32   8  547.55   12.00
  32  12   8  572.64   12.70
   8 -12  32  576.64   12.40
  32  -8  12  568.94   12.40
  -8  32 -12  563.74   12.30
 -32  12   8  571.04   12.30
  12  -8  32  575.04   12.20
  -8  32  12  565.84   12.50
  32  12  10 1151.08   20.80
  10 -12  32 1088.49   20.90
 -32  10  12 1107.59   21.10
 -12 -10  32 1116.79   20.80
 -10  32 -12 1081.89   20.90
  32 -12  10 1112.09   21.20
 -12  32 -10 1117.69   21.00
  12 -12  32 1283.47   23.10
 -12 -12  32 1230.28   22.00
  32 -12  12 1204.38   23.00
 -12  32 -12 1264.57   23.10
  14  32   0  397.16   10.10
 -32  14   0  417.96    9.40
  14   0  32  422.96    9.70
  32  14   0  410.56   10.60
 -32   2  14  197.68    6.40
  32  14   2  185.08    6.90
  14  32  -2  187.68    6.30
  32  -2  14  189.78    6.40
  14  -2  32  194.08    5.80
 -14  32  -2  193.18    5.70
 -32  14   2  191.18    6.20
  -2  32  14  179.38    6.60
  32   2  14  186.58    6.30
  32  -4  14    4.80    2.50
 -32   4  14    9.00    3.00
  14  32  -4    8.30    2.10
 -14  32   4    4.30    2.30
  32  14   4    9.00    3.10
  32 -14   4    8.10    2.90
 -14  32  -4    8.80    2.50
  32   4  14    8.50    2.60
 -32  14   4   11.30    2.60
  14  32   4    8.50    3.60
  14  -4  32    6.00    2.30
  -4  32  14    9.50    2.80
 -32   6  14    5.40    2.70
  32  14   6    7.20    3.00
 -14  32   6    8.50    2.50
  32  -6  14   11.20    2.40
  32   6  14    7.30    2.50
  -6 -14  32    5.10    2.60
  14  -6  32    8.30    2.40
  32 -14   6    8.80    2.90
 -32  14   6    7.50    2.60
  -6  32  14    5.70    2.80
 -14  32  -6    5.70    2.40
   8 -14  32   21.90    2.80
 -32   8  14   24.80    3.30
 -14  32   8   24.20    2.80
  32  -8  14   27.40    3.20
  32  14   8   18.90    3.20
  32   8  14   24.60    2.90
  -8 -14  32   24.80    3.30
  32 -14   8   26.40    3.40
  -8  32  14   21.30    3.20
  14  -8  32   22.40    2.90
 -14  32  -8   22.90    3.00
 -16  32   0  130.19    4.80
  32  16   0  136.09    7.10
  32   0  16  143.39    5.50
  16   0  32  142.09    4.90
  16  32  -2   24.80    2.50
 -16  32   2   26.60    2.70
  32  -2  16   26.90    3.00
  32  16   2   23.20    3.70
  -2  32  16   34.20    3.70
 -32  16   2   35.10    3.10
 -16  32  -2   27.60    2.90
  32   2  16   33.20    3.30
  32  -4  16  140.39    5.60
 -16  32   4  133.49    5.30
  -4 -16  32  140.99    6.30
  32   4  16  146.89    5.20
 -16  32  -4  129.49    5.40
  -4  32  16  130.79    5.90
 -32  16   4  136.29    5.50
  16  -4  32  143.49    5.40
 -32   6  16  127.59    5.90
 -16  32   6  113.49    4.90
  32  16   6  130.99    6.30
  32  -6  16  110.69    5.10
  32   6  16  130.09    5.10
  -6 -16  32  122.39    6.20
 -32  16   6  114.19    5.10
  -6  32  16  107.99    5.50
  16  -6  32  121.59    5.00
  32 -16   6  118.59    5.80
 -16  32  -6  122.99    5.20
  -1  33  -1 1440.36   26.60
   1  33   1 1477.15   26.50
  33  -1   1 1492.65   27.50
  33   1  -1 1431.66   27.20
  33   1   1 1478.65   27.40
  -1  33  -3  299.97    8.00
  -3  33   1  302.37    8.10
   3  33  -1  296.07    8.20
  33   3   1  289.77    8.60
  33  -1   3  294.97    8.60
  33  -3  -1  299.57    8.70
   1  33   3  296.17    8.20
   1  33  -3  280.87    7.90
  33   1   3  284.77    8.30
  33  -3   1  289.27    8.70
   3  33   1  295.27    8.20
  -1  33   3  298.47    8.20
  -3  33  -1  281.27    7.90
  -3  33   3   26.70    3.00
  -3  33  -3   22.40    2.70
  33  -3   3   23.80    3.60
  33   3   3   18.50    3.10
   3  33  -3   24.30    3.10
  33  -1   5  163.48    5.90
   1  33   5  176.28    6.30
   5  33  -1  156.38    6.20
  33   5   1  167.38    6.70
  -1  33  -5  160.58    5.60
  -5  33   1  174.48    6.10
   1  33  -5  180.18    5.70
  33   1   5  171.68    6.30
  33  -5   1  170.18    6.70
  33   5  -1  163.18    6.90
   5  33   1  173.28    6.40
  -1  33   5  167.18    5.90
  -5  33  -1  173.18    6.10
  -5  33   3    4.60    2.20
   3  33   5    8.70    2.80
  -3  33  -5    6.90    2.20
   5  33  -3    7.30    2.70
  33   5   3    6.80    2.60
  33  -3   5    9.40    2.80
  -3  33   5    3.70    2.30
  -5  33  -3    3.60    2.20
   3  33  -5    3.30    2.30
  33  -5   3    3.90    2.90
   5  33   3    5.10    2.50
  33   3   5    6.10    2.70
  -5  33   5    5.60    2.40
   5  33  -5    5.00    2.30
  -5  33  -5    3.60    2.30
  33   5   5    2.50    2.70
   5  33   5    5.20    2.90
  33  -5   5    6.60    2.80
   5  -5  33    2.90    2.20
   1  33   7  366.26    9.90
  33   7   1  376.06   10.00
   7  33  -1  362.96    9.50
  -1  33  -7  395.76    9.60
  -7  33   1  380.76    9.40
   1  -7  33  393.26    9.50
  -7  33  -1  392.66    9.50
  -1  33   7  381.26    9.70
  33  -7   1  383.26   10.00
  33   1   7  400.16    9.90
  33   7   3   15.90    3.00
   7  33  -3   16.40    2.90
  -7  33   3   23.20    3.00
   3  -7  33   26.70    3.00
   3  33   7   21.70    3.50
  -3  33  -7   21.60    3.00
  33  -3   7   23.20    3.00
  33   3   7   22.60    3.00
  -3  33   7   24.10    3.10
   3  33  -7   19.10    3.10
  33  -7   3   17.20    3.30
   7  33   3   25.70    3.40
  -7  33  -3   21.40    2.60
   5  -7  33   16.30    2.70
  33   7   5    9.40    3.00
  -7  33   5   12.70    2.50
  -5  33  -7   16.40    3.00
  33  -5   7   11.70    2.80
   7  33  -5   11.80    2.70
   5  33   7   13.10    3.20
   7  -5  33   14.90    2.60
   7  33   5   15.60    3.40
   5  33  -7    9.50    2.70
  33   5   7   10.00    2.70
  33  -7   5   12.80    3.20
 -33   7   5   13.40    2.80
  -5  33   7   11.60    2.40
  -7  33  -5   13.60    2.80
   7  33  -7    0.20    2.50
   7  33   7    1.30    2.90
   7  -7  33    1.30    2.30
  33   7   7    2.20    2.60
  33  -7   7    1.30    2.60
  -7  33   7    1.10    2.30
 -33   7   7    1.50    2.20
  -7  33  -7    1.70    2.40
   1  33   9  940.01   19.20
  -1  33  -9  960.70   18.70
  -9  33   1  958.70   18.50
  33  -1   9  977.60   18.80
   1  33  -9  973.70   18.70
  33   9  -1  962.30   19.40
  33  -3   9  272.97    8.10
  -9  33   3  288.17    7.80
   3  33   9  276.97    8.60
   9  33  -3  277.27    7.80
  33   9   3  292.67    8.30
  -3  33  -9  265.67    7.90
 -33   9   3  275.27    7.70
  -9  33  -3  280.77    7.30
  33   3   9  282.47    8.10
   9  33   3  276.67    8.50
  -3  33   9  278.27    8.00
  33  -9   3  280.17    8.40
   9  -3  33  274.87    7.60
 -33   5   9   55.39    4.30
   5  33   9   59.79    5.00
  -9  33   5   63.19    3.80
  -5  33  -9   54.39    4.40
  33  -5   9   55.69    4.20
   9  -5  33   56.69    3.90
  33   5   9   60.29    4.70
  -5  33   9   61.29    4.40
 -33   9   5   63.19    3.90
  -9  33  -5   58.49    4.30
  33  -9   5   60.49    4.50
   9  33   5   64.09    5.50
   5  33  -9   53.19    4.40
  -9  33   7  107.69    5.00
  33  -7   9  104.19    4.90
 -33   7   9  108.29    5.20
   7  -9  33  104.59    4.90
  -7  33  -9  111.19    5.40
  33   9   7  112.99    5.80
  33   7   9  114.99    5.70
 -33   9   7  116.99    5.20
   9  -7  33  111.89    5.00
  -9  33  -7  112.59    5.30
  33  -9   7  105.49    5.40
   9  33   7  118.59    6.30
  -7  33   9  103.39    4.80
  33  -9   9  561.24   12.70
 -33   9   9  583.74   12.70
   9  -9  33  583.64   12.40
  33  11   1 1381.16   25.40
   1  33  11 1383.46   25.50
  -1  33  11 1341.97   25.50
  11  33   1 1345.07   25.20
 -11  33  -1 1344.77   24.30
  33  11  -1 1354.76   25.60
  33  -3  11  648.94   13.50
   3  33  11  624.24   14.10
  -3  33  11  625.24   14.00
  33 -11   3  652.43   14.20
  11  33   3  639.44   14.30
 -33  11   3  655.03   13.30
  11  -3  33  664.23   13.20
  11  33  -5  337.57    8.30
  33  -5  11  331.17    8.80
 -11  33   5  327.67    8.50
  -5  33 -11  329.47    8.70
  11  33   5  338.77    9.90
 -33  11   5  349.77    8.60
  11  -5  33  337.57    8.50
  -5  33  11  331.27    9.00
  33 -11   5  344.07    9.30
  -7  33 -11  564.84   12.20
   7 -11  33  547.05   12.10
  33  -7  11  536.45   12.10
  33  11   7  558.04   12.60
  11  -7  33  556.94   12.00
 -11  33  -7  556.24   12.10
  33 -11   7  539.55   12.50
  11  33   7  550.84   13.20
  33 -11   9  983.80   19.40
  -9  33  11 1002.00   18.80
  13  33  -1  560.24   12.30
   1  33  13  574.84   12.90
 -33  13   1  556.94   12.00
  -1  33  13  559.74   12.70
 -13  33  -1  545.35   11.50
  13  33   1  548.35   12.70
  33  13  -1  530.75   12.90
  13  -1  33  545.35   11.80
  33  -3  13  117.09    5.30
 -13  33   3  109.29    5.00
 -33   3  13  124.79    5.50
 -33  13   3  118.09    5.00
  -3  33  13  117.19    5.70
  13  33   3  119.49    6.70
  13  -3  33  116.29    4.80
 -13  33  -3  113.89    5.20
 -13  33   5   12.90    2.70
  33  -5  13   16.80    2.80
  33  13   5   13.30    3.30
 -33   5  13   14.30    3.20
  13  -5  33   12.60    2.60
 -13  33  -5   19.30    2.90
  -5  33  13   14.60    3.10
  33 -13   5   10.90    3.10
  33   5  13   15.10    3.00
  13  33   5   17.90    4.10
 -33   7  13   80.59    5.20
  33  -7  13   78.19    4.80
   7 -13  33   80.29    4.70
  13  33   7   80.09    6.40
  33   7  13   83.09    5.20
 -13  33  -7   79.89    4.80
  -7  33  13   76.39    4.80
  13  -7  33   75.99    4.40
  33 -13   7   79.99    5.30
  15   1  33  151.88    5.40
 -33  15  -1  137.89    5.40
 -15  33   1  137.49    5.00
  33  15   1  141.09    7.30
 -33  15   1  153.68    5.30
  15  -1  33  155.88    5.20
  33  15  -1  139.89    7.40
  -1  33  15  144.99    6.10
   0  34   0 1826.52   32.70
  34   0   0 1847.72   33.30
  -2  34   0  609.94   13.00
   2  34   0  575.84   12.90
  34   0   2  585.94   13.60
  34   2   0  583.44   13.50
   0  34  -2  600.64   12.90
   0  34   2  575.64   12.60
  34  -2   0  611.84   13.60
  -2  34  -2   83.49    4.90
  34   2   2   85.39    5.60
   2  34   2   85.29    5.10
  34  -2   2   75.89    5.50
   2  34  -2   81.09    4.90
  -2  34   2   92.99    4.40
   0  34   4  183.58    6.60
  34  -4   0  189.98    7.10
  34   0   4  205.08    7.10
  -4  34   0  201.98    6.40
   4  34   0  191.78    6.70
  34  -2   4   10.00    3.20
   2  34   4    6.90    2.50
   4  34  -2    7.00    2.70
  34   4   2   10.50    3.30
  -2  34  -4    6.30    2.30
  -4  34   2    8.90    2.60
  34  -4   2   10.50    3.20
   4  34   2    5.80    2.70
   2  34  -4    9.50    2.50
  -2  34   4   10.70    2.80
  34   2   4   11.40    3.10
  -4  34  -2   10.10    2.70
  -4  34   4    3.40    2.40
   4  34   4    2.30    2.70
  34  -4   4    3.30    2.90
  -4  34  -4    4.10    2.30
  34   4   4    0.80    2.50
   4  34  -4    2.80    2.40
  34   6   0  121.09    6.60
   0  34  -6  116.29    5.50
  -6  34   0  111.09    5.10
   6  34   0  114.79    5.30
   0  34   6  109.59    5.30
  -6  34   2    0.70    2.40
   2  34   6    0.90    2.70
   2  -6  34    1.30    2.30
  -2  34  -6    0.80    2.50
  34   6   2   -0.70    3.10
  34  -2   6    2.90    2.60
   6  34  -2   -0.50    2.60
   6  34   2    0.40    2.70
  -2  34   6   -3.30    2.10
  -6  34  -2    0.80    2.20
  34   2   6    0.60    2.70
   2  34  -6    0.10    2.50
  34  -6   2   -3.30    2.80
  -4  34  -6   38.90    3.60
   6  34  -4   33.80    3.20
  34   6   4   33.10    3.60
  34  -4   6   33.20    3.70
   4  -6  34   33.20    3.20
   6  34   4   31.30    3.60
  34  -6   4   35.10    4.00
  -6  34  -4   41.10    3.30
   4  34  -6   37.40    3.70
  34   4   6   35.50    3.70
  -4  34   6   36.30    3.50
  34  -6   6  155.18    6.50
  34   6   6  150.28    6.30
  -6  34  -6  139.49    5.70
   6  34  -6  142.99    6.20
   6  34   6  160.48    6.90
  -6  34   6  142.49    5.70
  -8  34   0  625.14   13.20
   0  34  -8  630.84   13.60
   0  34   8  639.04   13.90
   8  34  -2  167.18    6.60
  34   8   2  179.48    7.10
  -8  34   2  175.68    6.10
  -2  34  -8  167.88    6.40
   2  34   8  175.88    7.00
  34  -2   8  171.48    6.30
   8  34   2  168.88    6.60
  34  -8   2  177.68    6.80
  34   2   8  178.18    6.40
  -2  34   8  173.08    6.50
  -8  34  -2  178.98    5.70
   2  34  -8  180.38    6.50
  34  -4   8   23.20    3.00
  -8  34   4   27.20    3.10
   4  34   8   17.10    3.40
  34   8   4   22.00    3.50
   4  -8  34   24.70    3.20
  -8  34  -4   25.30    3.00
   8  -4  34   23.50    2.90
  34  -8   4   29.30    3.80
   8  34   4   28.10    3.80
  -4  34   8   25.70    3.20
   4  34  -8   20.50    3.30
  -6  34  -8    9.30    2.90
   6  34   8    5.80    3.20
  34  -6   8    4.80    2.70
   8  34  -6    6.10    3.00
   6  -8  34    7.90    2.60
 -34   6   8    6.70    2.70
  -8  34   6    6.00    2.40
  34   8   6    4.90    2.70
  34   6   8   10.50    3.10
   8  -6  34   10.20    2.60
 -34   8   6    6.60    2.60
  -6  -8  34    1.70    2.60
   6  34  -8    5.10    2.90
  -6  34   8    7.40    2.50
   8  34   6    7.40    3.50
  -8  34  -6    8.40    2.90
  34  -8   6   10.70    3.30
  -8  34  -8  110.29    5.60
  34  -8   8  109.09    5.50
   8  -8  34   99.99    5.10
  34   8   8  111.29    5.90
  -8  34   8  105.99    5.10
  34  10   2  591.64   13.40
   2  34  10  605.14   13.60
  34  -2  10  607.04   13.00
  -2  34 -10  592.04   13.00
 -10  34   2  576.14   12.50
  -2  34  10  574.74   13.20
  34  10   4  279.57    8.60
   4  34  10  274.87    8.60
 -10  34   4  270.47    7.60
  -4  34 -10  267.87    8.10
  34  -4  10  281.57    8.00
 -10  34  -4  263.87    7.70
  -4  34  10  276.17    8.00
  34 -10   4  283.47    8.40
   6  34  10  142.59    6.40
   6 -10  34  130.49    5.40
  -6  34 -10  131.29    6.00
  34  10   6  143.39    5.90
  10  34  -6  124.59    5.70
  34  -6  10  130.59    5.30
  34   6  10  136.99    6.00
 -10  34  -6  136.99    5.80
  -6  34  10  121.49    5.50
  10  -6  34  135.99    5.40
  34 -10   6  129.69    6.20
  34   0  12  676.03   14.20
 -12  34   0  648.94   13.30
   0  34  12  684.73   14.70
  34  -2  12  308.17    8.10
   2  34  12  313.87    8.90
  12  34  -2  295.37    8.60
  34  12   2  308.77    9.20
 -12  34  -2  318.27    7.80
  12  34   2  291.67    8.80
  -2  34  12  311.27    8.90
  12  -2  34  306.27    7.80
  34  -4  12  104.39    5.30
 -34   4  12   99.39    5.60
  34  12   4  102.79    6.20
   4  34  12  115.19    6.10
  12  34  -4   98.29    5.70
  -4  34  12  112.99    5.60
  12  -4  34  101.09    4.80
  34 -12   4  107.59    5.80
 -12  34  -4  111.49    5.00
  -1  35  -1  391.16    9.70
  -1  35   1  391.26    9.80
   1  35  -1  390.76    9.80
   1  35   1  367.86    9.70
  35  -1   1  395.46   10.50
  35   1   1  381.46   10.50
   1  35   3   58.19    4.90
  -3  35   1   57.39    4.60
  -1  35  -3   50.69    4.20
  35  -1   3   61.29    5.00
  -3  35  -1   52.89    4.50
  35  -3   1   51.49    4.40
  35   3  -1   53.69    4.70
  35   1   3   62.79    4.80
  -1  35   3   54.59    4.30
   1  35  -3   54.89    4.30
   3  35   1   58.39    4.60
   3  35   3    1.80    2.70
   3  35  -3    1.20    2.40
  -3  35  -3    1.40    2.30
  -3  35   3    0.70    2.30
  35  -3   3    3.40    3.40
  35   3   3    1.30    3.10
  35   5   1   14.60    3.90
  -1  35  -5   10.40    2.80
  -5  35   1   15.30    3.10
  35  -1   5   13.40    3.40
   1  35   5   12.30    2.80
   5  35  -1    8.40    3.00
  -5  35  -1   15.40    3.10
   5  35   1   10.00    2.80
  35   1   5   16.00    3.40
  35  -5   1   15.70    3.50
  -1  35   5   11.50    2.90
   1  35  -5   11.90    2.90
  35   5  -1   11.20    3.60
  -3  35  -5   49.90    3.90
   5  35  -3   44.40    3.60
  -5  35   3   56.09    4.10
  35   3   5   59.99    4.40
   3  35  -5   54.49    4.20
  -3  35   5   45.20    3.70
  -5  35  -3   53.89    3.90
   5  35   3   51.59    4.30
  -5  35  -5  217.08    7.10
   5  -5  35  228.38    6.90
   5  35   5  229.68    7.70
  35  -5   5  220.48    7.70
  35   5   5  231.28    7.40
  35  -1   7   -2.50    2.50
  35   7   1   -2.00    3.60
  -1  35  -7    1.20    2.80
   1  -7  35   -3.80    2.10
   1  35   7    0.80    2.70
  -7  35   1   -2.00    2.40
   7  35  -1    0.80    3.00
   7  35   1    0.80    2.80
  -7  35  -1    0.20    2.20
  -1  -7  35    1.60    2.50
   1  35  -7   -1.30    2.80
  35   7  -1    0.80    3.70
  35   1   7    2.40    2.80
  -1  35   7    1.30    2.60
   7  35  -3   42.90    3.70
  -7  35   3   44.80    3.80
   3  -7  35   36.10    3.30
   3  35   7   30.70    3.70
  -3  35   7   35.40    3.30
   7  35   3   30.50    3.60
  -7  35  -3   35.00    3.10
  35  -7   3   37.40    3.90
   3  35  -7   31.10    3.60
   5  -7  35  265.47    7.70
   5  35   7  277.37    8.80
  -5  35  -7  273.47    8.10
  35   7   5  289.87    8.60
  35  -5   7  266.77    8.20
  35   5   7  289.27    8.50
  -7  35  -5  288.67    8.00
  -5  35   7  279.67    8.10
  35  -7   5  290.47    8.90
   7  -5  35  274.47    7.40
   1  35   9  408.76   10.60
   9  35  -1  418.26   10.50
  -9  35   1  395.86    9.70
  35   9   1  412.36   11.40
  35   1   9  425.86   10.40
  -9  35  -1  405.96    9.30
   9  35   1  400.76   10.20
  -1  35   9  411.56   10.40
  35  -3   9  166.28    6.10
  -9  35   3  156.08    6.00
   3  35   9  163.28    6.80
   9  35   3  171.68    6.70
  -3  35   9  166.58    6.40
   3  35  -9  160.28    6.70
   9  -3  35  156.78    5.70
  35  -9   3  166.78    7.00
   0  36   0   94.69    5.40
  36   0   0   89.89    6.10
  -2  36   0   70.39    4.90
   2  36   0   76.39    5.40
  36   0   2   74.39    6.00
  36   2   0   72.59    6.20
   0  36  -2   64.29    4.90
   0  36   2   75.29    5.30
  36   2   2   95.29    6.70
  -2  36  -2   93.39    5.00
  -2  36   2   83.39    5.30
   2  36  -2   88.39    5.40
   2  36   2   95.89    5.20
  -4  36   0   98.79    5.40
   0  36   4   90.19    5.40
  36   4   0  103.29    6.70
   0  36  -4   92.99    5.00
  -2  36  -4   49.40    3.90
  36   4   2   47.00    5.00
  -4  36   2   48.20    4.10
  36   2   4   51.79    4.80
  -2  36   4   49.60    4.00
   2  36  -4   50.29    4.00
  -4  36  -2   46.20    3.60
  36  -4   2   42.10    4.30
   4  36   2   48.50    4.20

_computing_structure_solution     'SHELXT 2014/4 (Sheldrick, 2014)'
;
_shelx_hkl_checksum              15345
_shelx_fab_checksum              8130
_shelx_fab_file
;
    1    1    3    -15.96      0.00
    1    3    3    135.45      0.00
    0    2    4    110.42      0.00
    2    2    4    -93.76      0.00
    0    4    4    180.03      0.00
    2    4    4     25.99      0.00
    4    4    4    -85.32      0.00
    1    1    5    -59.86      0.00
    1    3    5     18.60      0.00
    3    3    5    -89.10      0.00
    1    5    5     64.69      0.00
    0    2    6    -24.26      0.00
    2    2    6     82.13      0.00
    0    4    6     -3.73      0.00
    2    4    6     11.84      0.00
    4    4    6     62.45      0.00
    0    6    6      4.53      0.00
    2    6    6    -35.30      0.00
    4    6    6    -24.49      0.00
    1    1    7     71.63      0.00
    1    3    7   -125.42      0.00
    3    3    7    132.53      0.00
    1    5    7    -30.23      0.00
    3    5    7     66.05      0.00
    5    5    7     36.11      0.00
    1    7    7     88.47      0.00
    3    7    7   -106.70      0.00
    5    7    7    -15.56      0.00
    0    2    8   -100.01      0.00
    2    2    8     56.83      0.00
    0    4    8   -141.70      0.00
    2    4    8      0.01      0.00
    4    4    8     81.93      0.00
    0    6    8     -0.03      0.00
    2    6    8     -2.10      0.00
    4    6    8    -13.71      0.00
    6    6    8    -26.02      0.00
    0    8    8    139.61      0.00
    2    8    8     -5.16      0.00
    4    8    8    -67.25      0.00
    6    8    8     17.41      0.00
    8    8    8     52.58      0.00
    1    3    9      5.53      0.00
    3    3    9    -19.95      0.00
    1    5    9    -36.47      0.00
    3    5    9     44.00      0.00
    5    5    9     54.17      0.00
    1    7    9      6.26      0.00
    3    7    9    -25.72      0.00
    5    7    9    -33.36      0.00
    7    7    9     11.49      0.00
    1    9    9     15.58      0.00
    3    9    9    -22.83      0.00
    5    9    9    -25.66      0.00
    7    9    9     14.16      0.00
    9    9    9      4.94      0.00
    0    2   10     70.28      0.00
    2    2   10    -26.98      0.00
    0    4   10     29.55      0.00
    2    4   10     -2.16      0.00
    4    4   10    -34.98      0.00
    0    6   10    -31.82      0.00
    2    6   10     15.13      0.00
    4    6   10     37.60      0.00
    6    6   10    -19.13      0.00
    0    8   10    -14.56      0.00
    2    8   10     21.00      0.00
    4    8   10      1.91      0.00
    6    8   10     -3.31      0.00
    8    8   10     10.40      0.00
    0   10   10     25.30      0.00
    2   10   10    -19.97      0.00
    4   10   10    -28.45      0.00
    6   10   10     -6.65      0.00
    8   10   10     13.46      0.00
   10   10   10      3.48      0.00
    1    1   11    -21.91      0.00
    1    3   11     26.62      0.00
    3    3   11    -48.67      0.00
    1    5   11     13.56      0.00
    3    5   11    -23.44      0.00
    5    5   11    -10.30      0.00
    1    7   11    -35.47      0.00
    3    7   11     33.63      0.00
    5    7   11      4.23      0.00
    7    7   11    -34.30      0.00
    1    9   11     -0.34      0.00
    3    9   11      6.23      0.00
    5    9   11     25.08      0.00
    7    9   11     -2.49      0.00
    9    9   11    -13.92      0.00
    1   11   11     20.15      0.00
    3   11   11    -18.20      0.00
    5   11   11    -11.18      0.00
    7   11   11     25.46      0.00
    9   11   11      1.48      0.00
   11   11   11      0.23      0.00
    0    2   12     12.80      0.00
    2    2   12    -21.24      0.00
    0    4   12     58.54      0.00
    2    4   12     22.46      0.00
    4    4   12    -79.95      0.00
    0    6   12     11.17      0.00
    2    6   12      0.83      0.00
    4    6   12     -2.14      0.00
    6    6   12      6.18      0.00
    0    8   12    -56.99      0.00
    2    8   12     -4.33      0.00
    4    8   12     59.89      0.00
    6    8   12     -7.88      0.00
    8    8   12    -35.66      0.00
    0   10   12      0.10      0.00
    2   10   12     -5.06      0.00
    4   10   12     -2.34      0.00
    6   10   12      4.24      0.00
    8   10   12     -6.43      0.00
   10   10   12     -7.53      0.00
    0   12   12     30.12      0.00
    2   12   12     15.61      0.00
    4   12   12    -24.29      0.00
    6   12   12      5.92      0.00
    8   12   12     24.17      0.00
   10   12   12     -2.16      0.00
   12   12   12    -16.78      0.00
    1    1   13    -13.30      0.00
    1    3   13     20.93      0.00
    3    3   13    -16.44      0.00
    1    5   13     32.87      0.00
    3    5   13    -34.11      0.00
    5    5   13    -11.58      0.00
    1    7   13    -19.04      0.00
    3    7   13     17.07      0.00
    5    7   13     14.29      0.00
    7    7   13    -11.91      0.00
    1    9   13    -20.12      0.00
    3    9   13     24.95      0.00
    5    9   13     16.84      0.00
    7    9   13     -7.43      0.00
    9    9   13    -18.31      0.00
    1   11   13     -0.60      0.00
    3   11   13     -8.60      0.00
    5   11   13     -9.40      0.00
    7   11   13     -0.37      0.00
    9   11   13      6.60      0.00
   11   11   13     -0.86      0.00
    1   13   13     22.56      0.00
    3   13   13    -25.09      0.00
    5   13   13    -18.64      0.00
    7   13   13      8.68      0.00
    9   13   13     14.11      0.00
   11   13   13     -5.69      0.00
   13   13   13    -14.83      0.00
    0    0   14      1.76      0.00
    0    2   14     -7.36      0.00
    2    2   14     20.31      0.00
    0    4   14      3.15      0.00
    2    4   14    -13.23      0.00
    4    4   14     27.55      0.00
    0    6   14      8.46      0.00
    2    6   14      4.24      0.00
    4    6   14    -30.57      0.00
    6    6   14     16.46      0.00
    0    8   14    -15.41      0.00
    2    8   14     -2.97      0.00
    4    8   14      5.74      0.00
    6    8   14      8.27      0.00
    8    8   14     -7.38      0.00
    0   10   14    -14.75      0.00
    2   10   14     -0.32      0.00
    4   10   14     14.46      0.00
    6   10   14     -5.63      0.00
    8   10   14     -8.90      0.00
   10   10   14      8.17      0.00
    0   12   14     13.72      0.00
    2   12   14     -0.87      0.00
    4   12   14     -3.22      0.00
    6   12   14     -5.19      0.00
    8   12   14      7.92      0.00
   10   12   14      7.44      0.00
   12   12   14     -3.29      0.00
    0   14   14      7.78      0.00
    2   14   14     -7.69      0.00
    4   14   14    -18.50      0.00
    6   14   14      3.36      0.00
    8   14   14      8.66      0.00
   10   14   14     -4.56      0.00
   12   14   14     -0.91      0.00
   14   14   14      4.26      0.00
    1    1   15      8.01      0.00
    1    3   15    -29.96      0.00
    3    3   15     29.53      0.00
    1    5   15     -1.76      0.00
    3    5   15     11.67      0.00
    5    5   15     -4.05      0.00
    1    7   15     18.49      0.00
    3    7   15    -25.37      0.00
    5    7   15      2.19      0.00
    7    7   15     10.38      0.00
    1    9   15      9.86      0.00
    3    9   15     -0.72      0.00
    5    9   15     -5.08      0.00
    7    9   15     -0.79      0.00
    9    9   15      1.88      0.00
    1   11   15    -14.09      0.00
    3   11   15     14.62      0.00
    5   11   15      6.14      0.00
    7   11   15    -10.99      0.00
    9   11   15     -1.17      0.00
   11   11   15      2.64      0.00
    1   13   15      1.83      0.00
    3   13   15      5.47      0.00
    5   13   15      0.73      0.00
    7   13   15      3.36      0.00
    9   13   15     -0.46      0.00
   11   13   15      1.06      0.00
   13   13   15     -5.98      0.00
    1   15   15      3.44      0.00
    3   15   15     -3.51      0.00
    5   15   15     -1.69      0.00
    7   15   15      6.45      0.00
    9   15   15     -2.02      0.00
   11   15   15     -3.75      0.00
   13   15   15      2.66      0.00
   15   15   15      4.11      0.00
    0    0   16     75.33      0.00
    0    2   16    -15.54      0.00
    2    2   16     18.98      0.00
    0    4   16    -33.03      0.00
    2    4   16     -4.78      0.00
    4    4   16     29.54      0.00
    0    6   16      1.22      0.00
    2    6   16     -1.46      0.00
    4    6   16      6.89      0.00
    6    6   16     -5.66      0.00
    0    8   16     29.62      0.00
    2    8   16      1.06      0.00
    4    8   16    -29.19      0.00
    6    8   16      3.79      0.00
    8    8   16     18.09      0.00
    0   10   16     -4.39      0.00
    2   10   16      4.58      0.00
    4   10   16     -0.55      0.00
    6   10   16     -4.24      0.00
    8   10   16      5.38      0.00
   10   10   16      1.04      0.00
    0   12   16     -8.64      0.00
    2   12   16     -1.01      0.00
    4   12   16     14.37      0.00
    6   12   16      0.09      0.00
    8   12   16    -13.35      0.00
   10   12   16     -2.87      0.00
   12   12   16      5.77      0.00
    0   14   16     -6.73      0.00
    2   14   16     -1.32      0.00
    4   14   16      6.02      0.00
    6   14   16      2.85      0.00
    8   14   16     -5.87      0.00
   10   14   16     -3.26      0.00
   12   14   16      3.19      0.00
   14   14   16      2.41      0.00
    0   16   16     19.94      0.00
    2   16   16      4.64      0.00
    4   16   16     -6.96      0.00
    6   16   16      0.25      0.00
    8   16   16      8.39      0.00
   10   16   16      3.02      0.00
   12   16   16     -3.79      0.00
   14   16   16     -5.31      0.00
   16   16   16     -0.37      0.00
    1    1   17     19.90      0.00
    1    3   17     -8.68      0.00
    3    3   17      7.21      0.00
    1    5   17    -21.97      0.00
    3    5   17     21.26      0.00
    5    5   17     17.02      0.00
    1    7   17      4.76      0.00
    3    7   17    -11.55      0.00
    5    7   17    -11.36      0.00
    7    7   17      9.32      0.00
    1    9   17     16.26      0.00
    3    9   17    -17.34      0.00
    5    9   17    -13.60      0.00
    7    9   17      7.67      0.00
    9    9   17     14.77      0.00
    1   11   17     -6.61      0.00
    3   11   17     -0.77      0.00
    5   11   17      4.76      0.00
    7   11   17      0.69      0.00
    9   11   17     -5.87      0.00
   11   11   17      2.86      0.00
    1   13   17    -17.83      0.00
    3   13   17     17.59      0.00
    5   13   17     11.97      0.00
    7   13   17    -10.87      0.00
    9   13   17    -10.20      0.00
   11   13   17      7.05      0.00
   13   13   17     10.09      0.00
    1   15   17     -0.05      0.00
    3   15   17     -5.40      0.00
    5   15   17     -3.18      0.00
    7   15   17     -1.33      0.00
    9   15   17      0.48      0.00
   11   15   17      0.22      0.00
   13   15   17     -2.09      0.00
   15   15   17      0.94      0.00
    1   17   17      7.13      0.00
    3   17   17     -9.66      0.00
    5   17   17     -8.94      0.00
    7   17   17     10.19      0.00
    9   17   17      8.03      0.00
   11   17   17     -6.99      0.00
   13   17   17    -10.86      0.00
   15   17   17      3.17      0.00
   17   17   17      8.49      0.00
    0    2   18      7.41      0.00
    2    2   18     -9.74      0.00
    0    4   18    -12.06      0.00
    2    4   18     -0.19      0.00
    4    4   18     -0.57      0.00
    0    6   18     -7.77      0.00
    2    6   18      0.98      0.00
    4    6   18     16.03      0.00
    6    6   18     -8.50      0.00
    0    8   18     13.75      0.00
    2    8   18      5.40      0.00
    4    8   18    -13.71      0.00
    6    8   18     -6.65      0.00
    8    8   18      9.66      0.00
    0   10   18     13.04      0.00
    2   10   18     -1.89      0.00
    4   10   18     -9.75      0.00
    6   10   18      1.36      0.00
    8   10   18      8.35      0.00
   10   10   18     -1.87      0.00
    0   12   18    -10.22      0.00
    2   12   18      0.06      0.00
    4   12   18      9.71      0.00
    6   12   18      1.51      0.00
    8   12   18     -8.44      0.00
   10   12   18     -4.90      0.00
   12   12   18      7.84      0.00
    0   14   18    -13.02      0.00
    2   14   18      0.27      0.00
    4   14   18      9.22      0.00
    6   14   18      1.05      0.00
    8   14   18     -6.80      0.00
   10   14   18      2.00      0.00
   12   14   18      4.24      0.00
   14   14   18      2.13      0.00
    0   16   18      6.55      0.00
    2   16   18     -0.10      0.00
    4   16   18     -5.60      0.00
    6   16   18     -1.18      0.00
    8   16   18      6.04      0.00
   10   16   18      1.86      0.00
   12   16   18     -4.92      0.00
   14   16   18      0.04      0.00
   16   16   18      4.35      0.00
    0   18   18     11.13      0.00
    2   18   18     -4.85      0.00
    4   18   18    -11.98      0.00
    6   18   18     -1.67      0.00
    8   18   18      5.46      0.00
   10   18   18      0.56      0.00
   12   18   18     -2.68      0.00
   14   18   18     -0.36      0.00
   16   18   18      1.14      0.00
   18   18   18      2.84      0.00
    1    1   19     -3.19      0.00
    1    3   19      4.99      0.00
    3    3   19    -10.55      0.00
    1    5   19      0.27      0.00
    3    5   19      0.43      0.00
    5    5   19      0.92      0.00
    1    7   19     -4.73      0.00
    3    7   19      7.58      0.00
    5    7   19      0.60      0.00
    7    7   19     -3.20      0.00
    1    9   19      2.92      0.00
    3    9   19      0.20      0.00
    5    9   19      1.15      0.00
    7    9   19      0.69      0.00
    9    9   19      1.23      0.00
    1   11   19      6.75      0.00
    3   11   19     -6.01      0.00
    5   11   19     -2.30      0.00
    7   11   19      5.51      0.00
    9   11   19     -1.47      0.00
   11   11   19     -1.74      0.00
    1   13   19     -2.23      0.00
    3   13   19      4.25      0.00
    5   13   19      3.22      0.00
    7   13   19     -0.82      0.00
    9   13   19     -3.15      0.00
   11   13   19     -1.11      0.00
   13   13   19      0.25      0.00
    1   15   19     -0.85      0.00
    3   15   19      3.78      0.00
    5   15   19      0.50      0.00
    7   15   19     -3.85      0.00
    9   15   19      0.67      0.00
   11   15   19      1.55      0.00
   13   15   19     -0.72      0.00
   15   15   19     -0.59      0.00
    1   17   19      2.94      0.00
    3   17   19      1.44      0.00
    5   17   19      0.14      0.00
    7   17   19      0.87      0.00
    9   17   19      0.68      0.00
   11   17   19      1.67      0.00
   13   17   19      2.26      0.00
   15   17   19     -1.70      0.00
   17   17   19     -2.26      0.00
    1   19   19      2.48      0.00
    3   19   19     -0.61      0.00
    5   19   19     -1.73      0.00
    7   19   19      2.21      0.00
    9   19   19      0.24      0.00
   11   19   19     -1.06      0.00
   13   19   19     -0.60      0.00
   15   19   19     -0.56      0.00
   17   19   19      1.64      0.00
   19   19   19      0.81      0.00
    0    2   20      4.37      0.00
    2    2   20     -0.21      0.00
    0    4   20     13.03      0.00
    2    4   20      7.51      0.00
    4    4   20    -20.83      0.00
    0    6   20      0.22      0.00
    2    6   20     -2.11      0.00
    4    6   20     -0.69      0.00
    6    6   20      1.12      0.00
    0    8   20    -14.01      0.00
    2    8   20     -4.14      0.00
    4    8   20     15.43      0.00
    6    8   20     -3.59      0.00
    8    8   20     -9.72      0.00
    0   10   20     -3.15      0.00
    2   10   20     -0.92      0.00
    4   10   20     -0.17      0.00
    6   10   20      2.94      0.00
    8   10   20     -3.87      0.00
   10   10   20      1.87      0.00
    0   12   20      7.96      0.00
    2   12   20      0.16      0.00
    4   12   20     -8.96      0.00
    6   12   20      0.25      0.00
    8   12   20      8.76      0.00
   10   12   20      0.22      0.00
   12   12   20     -7.65      0.00
    0   14   20      4.54      0.00
    2   14   20     -0.58      0.00
    4   14   20     -1.68      0.00
    6   14   20     -2.12      0.00
    8   14   20      2.90      0.00
   10   14   20     -0.26      0.00
   12   14   20     -2.38      0.00
   14   14   20      0.41      0.00
    0   16   20     -6.61      0.00
    2   16   20      1.29      0.00
    4   16   20      5.06      0.00
    6   16   20     -0.01      0.00
    8   16   20     -6.69      0.00
   10   16   20     -1.18      0.00
   12   16   20      2.14      0.00
   14   16   20      0.54      0.00
   16   16   20     -5.41      0.00
    0   18   20     -3.26      0.00
    2   18   20      0.12      0.00
    4   18   20      2.83      0.00
    6   18   20      0.55      0.00
    8   18   20     -3.42      0.00
   10   18   20      0.05      0.00
   12   18   20      1.89      0.00
   14   18   20     -1.34      0.00
   16   18   20     -3.03      0.00
   18   18   20      0.31      0.00
    0   20   20      7.67      0.00
    2   20   20     -1.44      0.00
    4   20   20     -2.79      0.00
    6   20   20      1.16      0.00
    8   20   20      4.89      0.00
   10   20   20      1.11      0.00
   12   20   20     -3.21      0.00
   14   20   20     -0.52      0.00
   16   20   20      4.68      0.00
   18   20   20      0.54      0.00
    1    1   21    -12.97      0.00
    1    3   21      8.27      0.00
    3    3   21     -7.63      0.00
    1    5   21     13.78      0.00
    3    5   21    -13.81      0.00
    5    5   21     -9.05      0.00
    1    7   21     -5.09      0.00
    3    7   21      6.25      0.00
    5    7   21      3.87      0.00
    7    7   21     -3.45      0.00
    1    9   21    -13.74      0.00
    3    9   21     10.60      0.00
    5    9   21     11.05      0.00
    7    9   21     -1.36      0.00
    9    9   21    -13.21      0.00
    1   11   21      0.69      0.00
    3   11   21     -1.40      0.00
    5   11   21     -3.41      0.00
    7   11   21      0.05      0.00
    9   11   21      4.08      0.00
   11   11   21     -0.28      0.00
    1   13   21     11.75      0.00
    3   13   21    -12.26      0.00
    5   13   21    -11.10      0.00
    7   13   21      7.45      0.00
    9   13   21      9.98      0.00
   11   13   21     -1.88      0.00
   13   13   21     -5.97      0.00
    1   15   21     -3.64      0.00
    3   15   21      0.65      0.00
    5   15   21      1.55      0.00
    7   15   21      0.41      0.00
    9   15   21     -0.37      0.00
   11   15   21      2.14      0.00
   13   15   21      2.88      0.00
   15   15   21     -1.48      0.00
    1   17   21     -9.19      0.00
    3   17   21      7.01      0.00
    5   17   21      7.30      0.00
    7   17   21     -6.07      0.00
    9   17   21     -5.65      0.00
   11   17   21      5.05      0.00
   13   17   21      6.63      0.00
   15   17   21     -1.67      0.00
   17   17   21     -2.63      0.00
    1   19   21     -1.11      0.00
    3   19   21     -0.55      0.00
    5   19   21     -1.37      0.00
    7   19   21      0.55      0.00
    9   19   21     -0.29      0.00
   11   19   21     -1.07      0.00
   13   19   21     -2.86      0.00
   15   19   21      1.80      0.00
   17   19   21      2.66      0.00
   19   19   21     -1.55      0.00
    1   21   21      3.82      0.00
    3   21   21     -4.03      0.00
    5   21   21     -4.04      0.00
    7   21   21      4.86      0.00
    9   21   21      2.39      0.00
   11   21   21     -5.13      0.00
   13   21   21     -2.43      0.00
   15   21   21      1.97      0.00
   17   21   21      0.54      0.00
   19   21   21     -3.09      0.00
    0    0   22    -24.58      0.00
    0    2   22      0.09      0.00
    2    2   22     -2.19      0.00
    0    4   22     14.36      0.00
    2    4   22     -2.75      0.00
    4    4   22     -5.27      0.00
    0    6   22      4.01      0.00
    2    6   22      2.55      0.00
    4    6   22     -8.91      0.00
    6    6   22      7.55      0.00
    0    8   22    -12.15      0.00
    2    8   22      0.56      0.00
    4    8   22     13.24      0.00
    6    8   22      1.57      0.00
    8    8   22    -10.87      0.00
    0   10   22     -4.19      0.00
    2   10   22      1.90      0.00
    4   10   22      7.78      0.00
    6   10   22     -3.74      0.00
    8   10   22     -5.83      0.00
   10   10   22      2.47      0.00
    0   12   22     12.15      0.00
    2   12   22     -1.26      0.00
    4   12   22     -9.78      0.00
    6   12   22      0.70      0.00
    8   12   22      5.59      0.00
   10   12   22      2.90      0.00
   12   12   22     -7.08      0.00
    0   14   22      8.50      0.00
    2   14   22     -0.17      0.00
    4   14   22     -6.54      0.00
    6   14   22     -0.58      0.00
    8   14   22      4.07      0.00
   10   14   22     -0.51      0.00
   12   14   22     -3.39      0.00
   14   14   22     -0.03      0.00
    0   16   22     -6.18      0.00
    2   16   22      1.02      0.00
    4   16   22      5.30      0.00
    6   16   22     -0.69      0.00
    8   16   22     -4.84      0.00
   10   16   22     -1.63      0.00
   12   16   22      4.58      0.00
   14   16   22      0.78      0.00
   16   16   22     -2.27      0.00
    0   18   22     -7.34      0.00
    2   18   22      0.60      0.00
    4   18   22      6.06      0.00
    6   18   22      0.75      0.00
    8   18   22     -2.97      0.00
   10   18   22     -1.06      0.00
   12   18   22      1.39      0.00
   14   18   22      2.48      0.00
   16   18   22      0.20      0.00
   18   18   22     -2.05      0.00
    0   20   22      3.02      0.00
    2   20   22     -0.32      0.00
    4   20   22     -2.35      0.00
    6   20   22      1.12      0.00
    8   20   22      1.61      0.00
   10   20   22     -0.28      0.00
   12   20   22     -1.88      0.00
   14   20   22      2.25      0.00
   16   20   22      1.34      0.00
   18   20   22     -0.31      0.00
   20   20   22     -2.32      0.00
    0   22   22      7.79      0.00
    2   22   22      0.21      0.00
    4   22   22     -5.80      0.00
    6   22   22     -1.63      0.00
    8   22   22      1.29      0.00
   10   22   22      3.72      0.00
   12   22   22      1.68      0.00
   14   22   22     -2.14      0.00
   16   22   22     -2.35      0.00
   18   22   22      2.16      0.00
    1    1   23     -0.34      0.00
    1    3   23      1.42      0.00
    3    3   23      3.08      0.00
    1    5   23      1.38      0.00
    3    5   23     -0.56      0.00
    5    5   23     -4.24      0.00
    1    7   23      0.40      0.00
    3    7   23     -2.17      0.00
    5    7   23     -0.19      0.00
    7    7   23      1.98      0.00
    1    9   23     -3.17      0.00
    3    9   23      1.12      0.00
    5    9   23      2.94      0.00
    7    9   23     -1.33      0.00
    9    9   23     -1.08      0.00
    1   11   23     -0.90      0.00
    3   11   23      3.57      0.00
    5   11   23      0.08      0.00
    7   11   23     -0.99      0.00
    9   11   23     -0.10      0.00
   11   11   23     -0.10      0.00
    1   13   23      4.27      0.00
    3   13   23     -1.65      0.00
    5   13   23     -1.08      0.00
    7   13   23      1.31      0.00
    9   13   23      1.46      0.00
   11   13   23     -0.97      0.00
   13   13   23     -0.51      0.00
    1   15   23      2.05      0.00
    3   15   23     -1.15      0.00
    5   15   23     -1.60      0.00
    7   15   23      3.02      0.00
    9   15   23      0.85      0.00
   11   15   23     -0.86      0.00
   13   15   23     -2.93      0.00
   15   15   23     -2.26      0.00
    1   17   23     -1.23      0.00
    3   17   23      2.34      0.00
    5   17   23      2.00      0.00
    7   17   23     -0.29      0.00
    9   17   23     -1.98      0.00
   11   17   23     -1.91      0.00
   13   17   23     -0.17      0.00
   15   17   23      2.47      0.00
   17   17   23     -1.62      0.00
    1   19   23     -2.03      0.00
    3   19   23      2.36      0.00
    5   19   23      1.82      0.00
    7   19   23     -2.54      0.00
    9   19   23     -1.42      0.00
   11   19   23      1.05      0.00
   13   19   23      1.97      0.00
   15   19   23      0.29      0.00
   17   19   23     -2.48      0.00
   19   19   23     -1.22      0.00
    1   21   23      0.59      0.00
    3   21   23      0.22      0.00
    5   21   23     -1.40      0.00
    7   21   23     -0.55      0.00
    9   21   23      1.83      0.00
   11   21   23      1.07      0.00
   13   21   23     -0.79      0.00
   15   21   23     -2.01      0.00
   17   21   23      0.85      0.00
    1   23   23      2.45      0.00
    3   23   23     -2.80      0.00
    5   23   23     -1.76      0.00
    7   23   23      0.55      0.00
    9   23   23      2.06      0.00
   11   23   23     -1.19      0.00
   13   23   23     -2.88      0.00
   15   23   23      0.21      0.00
    0    2   24     -2.35      0.00
    2    2   24      3.05      0.00
    0    4   24     -8.68      0.00
    2    4   24     -1.72      0.00
    4    4   24      7.09      0.00
    0    6   24      0.00      0.00
    2    6   24     -0.35      0.00
    4    6   24      1.58      0.00
    6    6   24     -0.72      0.00
    0    8   24      7.78      0.00
    2    8   24     -1.06      0.00
    4    8   24     -8.19      0.00
    6    8   24      0.75      0.00
    8    8   24      5.66      0.00
    0   10   24      0.34      0.00
    2   10   24     -1.18      0.00
    4   10   24     -1.13      0.00
    6   10   24     -0.04      0.00
    8   10   24      1.62      0.00
   10   10   24     -1.61      0.00
    0   12   24    -11.54      0.00
    2   12   24      0.25      0.00
    4   12   24      5.54      0.00
    6   12   24     -1.14      0.00
    8   12   24     -5.18      0.00
   10   12   24      0.73      0.00
   12   12   24      5.46      0.00
    0   14   24     -2.08      0.00
    2   14   24     -0.40      0.00
    4   14   24      1.21      0.00
    6   14   24      0.95      0.00
    8   14   24     -2.23      0.00
   10   14   24      1.02      0.00
   12   14   24      1.37      0.00
   14   14   24     -0.12      0.00
    0   16   24      6.58      0.00
    2   16   24     -2.36      0.00
    4   16   24     -3.78      0.00
    6   16   24     -0.04      0.00
    8   16   24      4.08      0.00
   10   16   24      0.73      0.00
   12   16   24     -4.33      0.00
   14   16   24      0.87      0.00
   16   16   24      3.39      0.00
    0   18   24      0.13      0.00
    2   18   24     -0.19      0.00
    4   18   24     -1.26      0.00
    6   18   24      0.74      0.00
    8   18   24      1.28      0.00
   10   18   24      0.09      0.00
   12   18   24     -0.94      0.00
   14   18   24     -0.51      0.00
   16   18   24     -0.47      0.00
   18   18   24      0.47      0.00
    0   20   24     -5.37      0.00
    2   20   24      1.06      0.00
    4   20   24      2.96      0.00
    6   20   24      0.41      0.00
    8   20   24     -3.59      0.00
   10   20   24     -0.90      0.00
   12   20   24      2.97      0.00
   14   20   24     -1.08      0.00
   16   20   24     -3.69      0.00
   18   20   24      1.20      0.00
    0   22   24      0.43      0.00
    2   22   24     -0.68      0.00
    4   22   24      0.44      0.00
    6   22   24      0.79      0.00
    8   22   24     -0.60      0.00
   10   22   24      0.51      0.00
   12   22   24      0.65      0.00
   14   22   24     -0.99      0.00
   16   22   24      0.38      0.00
    0   24   24      2.38      0.00
    2   24   24     -0.79      0.00
    4   24   24     -1.78      0.00
    6   24   24      0.55      0.00
    8   24   24      3.08      0.00
   10   24   24     -0.70      0.00
   12   24   24     -3.86      0.00
    1    1   25     -3.69      0.00
    1    3   25     -4.70      0.00
    3    3   25      7.35      0.00
    1    5   25     -7.49      0.00
    3    5   25      6.51      0.00
    5    5   25      7.10      0.00
    1    7   25      4.14      0.00
    3    7   25     -2.90      0.00
    5    7   25     -2.88      0.00
    7    7   25      2.18      0.00
    1    9   25      8.40      0.00
    3    9   25     -6.37      0.00
    5    9   25     -7.26      0.00
    7    9   25      5.80      0.00
    9    9   25      7.17      0.00
    1   11   25     -1.09      0.00
    3   11   25      1.52      0.00
    5   11   25      2.63      0.00
    7   11   25     -1.23      0.00
    9   11   25     -1.85      0.00
   11   11   25      1.58      0.00
    1   13   25     -6.32      0.00
    3   13   25      5.54      0.00
    5   13   25      6.62      0.00
    7   13   25     -5.79      0.00
    9   13   25     -5.86      0.00
   11   13   25      3.97      0.00
   13   13   25      4.92      0.00
    1   15   25      0.96      0.00
    3   15   25     -2.14      0.00
    5   15   25     -2.51      0.00
    7   15   25      1.91      0.00
    9   15   25      1.55      0.00
   11   15   25     -1.58      0.00
   13   15   25     -1.14      0.00
   15   15   25      2.51      0.00
    1   17   25      5.48      0.00
    3   17   25     -5.25      0.00
    5   17   25     -6.66      0.00
    7   17   25      5.11      0.00
    9   17   25      4.13      0.00
   11   17   25     -2.68      0.00
   13   17   25     -2.65      0.00
   15   17   25      1.64      0.00
   17   17   25      2.91      0.00
    1   19   25      0.18      0.00
    3   19   25      0.31      0.00
    5   19   25      0.22      0.00
    7   19   25     -1.24      0.00
    9   19   25     -0.03      0.00
   11   19   25      1.06      0.00
   13   19   25      1.79      0.00
   15   19   25     -1.66      0.00
   17   19   25      0.47      0.00
    1   21   25     -2.31      0.00
    3   21   25      3.65      0.00
    5   21   25      2.40      0.00
    7   21   25     -3.44      0.00
    9   21   25     -0.85      0.00
   11   21   25      1.10      0.00
   13   21   25      0.87      0.00
   15   21   25      0.21      0.00
    1   23   25     -0.84      0.00
    3   23   25      0.87      0.00
    5   23   25     -0.02      0.00
    7   23   25      0.87      0.00
    9   23   25     -1.87      0.00
   11   23   25     -0.88      0.00
    1   25   25      0.95      0.00
    3   25   25     -0.63      0.00
    5   25   25     -0.50      0.00
    7   25   25     -0.14      0.00
    0    2   26      3.00      0.00
    2    2   26     -1.17      0.00
    0    4   26    -11.91      0.00
    2    4   26     -2.13      0.00
    4    4   26      9.46      0.00
    0    6   26      0.62      0.00
    2    6   26      0.03      0.00
    4    6   26      2.85      0.00
    6    6   26     -2.78      0.00
    0    8   26      7.51      0.00
    2    8   26      1.00      0.00
    4    8   26     -9.69      0.00
    6    8   26     -1.25      0.00
    8    8   26      3.74      0.00
    0   10   26      5.58      0.00
    2   10   26      0.32      0.00
    4   10   26     -4.09      0.00
    6   10   26     -0.65      0.00
    8   10   26      1.64      0.00
   10   10   26     -1.69      0.00
    0   12   26     -7.29      0.00
    2   12   26      0.58      0.00
    4   12   26      7.47      0.00
    6   12   26     -0.71      0.00
    8   12   26     -5.30      0.00
   10   12   26     -1.27      0.00
   12   12   26      2.03      0.00
    0   14   26     -5.38      0.00
    2   14   26      1.20      0.00
    4   14   26      4.74      0.00
    6   14   26      0.45      0.00
    8   14   26     -1.81      0.00
   10   14   26     -1.51      0.00
   12   14   26      0.25      0.00
   14   14   26      1.54      0.00
    0   16   26      2.97      0.00
    2   16   26     -0.16      0.00
    4   16   26     -1.84      0.00
    6   16   26      1.24      0.00
    8   16   26      0.81      0.00
   10   16   26      0.43      0.00
   12   16   26     -1.83      0.00
   14   16   26     -1.11      0.00
   16   16   26      2.05      0.00
    0   18   26      4.15      0.00
    2   18   26      0.28      0.00
    4   18   26     -2.38      0.00
    6   18   26     -0.79      0.00
    8   18   26      0.60      0.00
   10   18   26      2.45      0.00
   12   18   26     -0.50      0.00
   14   18   26     -1.41      0.00
   16   18   26      0.17      0.00
    0   20   26     -0.27      0.00
    2   20   26     -0.79      0.00
    4   20   26     -0.35      0.00
    6   20   26     -0.78      0.00
    8   20   26     -0.43      0.00
   10   20   26      1.69      0.00
   12   20   26      0.82      0.00
   14   20   26      0.80      0.00
    0   22   26     -3.46      0.00
    2   22   26     -0.50      0.00
    4   22   26      2.18      0.00
    6   22   26      1.39      0.00
    8   22   26      0.03      0.00
   10   22   26     -2.02      0.00
   12   22   26      0.78      0.00
    0   24   26     -0.01      0.00
    2   24   26      0.29      0.00
    4   24   26     -0.25      0.00
    6   24   26      0.88      0.00
    8   24   26     -0.65      0.00
    1    1   27      1.16      0.00
    1    3   27      0.89      0.00
    3    3   27      2.59      0.00
    1    5   27     -3.16      0.00
    3    5   27      1.32      0.00
    5    5   27     -0.96      0.00
    1    7   27     -0.47      0.00
    3    7   27      0.17      0.00
    5    7   27      0.55      0.00
    7    7   27     -0.17      0.00
    1    9   27      1.75      0.00
    3    9   27     -1.57      0.00
    5    9   27     -1.08      0.00
    7    9   27      0.75      0.00
    9    9   27      3.02      0.00
    1   11   27     -0.47      0.00
    3   11   27     -1.19      0.00
    5   11   27      0.80      0.00
    7   11   27      1.86      0.00
    9   11   27      0.13      0.00
   11   11   27     -0.79      0.00
    1   13   27     -1.96      0.00
    3   13   27      1.28      0.00
    5   13   27      0.42      0.00
    7   13   27      1.24      0.00
    9   13   27     -1.21      0.00
   11   13   27     -1.50      0.00
   13   13   27      1.05      0.00
    1   15   27     -0.51      0.00
    3   15   27      1.06      0.00
    5   15   27      1.14      0.00
    7   15   27     -1.70      0.00
    9   15   27     -1.04      0.00
   11   15   27      0.60      0.00
   13   15   27      2.52      0.00
   15   15   27     -2.82      0.00
    1   17   27      1.67      0.00
    3   17   27     -1.39      0.00
    5   17   27     -1.45      0.00
    7   17   27      0.00      0.00
    9   17   27      0.99      0.00
   11   17   27      1.31      0.00
   13   17   27     -1.23      0.00
   15   17   27     -2.83      0.00
   17   17   27      1.78      0.00
    1   19   27      1.39      0.00
    3   19   27     -1.24      0.00
    5   19   27     -1.42      0.00
    7   19   27      2.05      0.00
    9   19   27      0.98      0.00
   11   19   27     -2.52      0.00
   13   19   27     -2.07      0.00
   15   19   27      1.91      0.00
    1   21   27      0.18      0.00
    3   21   27     -0.30      0.00
    5   21   27      0.92      0.00
    7   21   27      0.54      0.00
    9   21   27     -1.67      0.00
   11   21   27     -1.44      0.00
    1   23   27     -3.64      0.00
    3   23   27      2.54      0.00
    5   23   27      1.73      0.00
    7   23   27     -0.81      0.00
    0    0   28    -11.29      0.00
    0    2   28      0.79      0.00
    2    2   28     -3.97      0.00
    0    4   28      4.28      0.00
    2    4   28     -0.08      0.00
    4    4   28     -2.14      0.00
    0    6   28      1.57      0.00
    2    6   28     -0.14      0.00
    4    6   28      1.09      0.00
    6    6   28      1.74      0.00
    0    8   28     -5.79      0.00
    2    8   28     -0.42      0.00
    4    8   28      4.44      0.00
    6    8   28     -0.70      0.00
    8    8   28     -3.36      0.00
    0   10   28     -0.65      0.00
    2   10   28      0.14      0.00
    4   10   28     -0.61      0.00
    6   10   28      0.95      0.00
    8   10   28     -0.18      0.00
   10   10   28      1.47      0.00
    0   12   28      5.97      0.00
    2   12   28     -0.79      0.00
    4   12   28     -4.48      0.00
    6   12   28      0.23      0.00
    8   12   28      4.08      0.00
   10   12   28      0.23      0.00
   12   12   28     -1.32      0.00
    0   14   28      0.14      0.00
    2   14   28      0.37      0.00
    4   14   28     -0.57      0.00
    6   14   28     -0.77      0.00
    8   14   28      1.03      0.00
   10   14   28      1.63      0.00
   12   14   28     -1.21      0.00
   14   14   28     -1.63      0.00
    0   16   28     -5.10      0.00
    2   16   28      0.39      0.00
    4   16   28      3.24      0.00
    6   16   28      0.05      0.00
    8   16   28     -3.92      0.00
   10   16   28      0.22      0.00
   12   16   28      1.97      0.00
   14   16   28      2.26      0.00
   16   16   28     -1.89      0.00
    0   18   28      1.34      0.00
    2   18   28     -0.42      0.00
    4   18   28      0.94      0.00
    6   18   28     -0.61      0.00
    8   18   28     -0.10      0.00
   10   18   28      0.40      0.00
   12   18   28     -0.76      0.00
   14   18   28      0.38      0.00
    0   20   28      1.44      0.00
    2   20   28      0.28      0.00
    4   20   28     -2.15      0.00
    6   20   28      0.78      0.00
    8   20   28      2.05      0.00
   10   20   28     -0.48      0.00
    0   22   28     -1.53      0.00
    2   22   28      1.10      0.00
    4   22   28      1.29      0.00
    6   22   28     -0.25      0.00
    1    1   29     -3.60      0.00
    1    3   29      5.88      0.00
    3    3   29     -5.68      0.00
    1    5   29      3.73      0.00
    3    5   29     -4.54      0.00
    5    5   29     -5.85      0.00
    1    7   29     -1.85      0.00
    3    7   29      3.24      0.00
    5    7   29      1.70      0.00
    7    7   29      1.29      0.00
    1    9   29     -3.32      0.00
    3    9   29      5.07      0.00
    5    9   29      4.10      0.00
    7    9   29     -5.50      0.00
    9    9   29     -2.77      0.00
    1   11   29      2.41      0.00
    3   11   29     -1.92      0.00
    5   11   29     -1.99      0.00
    7   11   29      0.45      0.00
    9   11   29      1.78      0.00
   11   11   29     -2.54      0.00
    1   13   29      3.34      0.00
    3   13   29     -3.61      0.00
    5   13   29     -4.31      0.00
    7   13   29      2.41      0.00
    9   13   29      1.90      0.00
   11   13   29     -1.10      0.00
   13   13   29     -0.89      0.00
    1   15   29     -1.58      0.00
    3   15   29      1.43      0.00
    5   15   29      2.02      0.00
    7   15   29     -1.73      0.00
    9   15   29     -1.73      0.00
   11   15   29      2.35      0.00
   13   15   29      0.74      0.00
   15   15   29     -0.65      0.00
    1   17   29     -2.41      0.00
    3   17   29      1.27      0.00
    5   17   29      2.01      0.00
    7   17   29     -0.30      0.00
    9   17   29     -1.33      0.00
   11   17   29      0.62      0.00
   13   17   29      3.15      0.00
    1   19   29      0.41      0.00
    3   19   29     -1.17      0.00
    5   19   29     -0.80      0.00
    7   19   29      1.28      0.00
    9   19   29     -0.33      0.00
    1   21   29      0.82      0.00
    3   21   29     -1.16      0.00
    5   21   29     -0.58      0.00
    0    0   30     -7.43      0.00
    0    2   30      0.28      0.00
    2    2   30     -0.89      0.00
    0    4   30      6.04      0.00
    2    4   30      0.04      0.00
    4    4   30     -4.79      0.00
    0    6   30      0.20      0.00
    2    6   30     -0.74      0.00
    4    6   30     -0.61      0.00
    6    6   30     -0.07      0.00
    0    8   30     -5.02      0.00
    2    8   30     -1.05      0.00
    4    8   30      3.80      0.00
    6    8   30     -0.99      0.00
    8    8   30     -3.96      0.00
    0   10   30     -4.67      0.00
    2   10   30      0.93      0.00
    4   10   30      2.46      0.00
    6   10   30     -0.52      0.00
    8   10   30     -1.48      0.00
   10   10   30     -0.45      0.00
    0   12   30      4.54      0.00
    2   12   30     -0.07      0.00
    4   12   30     -2.56      0.00
    6   12   30      0.61      0.00
    8   12   30      2.42      0.00
   10   12   30     -0.32      0.00
   12   12   30     -2.67      0.00
    0   14   30      2.01      0.00
    2   14   30      0.02      0.00
    4   14   30     -1.13      0.00
    6   14   30      0.18      0.00
    8   14   30      1.52      0.00
   10   14   30      0.39      0.00
   12   14   30     -1.55      0.00
   14   14   30      0.16      0.00
    0   16   30     -0.26      0.00
    2   16   30      0.78      0.00
    4   16   30     -0.76      0.00
    6   16   30     -1.37      0.00
    8   16   30      0.72      0.00
   10   16   30      0.36      0.00
   12   16   30     -1.29      0.00
    0   18   30     -4.23      0.00
    2   18   30      0.31      0.00
    4   18   30      3.05      0.00
    6   18   30      1.65      0.00
    8   18   30     -2.66      0.00
    0   20   30     -1.08      0.00
    2   20   30     -0.95      0.00
    4   20   30      1.80      0.00
    1    1   31     -0.85      0.00
    1    3   31     -0.22      0.00
    3    3   31      1.93      0.00
    1    5   31      1.52      0.00
    3    5   31     -0.91      0.00
    5    5   31     -0.60      0.00
    1    7   31      0.33      0.00
    3    7   31      0.00      0.00
    5    7   31      1.18      0.00
    7    7   31      1.38      0.00
    1    9   31     -1.05      0.00
    3    9   31      0.22      0.00
    5    9   31      1.10      0.00
    7    9   31      2.11      0.00
    9    9   31     -0.89      0.00
    1   11   31     -0.81      0.00
    3   11   31     -0.12      0.00
    5   11   31      0.33      0.00
    7   11   31      0.05      0.00
    9   11   31      1.56      0.00
   11   11   31      0.75      0.00
    1   13   31      0.76      0.00
    3   13   31     -2.09      0.00
    5   13   31      0.77      0.00
    7   13   31      0.18      0.00
    9   13   31     -0.83      0.00
   11   13   31      1.63      0.00
   13   13   31      0.14      0.00
    1   15   31      1.98      0.00
    3   15   31     -1.00      0.00
    5   15   31     -0.35      0.00
    7   15   31      1.74      0.00
    9   15   31     -1.33      0.00
   11   15   31     -1.16      0.00
    1   17   31     -1.54      0.00
    3   17   31      2.34      0.00
    5   17   31      0.30      0.00
    7   17   31     -1.09      0.00
    0    0   32      7.06      0.00
    0    2   32     -1.88      0.00
    2    2   32      0.69      0.00
    0    4   32     -2.28      0.00
    2    4   32      0.39      0.00
    4    4   32      0.94      0.00
    0    6   32     -0.60      0.00
    2    6   32     -0.10      0.00
    4    6   32      0.15      0.00
    6    6   32     -0.45      0.00
    0    8   32      4.36      0.00
    2    8   32     -0.17      0.00
    4    8   32     -2.60      0.00
    6    8   32     -0.88      0.00
    8    8   32      2.54      0.00
    0   10   32      0.45      0.00
    2   10   32     -0.09      0.00
    4   10   32      0.22      0.00
    6   10   32     -0.21      0.00
    8   10   32      0.63      0.00
   10   10   32     -1.13      0.00
    0   12   32     -4.02      0.00
    2   12   32      1.63      0.00
    4   12   32      2.65      0.00
    6   12   32     -1.71      0.00
    8   12   32     -2.09      0.00
   10   12   32      1.44      0.00
   12   12   32     -2.31      0.00
    0   14   32      0.12      0.00
    2   14   32      0.23      0.00
    4   14   32     -0.62      0.00
    6   14   32     -0.89      0.00
    8   14   32     -0.30      0.00
    0   16   32      2.11      0.00
    2   16   32     -1.51      0.00
    4   16   32     -1.33      0.00
    6   16   32      0.31      0.00
    1    1   33      2.43      0.00
    1    3   33     -3.16      0.00
    3    3   33      3.23      0.00
    1    5   33     -1.37      0.00
    3    5   33      2.35      0.00
    5    5   33      2.47      0.00
    1    7   33      2.64      0.00
    3    7   33     -1.63      0.00
    5    7   33     -2.03      0.00
    7    7   33     -1.04      0.00
    1    9   33      1.37      0.00
    3    9   33     -2.06      0.00
    5    9   33     -1.72      0.00
    7    9   33      2.28      0.00
    9    9   33     -0.99      0.00
    1   11   33     -1.05      0.00
    3   11   33      1.88      0.00
    5   11   33      1.45      0.00
    7   11   33     -0.91      0.00
    9   11   33     -5.91      0.00
    1   13   33     -1.81      0.00
    3   13   33      1.12      0.00
    5   13   33      1.01      0.00
    7   13   33     -1.22      0.00
    1   15   33     -0.99      0.00
    0    0   34      0.17      0.00
    0    2   34      0.87      0.00
    2    2   34      0.06      0.00
    0    4   34     -1.84      0.00
    2    4   34     -1.13      0.00
    4    4   34      2.14      0.00
    0    6   34     -3.33      0.00
    2    6   34      0.27      0.00
    4    6   34     -1.14      0.00
    6    6   34     -1.64      0.00
    0    8   34      0.61      0.00
    2    8   34     -0.32      0.00
    4    8   34     -1.49      0.00
    6    8   34      2.02      0.00
    8    8   34      1.31      0.00
    2   10   34     -1.86      0.00
    4   10   34     -1.72      0.00
    6   10   34      0.57      0.00
    0   12   34     -2.08      0.00
    2   12   34     -0.29      0.00
    4   12   34      1.27      0.00
    1    1   35      1.16      0.00
    1    3   35      0.83      0.00
    3    3   35     -2.54      0.00
    1    5   35      0.11      0.00
    3    5   35      0.51      0.00
    5    5   35      3.35      0.00
    1    7   35     -0.99      0.00
    3    7   35      3.07      0.00
    5    7   35      0.93      0.00
    1    9   35     -0.40      0.00
    3    9   35      0.30      0.00
    0    0   36     -4.30      0.00
    0    2   36     -1.57      0.00
    2    2   36      0.53      0.00
    0    4   36      1.02      0.00
    2    4   36      2.05      0.00
    1    1    1   -129.53      0.00
    0    0    2   -262.15      0.00
    0    2    2    141.40      0.00
    2    2    2   -114.02      0.00
    3    3    3   -122.85      0.00
    0    0    4   -503.50      0.00
    3    5    5    -97.16      0.00
    5    5    5   -106.99      0.00
    0    0    6    123.07      0.00
    6    6    6     55.25      0.00
    7    7    7     74.24      0.00
    0    0    8    331.57      0.00
    1    1    9      4.83      0.00
    0    0   10   -122.17      0.00
    0    0   12   -135.84      0.00
    0    0   18    -12.64      0.00
    0    0   20    -13.32      0.00
   20   20   20     -1.55      0.00
    0    0   24     30.45      0.00
    0    0   26     25.39      0.00
    0    0    0      0.00      0.00
# SQUEEZE RESULTS
# Note: Data are Listed for all Voids in the P1 Unit Cell
# i.e. Centre of Gravity, Solvent Accessible Volume,
# Recovered number of Electrons in the Void and
# Details about the Squeezed Material
loop_
  _platon_squeeze_void_nr
  _platon_squeeze_void_average_x
  _platon_squeeze_void_average_y
  _platon_squeeze_void_average_z
  _platon_squeeze_void_volume
  _platon_squeeze_void_count_electrons
  _platon_squeeze_void_content
   1  0.405 -0.008 -0.004     11030      1466 ' '
# Missing Reflections Below sin(th)/lambda= 0.25
loop_
  _platon_missing_refln_index_h
  _platon_missing_refln_index_k
  _platon_missing_refln_index_l
  _platon_missing_refln_theta
    1    1    1     1.404
    0    0    2     1.621
    0    2    2     2.293
    2    2    2     2.808
    3    3    3     4.214
    0    0    4     3.243
    3    5    5     6.236
    5    5    5     7.035
    0    0    6     4.868
    6    6    6     8.452
    7    7    7     9.873
    0    0    8     6.496
    1    1    9     7.403
    0    0   10     8.130
    0    0   12     9.771
_platon_squeeze_void_probe_radius                  1.20
_platon_squeeze_details
)
TITL SOESC30-new_a.res in Fm-3m
CELL   26.8690   26.8690   26.8690     90.00     90.00     90.00
SPGR Fm-3m
# Solvent Accessible Volume =   10983.6
# Electrons Found in S.A.V. =    1422.7
# Note: Atoms in Void as Cxxx and Qxxx all others
C101 0.620 0.385 0.115 !       4.91 eA-3
C102 0.138 0.250 0.250 !       0.76 eA-3
Q103 0.369 0.499 0.078 !       0.67 eA-3
Q104 0.036 0.036 0.036 !       0.66 eA-3
C105 0.878 0.336 0.232 !       0.51 eA-3
Q106 0.438 0.437 0.063 !       0.51 eA-3
)
;
_shelx_shelxl_version_number     2014/7
_olex2_submission_special_instructions 'No special instructions were received'
loop_
_space_group_symop_operation_xyz
'x, y, z'
'-x, -y, z'
'-x, y, -z'
'x, -y, -z'
'z, x, y'
'z, -x, -y'
'-z, -x, y'
'-z, x, -y'
'y, z, x'
'-y, z, -x'
'y, -z, -x'
'-y, -z, x'
'y, x, -z'
'-y, -x, -z'
'y, -x, z'
'-y, x, z'
'x, z, -y'
'-x, z, y'
'-x, -z, -y'
'x, -z, y'
'z, y, -x'
'z, -y, x'
'-z, y, x'
'-z, -y, -x'
'x, y+1/2, z+1/2'
'-x, -y+1/2, z+1/2'
'-x, y+1/2, -z+1/2'
'x, -y+1/2, -z+1/2'
'z, x+1/2, y+1/2'
'z, -x+1/2, -y+1/2'
'-z, -x+1/2, y+1/2'
'-z, x+1/2, -y+1/2'
'y, z+1/2, x+1/2'
'-y, z+1/2, -x+1/2'
'y, -z+1/2, -x+1/2'
'-y, -z+1/2, x+1/2'
'y, x+1/2, -z+1/2'
'-y, -x+1/2, -z+1/2'
'y, -x+1/2, z+1/2'
'-y, x+1/2, z+1/2'
'x, z+1/2, -y+1/2'
'-x, z+1/2, y+1/2'
'-x, -z+1/2, -y+1/2'
'x, -z+1/2, y+1/2'
'z, y+1/2, -x+1/2'
'z, -y+1/2, x+1/2'
'-z, y+1/2, x+1/2'
'-z, -y+1/2, -x+1/2'
'x+1/2, y, z+1/2'
'-x+1/2, -y, z+1/2'
'-x+1/2, y, -z+1/2'
'x+1/2, -y, -z+1/2'
'z+1/2, x, y+1/2'
'z+1/2, -x, -y+1/2'
'-z+1/2, -x, y+1/2'
'-z+1/2, x, -y+1/2'
'y+1/2, z, x+1/2'
'-y+1/2, z, -x+1/2'
'y+1/2, -z, -x+1/2'
'-y+1/2, -z, x+1/2'
'y+1/2, x, -z+1/2'
'-y+1/2, -x, -z+1/2'
'y+1/2, -x, z+1/2'
'-y+1/2, x, z+1/2'
'x+1/2, z, -y+1/2'
'-x+1/2, z, y+1/2'
'-x+1/2, -z, -y+1/2'
'x+1/2, -z, y+1/2'
'z+1/2, y, -x+1/2'
'z+1/2, -y, x+1/2'
'-z+1/2, y, x+1/2'
'-z+1/2, -y, -x+1/2'
'x+1/2, y+1/2, z'
'-x+1/2, -y+1/2, z'
'-x+1/2, y+1/2, -z'
'x+1/2, -y+1/2, -z'
'z+1/2, x+1/2, y'
'z+1/2, -x+1/2, -y'
'-z+1/2, -x+1/2, y'
'-z+1/2, x+1/2, -y'
'y+1/2, z+1/2, x'
'-y+1/2, z+1/2, -x'
'y+1/2, -z+1/2, -x'
'-y+1/2, -z+1/2, x'
'y+1/2, x+1/2, -z'
'-y+1/2, -x+1/2, -z'
'y+1/2, -x+1/2, z'
'-y+1/2, x+1/2, z'
'x+1/2, z+1/2, -y'
'-x+1/2, z+1/2, y'
'-x+1/2, -z+1/2, -y'
'x+1/2, -z+1/2, y'
'z+1/2, y+1/2, -x'
'z+1/2, -y+1/2, x'
'-z+1/2, y+1/2, x'
'-z+1/2, -y+1/2, -x'
'-x, -y, -z'
'x, y, -z'
'x, -y, z'
'-x, y, z'
'-z, -x, -y'
'-z, x, y'
'z, x, -y'
'z, -x, y'
'-y, -z, -x'
'y, -z, x'
'-y, z, x'
'y, z, -x'
'-y, -x, z'
'y, x, z'
'-y, x, -z'
'y, -x, -z'
'-x, -z, y'
'x, -z, -y'
'x, z, y'
'-x, z, -y'
'-z, -y, x'
'-z, y, -x'
'z, -y, -x'
'z, y, x'
'-x, -y+1/2, -z+1/2'
'x, y+1/2, -z+1/2'
'x, -y+1/2, z+1/2'
'-x, y+1/2, z+1/2'
'-z, -x+1/2, -y+1/2'
'-z, x+1/2, y+1/2'
'z, x+1/2, -y+1/2'
'z, -x+1/2, y+1/2'
'-y, -z+1/2, -x+1/2'
'y, -z+1/2, x+1/2'
'-y, z+1/2, x+1/2'
'y, z+1/2, -x+1/2'
'-y, -x+1/2, z+1/2'
'y, x+1/2, z+1/2'
'-y, x+1/2, -z+1/2'
'y, -x+1/2, -z+1/2'
'-x, -z+1/2, y+1/2'
'x, -z+1/2, -y+1/2'
'x, z+1/2, y+1/2'
'-x, z+1/2, -y+1/2'
'-z, -y+1/2, x+1/2'
'-z, y+1/2, -x+1/2'
'z, -y+1/2, -x+1/2'
'z, y+1/2, x+1/2'
'-x+1/2, -y, -z+1/2'
'x+1/2, y, -z+1/2'
'x+1/2, -y, z+1/2'
'-x+1/2, y, z+1/2'
'-z+1/2, -x, -y+1/2'
'-z+1/2, x, y+1/2'
'z+1/2, x, -y+1/2'
'z+1/2, -x, y+1/2'
'-y+1/2, -z, -x+1/2'
'y+1/2, -z, x+1/2'
'-y+1/2, z, x+1/2'
'y+1/2, z, -x+1/2'
'-y+1/2, -x, z+1/2'
'y+1/2, x, z+1/2'
'-y+1/2, x, -z+1/2'
'y+1/2, -x, -z+1/2'
'-x+1/2, -z, y+1/2'
'x+1/2, -z, -y+1/2'
'x+1/2, z, y+1/2'
'-x+1/2, z, -y+1/2'
'-z+1/2, -y, x+1/2'
'-z+1/2, y, -x+1/2'
'z+1/2, -y, -x+1/2'
'z+1/2, y, x+1/2'
'-x+1/2, -y+1/2, -z'
'x+1/2, y+1/2, -z'
'x+1/2, -y+1/2, z'
'-x+1/2, y+1/2, z'
'-z+1/2, -x+1/2, -y'
'-z+1/2, x+1/2, y'
'z+1/2, x+1/2, -y'
'z+1/2, -x+1/2, y'
'-y+1/2, -z+1/2, -x'
'y+1/2, -z+1/2, x'
'-y+1/2, z+1/2, x'
'y+1/2, z+1/2, -x'
'-y+1/2, -x+1/2, z'
'y+1/2, x+1/2, z'
'-y+1/2, x+1/2, -z'
'y+1/2, -x+1/2, -z'
'-x+1/2, -z+1/2, y'
'x+1/2, -z+1/2, -y'
'x+1/2, z+1/2, y'
'-x+1/2, z+1/2, -y'
'-z+1/2, -y+1/2, x'
'-z+1/2, y+1/2, -x'
'z+1/2, -y+1/2, -x'
'z+1/2, y+1/2, x'
loop_
_atom_site_label
_atom_site_type_symbol
_atom_site_fract_x
_atom_site_fract_y
_atom_site_fract_z
_atom_site_U_iso_or_equiv
_atom_site_adp_type
_atom_site_occupancy
_atom_site_site_symmetry_order
_atom_site_calc_flag
_atom_site_refinement_flags_posn
_atom_site_refinement_flags_adp
_atom_site_refinement_flags_occupancy
Zr01 Zr 0.5000 0.09204(2) 0.5000 0.00846(10) Uani 1 8 d S T P
O002 O 0.57240(4) 0.13173(3) 0.5000 0.0188(2) Uani 1 2 d S T P
O003 O 0.44823(9) 0.05177(9) 0.44823(9) 0.0102(7) Uani 0.5 6 d S T P
C004 C 0.61728(5) 0.11728(5) 0.5000 0.0209(4) Uani 1 4 d S T P
C005 C 0.65672(5) 0.15672(5) 0.5000 0.0320(5) Uani 1 4 d S T P
C006 C 0.73045(5) 0.23045(5) 0.5000 0.0349(6) Uani 1 4 d S T P
O1 O 0.46152(9) 0.03848(9) 0.46152(9) 0.0085(6) Uani 0.5 6 d S T P
C2 C 0.68216(9) 0.24137(9) 0.48614(12) 0.0451(12) Uani 0.5 1 d . . .
C3 C 0.64499(9) 0.20528(9) 0.48623(13) 0.0460(11) Uani 0.5 1 d . . .
C0AA C 0.5921(2) 0.2264(2) 0.4656(4) 0.069(3) Uani 0.25 1 d . . .
H2 H 0.6764(11) 0.2722(13) 0.4772(11) 0.045(10) Uiso 0.5 1 d . . .
loop_
_atom_site_aniso_label
_atom_site_aniso_U_11
_atom_site_aniso_U_22
_atom_site_aniso_U_33
_atom_site_aniso_U_23
_atom_site_aniso_U_13
_atom_site_aniso_U_12
Zr01 0.01019(10) 0.00499(12) 0.01019(10) 0.000 0.000 0.000
O002 0.0177(5) 0.0122(4) 0.0265(5) 0.000 0.000 -0.0061(4)
O003 0.0102(7) 0.0102(7) 0.0102(7) 0.0020(8) -0.0020(8) 0.0020(8)
C004 0.0179(6) 0.0179(6) 0.0270(10) 0.000 0.000 -0.0088(7)
C005 0.0227(7) 0.0227(7) 0.0505(15) 0.000 0.000 -0.0147(8)
C006 0.0207(7) 0.0207(7) 0.0632(17) 0.000 0.000 -0.0114(9)
O1 0.0085(6) 0.0085(6) 0.0085(6) -0.0003(8) 0.0003(8) -0.0003(8)
C2 0.0249(10) 0.0192(10) 0.091(4) 0.0056(11) -0.0065(12) -0.0099(8)
C3 0.0219(10) 0.0278(11) 0.088(3) -0.0050(12) 0.0008(11) -0.0136(8)
C0AA 0.027(3) 0.025(3) 0.155(8) 0.034(4) -0.032(3) -0.012(2)
loop_
_atom_type_symbol
_atom_type_description
_atom_type_scat_dispersion_real
_atom_type_scat_dispersion_imag
_atom_type_scat_source
C C 0.0040 0.0020 'International Tables Vol C Tables 4.2.6.8 and 6.1.1.4'
H H 0.0000 0.0000 'International Tables Vol C Tables 4.2.6.8 and 6.1.1.4'
O O 0.0130 0.0070 'International Tables Vol C Tables 4.2.6.8 and 6.1.1.4'
Zr Zr -2.0870 0.6420 'International Tables Vol C Tables 4.2.6.8 and 6.1.1.4'
loop_
_geom_angle_atom_site_label_1
_geom_angle_atom_site_label_2
_geom_angle_atom_site_label_3
_geom_angle
_geom_angle_site_symmetry_1
_geom_angle_site_symmetry_3
O002 Zr01 O002 122.54(5) 23_655 21_556
O002 Zr01 O002 76.64(2) 21_556 3_656
O002 Zr01 O002 76.64(2) 23_655 3_656
O002 Zr01 O002 76.64(2) 21_556 .
O002 Zr01 O002 76.64(2) 23_655 .
O002 Zr01 O002 122.54(5) 3_656 .
O002 Zr01 O003 71.84(7) 23_655 98_556
O002 Zr01 O003 71.84(7) 23_655 3_656
O002 Zr01 O003 140.802(19) 3_656 100_655
O002 Zr01 O003 71.84(7) 3_656 98_556
O002 Zr01 O003 140.802(19) . 98_556
O002 Zr01 O003 140.802(19) 23_655 100_655
O002 Zr01 O003 140.802(19) 23_655 .
O002 Zr01 O003 140.802(19) 3_656 3_656
O002 Zr01 O003 71.85(7) 21_556 .
O002 Zr01 O003 71.84(7) . 100_655
O002 Zr01 O003 71.85(7) 3_656 .
O002 Zr01 O003 71.84(7) 21_556 100_655
O002 Zr01 O003 140.802(19) . .
O002 Zr01 O003 140.802(19) 21_556 98_556
O002 Zr01 O003 140.802(19) 21_556 3_656
O002 Zr01 O003 71.84(7) . 3_656
O003 Zr01 O003 122.37(19) . 3_656
O003 Zr01 O003 76.57(8) 3_656 98_556
O003 Zr01 O003 76.57(8) . 98_556
O003 Zr01 O003 122.37(19) 98_556 100_655
O003 Zr01 O003 76.57(8) . 100_655
O003 Zr01 O003 76.57(8) 3_656 100_655
O1 Zr01 O002 83.98(9) 3_656 23_655
O1 Zr01 O002 141.18(2) 3_656 21_556
O1 Zr01 O002 141.18(2) 98_556 21_556
O1 Zr01 O002 83.99(9) . 21_556
O1 Zr01 O002 141.18(2) 98_556 .
O1 Zr01 O002 83.98(9) 100_655 21_556
O1 Zr01 O002 141.18(2) 100_655 3_656
O1 Zr01 O002 141.18(2) . 23_655
O1 Zr01 O002 141.18(2) 3_656 3_656
O1 Zr01 O002 83.99(9) . 3_656
O1 Zr01 O002 83.98(9) 100_655 .
O1 Zr01 O002 141.18(2) . .
O1 Zr01 O002 83.98(9) 3_656 .
O1 Zr01 O002 141.18(2) 100_655 23_655
O1 Zr01 O002 83.98(9) 98_556 23_655
O1 Zr01 O002 83.98(9) 98_556 3_656
O1 Zr01 O003 70.24(9) . 98_556
O1 Zr01 O003 106.65(19) 98_556 100_655
O1 Zr01 O003 70.24(9) 98_556 3_656
O1 Zr01 O003 70.24(9) . 100_655
O1 Zr01 O003 70.24(9) 100_655 3_656
O1 Zr01 O003 70.24(9) 100_655 .
O1 Zr01 O003 15.72(9) 100_655 100_655
O1 Zr01 O003 106.65(19) 100_655 98_556
O1 Zr01 O003 106.64(19) . 3_656
O1 Zr01 O003 70.24(9) 3_656 100_655
O1 Zr01 O003 70.24(9) 98_556 .
O1 Zr01 O003 15.72(9) 98_556 98_556
O1 Zr01 O003 15.72(9) 3_656 3_656
O1 Zr01 O003 106.64(19) 3_656 .
O1 Zr01 O003 70.24(9) 3_656 98_556
O1 Zr01 O003 15.73(9) . .
O1 Zr01 O1 60.53(13) . 98_556
O1 Zr01 O1 60.53(13) 100_655 3_656
O1 Zr01 O1 90.9(2) 100_655 98_556
O1 Zr01 O1 60.53(13) 98_556 3_656
O1 Zr01 O1 60.53(13) . 100_655
O1 Zr01 O1 90.9(2) . 3_656
C004 O002 Zr01 133.42(10) . .
Zr01 O003 Zr01 102.32(11) . 125_655
Zr01 O003 Zr01 102.32(11) 177_556 125_655
Zr01 O003 Zr01 102.32(11) . 177_556
O1 O003 Zr01 64.08(9) . 125_655
O1 O003 Zr01 64.08(9) . 177_556
O1 O003 Zr01 64.08(9) . .
O002 C004 O002 125.69(17) . 85_546
O002 C004 C005 117.15(9) 85_546 .
O002 C004 C005 117.15(9) . .
C3 C005 C004 120.16(12) 182_545 .
C3 C005 C004 120.16(12) 85_546 .
C3 C005 C004 120.16(12) 98_556 .
C3 C005 C004 120.16(12) . .
C3 C005 C3 119.7(2) 98_556 182_545
C3 C005 C3 119.7(2) 85_546 .
C3 C005 C3 30.8(3) 98_556 .
C3 C005 C3 30.8(3) 85_546 182_545
C3 C005 C3 110.7(2) 182_545 .
C3 C005 C3 110.7(2) 85_546 98_556
C2 C006 C006 120.94(12) . 169_656
C2 C006 C006 120.94(12) 85_546 169_656
C2 C006 C006 120.94(12) 98_556 169_656
C2 C006 C006 120.94(12) 182_545 169_656
C2 C006 C2 31.3(3) 182_545 85_546
C2 C006 C2 109.0(2) 85_546 98_556
C2 C006 C2 109.0(2) . 182_545
C2 C006 C2 118.1(2) . 85_546
C2 C006 C2 118.1(2) 182_545 98_556
C2 C006 C2 31.3(3) . 98_556
Zr01 O1 Zr01 116.94(7) . 125_655
Zr01 O1 Zr01 116.94(7) . 177_556
Zr01 O1 Zr01 116.94(7) 177_556 125_655
O003 O1 Zr01 100.19(11) . .
O003 O1 Zr01 100.19(11) . 177_556
O003 O1 Zr01 100.19(11) . 125_655
C006 C2 C3 121.7(2) . .
C006 C2 C3 109.7(2) . 98_556
C006 C2 H2 116(2) . .
C2 C2 C006 74.37(14) 98_556 .
C2 C2 C3 61.93(16) 98_556 98_556
C2 C2 C3 89.9(2) 98_556 .
C2 C2 H2 106(2) 98_556 .
C3 C2 C3 28.0(3) . 98_556
C3 C2 H2 127(2) 98_556 .
C3 C2 H2 122(2) . .
C005 C3 C2 107.9(2) . 98_556
C005 C3 C0AA 104.7(3) . 98_556
C005 C3 C0AA 127.9(2) . .
C2 C3 C005 119.4(2) . .
C2 C3 C2 28.2(3) . 98_556
C2 C3 C0AA 112.6(3) . .
C2 C3 C0AA 119.9(3) 98_556 .
C2 C3 C0AA 108.2(3) . 98_556
C2 C3 C0AA 88.4(2) 98_556 98_556
C3 C3 C005 74.58(14) 98_556 .
C3 C3 C2 61.93(16) 98_556 98_556
C3 C3 C2 90.1(2) 98_556 .
C3 C3 C0AA 109.9(4) 98_556 .
C3 C3 C0AA 49.8(3) 98_556 98_556
C0AA C3 C0AA 60.1(7) . 98_556
C3 C0AA C3 20.3(2) . 98_556
C3 C0AA C0AA 70.1(4) . 98_556
C0AA C0AA C3 49.8(3) 98_556 98_556
loop_
_geom_bond_atom_site_label_1
_geom_bond_atom_site_label_2
_geom_bond_distance
_geom_bond_site_symmetry_2
Zr01 O002 2.2182(10) 23_655
Zr01 O002 2.2182(10) 21_556
Zr01 O002 2.2182(10) 3_656
Zr01 O002 2.2183(10) .
Zr01 O003 2.2451(18) .
Zr01 O003 2.2452(18) 98_556
Zr01 O003 2.2452(18) 3_656
Zr01 O003 2.2452(18) 100_655
Zr01 O1 2.0517(8) .
Zr01 O1 2.0517(8) 98_556
Zr01 O1 2.0517(8) 3_656
Zr01 O1 2.0517(8) 100_655
O002 C004 1.2669(13) .
O003 Zr01 2.2451(18) 177_556
O003 Zr01 2.2451(18) 125_655
O003 O1 0.618(4) .
C004 O002 1.2670(13) 85_546
C004 C005 1.499(3) .
C005 C3 1.392(3) 182_545
C005 C3 1.392(3) 98_556
C005 C3 1.392(3) 85_546
C005 C3 1.392(3) .
C006 C006 1.485(4) 169_656
C006 C2 1.381(3) .
C006 C2 1.381(3) 85_546
C006 C2 1.381(3) 182_545
C006 C2 1.381(3) 98_556
O1 Zr01 2.0517(8) 177_556
O1 Zr01 2.0517(8) 125_655
C2 C2 0.745(7) 98_556
C2 C3 1.392(3) .
C2 C3 1.578(3) 98_556
C2 H2 0.88(3) .
C3 C2 1.578(3) 98_556
C3 C3 0.740(7) 98_556
C3 C0AA 1.627(6) .
C3 C0AA 2.004(7) 98_556
C0AA C3 2.004(7) 98_556
C0AA C0AA 1.85(2) 98_556
loop_
_geom_torsion_atom_site_label_1
_geom_torsion_atom_site_label_2
_geom_torsion_atom_site_label_3
_geom_torsion_atom_site_label_4
_geom_torsion
_geom_torsion_site_symmetry_1
_geom_torsion_site_symmetry_4
Zr01 O002 C004 O002 0.0 . 85_546
Zr01 O002 C004 C005 180.0 . .
Zr01 O003 O1 Zr01 -120.000(0) 125_655 177_556
Zr01 O003 O1 Zr01 120.000(1) 125_655 .
Zr01 O003 O1 Zr01 -120.000(1) 177_556 .
Zr01 O003 O1 Zr01 120.000(0) . 177_556
Zr01 O003 O1 Zr01 -120.000(0) . 125_655
Zr01 O003 O1 Zr01 120.000(0) 177_556 125_655
O002 C004 C005 C3 17.91(16) . 98_556
O002 C004 C005 C3 162.09(16) . 85_546
O002 C004 C005 C3 -162.09(16) . 182_545
O002 C004 C005 C3 17.91(16) 85_546 182_545
O002 C004 C005 C3 -17.91(16) 85_546 85_546
O002 C004 C005 C3 162.09(16) 85_546 .
O002 C004 C005 C3 -162.09(16) 85_546 98_556
O002 C004 C005 C3 -17.91(16) . .
C004 C005 C3 C2 152.20(14) . 98_556
C004 C005 C3 C2 -179.6(2) . .
C004 C005 C3 C3 99.22(9) . 98_556
C004 C005 C3 C0AA 59.1(3) . 98_556
C004 C005 C3 C0AA -4.2(6) . .
C005 C3 C0AA C3 85.6(4) . 98_556
C005 C3 C0AA C0AA 85.6(4) . 98_556
C006 C006 C2 C2 -99.66(9) 169_656 98_556
C006 C006 C2 C3 -179.6(2) 169_656 .
C006 C006 C2 C3 -151.39(15) 169_656 98_556
C006 C2 C3 C005 -0.8(5) . .
C006 C2 C3 C2 71.5(3) . 98_556
C006 C2 C3 C3 71.5(3) . 98_556
C006 C2 C3 C0AA 118.7(4) . 98_556
C006 C2 C3 C0AA -176.9(5) . .
C2 C006 C2 C2 113.1(2) 182_545 98_556
C2 C006 C2 C2 80.34(9) 85_546 98_556
C2 C006 C2 C3 33.2(5) 182_545 .
C2 C006 C2 C3 28.61(15) 85_546 98_556
C2 C006 C2 C3 -51.7(2) 98_556 98_556
C2 C006 C2 C3 0.4(2) 85_546 .
C2 C006 C2 C3 -79.9(3) 98_556 .
C2 C006 C2 C3 61.4(3) 182_545 98_556
C2 C2 C3 C005 -72.3(3) 98_556 .
C2 C2 C3 C3 -0.006(1) 98_556 98_556
C2 C2 C3 C0AA 47.2(3) 98_556 98_556
C2 C2 C3 C0AA 111.6(5) 98_556 .
C2 C3 C0AA C3 -98.7(3) . 98_556
C2 C3 C0AA C3 -68.3(3) 98_556 98_556
C2 C3 C0AA C0AA -68.3(3) 98_556 98_556
C2 C3 C0AA C0AA -98.7(3) . 98_556
C3 C005 C3 C2 53.0(2) 98_556 98_556
C3 C005 C3 C2 -27.80(14) 85_546 98_556
C3 C005 C3 C2 81.2(3) 98_556 .
C3 C005 C3 C2 0.4(2) 85_546 .
C3 C005 C3 C2 -32.3(5) 182_545 .
C3 C005 C3 C2 -60.5(3) 182_545 98_556
C3 C005 C3 C3 -80.78(9) 85_546 98_556
C3 C005 C3 C3 -113.5(2) 182_545 98_556
C3 C005 C3 C0AA 175.8(6) 85_546 .
C3 C005 C3 C0AA -103.4(5) 98_556 .
C3 C005 C3 C0AA -40.1(3) 98_556 98_556
C3 C005 C3 C0AA -120.9(3) 85_546 98_556
C3 C005 C3 C0AA 143.0(5) 182_545 .
C3 C005 C3 C0AA -153.6(3) 182_545 98_556
C3 C2 C3 C005 -72.3(3) 98_556 .
C3 C2 C3 C2 0.006(1) 98_556 98_556
C3 C2 C3 C0AA 47.2(3) 98_556 98_556
C3 C2 C3 C0AA 111.6(5) 98_556 .
C3 C3 C0AA C0AA 0.009(2) 98_556 98_556
C0AA C3 C0AA C3 -0.009(4) 98_556 98_556
