#------------------------------------------------------------------------------
#$Date: 2019-11-23 04:14:50 +0200 (Sat, 23 Nov 2019) $
#$Revision: 232088 $
#$URL: file:///home/coder/svn-repositories/cod/cif/4/34/69/4346981.cif $
#------------------------------------------------------------------------------
#
# This file is available in the Crystallography Open Database (COD),
# http://www.crystallography.net/
#
# All data on this site have been placed in the public domain by the
# contributors.
#
data_4346981
loop_
_publ_author_name
'Biswas, Soumava'
'Mondal, Amit Kumar'
'Konar, Sanjit'
_publ_section_title
;
 Densely Packed Lanthanide Cubane Based 3D Metal-Organic Frameworks for
 Efficient Magnetic Refrigeration and Slow Magnetic Relaxation.
;
_journal_issue                   5
_journal_name_full               'Inorganic chemistry'
_journal_page_first              2085
_journal_page_last               2090
_journal_paper_doi               10.1021/acs.inorgchem.5b02486
_journal_volume                  55
_journal_year                    2016
_chemical_absolute_configuration unk
_chemical_formula_moiety         'C8 H6 Gd5 O22'
_chemical_formula_sum            'C8 H6 Gd5 O22'
_chemical_formula_weight         1240.38
_space_group_crystal_system      tetragonal
_space_group_IT_number           121
_space_group_name_Hall           'I -4 2'
_space_group_name_H-M_alt        'I -4 2 m'
_symmetry_Int_Tables_number      121
_audit_creation_date             2015-07-04
_audit_creation_method
;
Olex2 1.2
(compiled 2015.01.26 svn.r3151 for OlexSys, GUI svn.r4998)
;
_cell_angle_alpha                90
_cell_angle_beta                 90
_cell_angle_gamma                90
_cell_formula_units_Z            4
_cell_length_a                   10.925(2)
_cell_length_b                   10.925(2)
_cell_length_c                   20.461(5)
_cell_measurement_reflns_used    5616
_cell_measurement_temperature    120(2)
_cell_measurement_theta_max      25.171
_cell_measurement_theta_min      1.591
_cell_volume                     2442.1(9)
_computing_molecular_graphics    'Olex2 (Dolomanov et al., 2009)'
_computing_publication_material  'Olex2 (Dolomanov et al., 2009)'
_computing_structure_refinement  'olex2.refine (Bourhis et al., 2015)'
_diffrn_ambient_temperature      120(2)
_diffrn_measured_fraction_theta_full 0.9987
_diffrn_measured_fraction_theta_max 0.9987
_diffrn_measurement_device_type  'Bruker APEX-II CCD'
_diffrn_measurement_method       '\f and \w scans'
_diffrn_radiation_type           'Mo K\a'
_diffrn_radiation_wavelength     0.71073
_diffrn_reflns_av_R_equivalents  0.0931
_diffrn_reflns_av_unetI/netI     0.0524
_diffrn_reflns_limit_h_max       14
_diffrn_reflns_limit_h_min       -14
_diffrn_reflns_limit_k_max       14
_diffrn_reflns_limit_k_min       -14
_diffrn_reflns_limit_l_max       26
_diffrn_reflns_limit_l_min       -26
_diffrn_reflns_number            5594
_diffrn_reflns_theta_full        27.4728
_diffrn_reflns_theta_max         27.47
_diffrn_reflns_theta_min         1.99
_exptl_absorpt_coefficient_mu    13.481
_exptl_absorpt_correction_T_max  0.032
_exptl_absorpt_correction_T_min  0.003
_exptl_absorpt_correction_type   multi-scan
_exptl_absorpt_process_details   multi-scan
_exptl_crystal_colour            Colorless
_exptl_crystal_density_diffrn    3.3734
_exptl_crystal_description       Plate
_exptl_crystal_F_000             2200.0
_exptl_crystal_size_max          0.47
_exptl_crystal_size_mid          0.38
_exptl_crystal_size_min          0.25
_refine_diff_density_max         1.0165
_refine_diff_density_min         -3.7603
_refine_diff_density_rms         0.1605
_refine_ls_abs_structure_details
'Flack, H. D. (1983). Acta Cryst. A39, 876-881.'
_refine_ls_abs_structure_Flack   0.07(3)
_refine_ls_d_res_high            0.7703
_refine_ls_d_res_low             10.2305
_refine_ls_goodness_of_fit_ref   1.1494
_refine_ls_hydrogen_treatment    none
_refine_ls_matrix_type           full
_refine_ls_number_constraints    9
_refine_ls_number_parameters     72
_refine_ls_number_reflns         1511
_refine_ls_number_restraints     0
_refine_ls_restrained_S_all      1.1494
_refine_ls_R_factor_all          0.0190
_refine_ls_R_factor_gt           0.0190
_refine_ls_shift/su_max          0.0008
_refine_ls_shift/su_mean         0.0000
_refine_ls_structure_factor_coef Fsqd
_refine_ls_weighting_details
'w=1/[\s^2^(Fo^2^)+(0.0090P)^2^+9.0473P] where P=(Fo^2^+2Fc^2^)/3'
_refine_ls_weighting_scheme      calc
_refine_ls_wR_factor_gt          0.0461
_refine_ls_wR_factor_ref         0.0461
_reflns_Friedel_coverage         0.998
_reflns_limit_h_max              14
_reflns_limit_h_min              -14
_reflns_limit_k_max              10
_reflns_limit_k_min              -10
_reflns_limit_l_max              26
_reflns_limit_l_min              -26
_reflns_number_gt                1510
_reflns_number_total             1511
_reflns_threshold_expression     I>=2u(I)
_iucr_refine_instructions_details
;
TITL tyc2_a.res in C2 New: I-42m
CELL 0.71073 10.925 10.925 20.461 90 90 90
ZERR 4 0.002 0.002 0.005 0 0 0
LATT -2
SYMM +Y,-X,-Z
SYMM -X,-Y,+Z
SYMM -Y,+X,-Z
SYMM +X,-Y,-Z
SYMM -Y,-X,+Z
SYMM -X,+Y,-Z
SYMM +Y,+X,+Z
SFAC C H Gd O
UNIT 32 8 20 88
EADP O3 C3
EADP O7 Gd2
EADP O5 C1
EADP C3 O1

L.S. 20
PLAN  2
ACTA 
BOND $H
FMAP 2
CONF 
BASF 0.069004
TWIN -1 0 0 0 -1 0 0 0 -1 2
WGHT 0.008957 9.047282
FVAR 3.61386
REM <olex2.extras>
REM <HklSrc "%./T-1.hkl">
REM </olex2.extras>

Gd1   3     0.15357  0.41139  0.18504  11.00000  0.01337  0.01411  0.02464 =
 -0.00054  0.00042  0.00189 
Gd2   3     0.50000  0.50000  0.15522  10.25000  0.01375  0.01375  0.05953 =
 -0.01039  0.01039 -0.00151 
O5    4     0.09958  0.24699  0.11459  11.00000  0.03124  0.03278  0.09449 =
 -0.02614  0.00332 -0.00161 
O1    4     0.31971  0.54031  0.21784  11.00000  0.02534  0.02534  0.06754 =
 0.00151  0.00151 -0.01731 
O3    4     0.22538  0.22538  0.23960  10.50000  0.02534  0.02534  0.06754 =
 0.00151  0.00151 -0.01731 
O2    4     0.10875  0.44393  0.30014  11.00000  0.01559  0.02348  0.01982 =
 -0.00108 -0.00165 -0.00089 
O4    4     0.14592  0.49801  0.07759  11.00000  0.02490  0.05483  0.02872 =
 0.01505 -0.00095  0.00902 
O6    4     0.34545  0.34545  0.13504  10.50000  0.00884  0.00884  0.03081 =
 -0.00116 -0.00116  0.00370 
O7    4     0.60783  0.39217  0.07267  10.50000  0.01375  0.01375  0.05953 =
 -0.01039  0.01039 -0.00151 
AFIX 7
H7a   2     0.56103  0.33929  0.05523  10.50000 -1.50000 
H7b   2     0.66864  0.35632  0.09012  10.50000 -1.50000 
AFIX 0
C3    1     0.34527  0.65473  0.22825  10.50000  0.02534  0.02534  0.06754 =
 0.00151  0.00151 -0.01731 
C1    1     0.14666  0.14666  0.08711  10.50000  0.03124  0.03278  0.09449 =
 -0.02614  0.00332 -0.00161 
AFIX 43
H1    2     0.11113  0.11113  0.05042  10.50000 -1.20000 
AFIX 0
C2    1     0.06596  0.49968  0.03696  11.00000  0.03991  0.04999  0.01166 =
 -0.00094  0.00641 -0.00281 
Q1    1     0.30556  0.41667  0.19444  11.00000  0.06000  1.020
Q2    1     0.30556  0.30556  0.26389  10.50000  0.06000  0.980
HKLF 4 1 0 0 -1 1 0 1 0 -1 0

END

REM The information below was added by Olex2.
REM
REM R1 = 0.0190 for 1510 Fo > 4sig(Fo) and 0.0190 for all 1511 data
REM 72 parameters refined using 0 restraints
REM Highest difference peak 1.0165, deepest hole -3.7603
REM Mean Shift 0.0000, Max Shift 0.0008.

REM +++ Tabular Listing of Refinement Information +++
REM R1_all = 0.0190
REM R1_gt = 0.0190
REM wR_ref = 0.0461
REM GOOF = 1.1494
REM Shift_max = 0.0008
REM Shift_mean = 0.0000
REM Reflections_all = 1511
REM Reflections_gt = 1510
REM Parameters = 72
REM Hole = -3.7603
REM Peak = 1.0165
REM Flack = 0.07(3)

;
_cod_data_source_file            ic5b02486_si_002.cif
_cod_data_source_block           Complex1
_cod_original_cell_volume        2442.1(11)
_cod_database_code               4346981
_olex2_refinement_description
;
1. Twinned data refinement
 Scales: 0.93(3) 0.07(3)
2. Fixed Uiso
 At 1.2 times of:
  All C(H) groups
 At 1.5 times of:
  All O(H,H) groups
3. Uiso/Uaniso restraints and constraints
Uanis(O3) = Uanis(C3)
Uanis(O7) = Uanis(Gd2)
Uanis(O5) = Uanis(C1)
Uanis(C3) = Uanis(O1)
4. Others
 Fixed Sof: H7(0.5) H7a(0.5) H7b(0.5)
5.a Rotating group:
 O7(H7a,H7b)
5.b Aromatic/amide H refined with riding coordinates:
 C1(H1)
;
_olex2_submission_special_instructions 'No special instructions were received'
loop_
_space_group_symop_id
_space_group_symop_operation_xyz
1 x,y,z
2 y,-x,-z
3 -y,x,-z
4 x,-y,-z
5 -x,y,-z
6 -x,-y,z
7 -y,-x,z
8 y,x,z
9 x+1/2,y+1/2,z+1/2
10 y+1/2,-x+1/2,-z+1/2
11 -y+1/2,x+1/2,-z+1/2
12 x+1/2,-y+1/2,-z+1/2
13 -x+1/2,y+1/2,-z+1/2
14 -x+1/2,-y+1/2,z+1/2
15 -y+1/2,-x+1/2,z+1/2
16 y+1/2,x+1/2,z+1/2
loop_
_atom_site_label
_atom_site_type_symbol
_atom_site_fract_x
_atom_site_fract_y
_atom_site_fract_z
_atom_site_U_iso_or_equiv
_atom_site_adp_type
_atom_site_occupancy
_atom_site_site_symmetry_order
_atom_site_refinement_flags_posn
_atom_site_refinement_flags_adp
_atom_site_refinement_flags_occupancy
Gd1 Gd 0.15357(3) 0.41139(3) 0.185044(11) 0.01737(8) Uani 1.000000 1 . . .
Gd2 Gd 0.5 0.5 0.15522(3) 0.02901(18) Uani 1.000000 4 S T P
O5 O 0.0996(5) 0.2470(5) 0.1146(3) 0.0528(14) Uani 1.000000 1 . . .
O1 O 0.3197(5) 0.5403(5) 0.2178(2) 0.0394(10) Uani 1.000000 1 . . .
O3 O 0.2254(4) 0.2254(4) 0.2396(3) 0.0394(10) Uani 1.000000 2 S T P
O2 O 0.1088(4) 0.4439(4) 0.30014(13) 0.0196(9) Uani 1.000000 1 . . .
O4 O 0.1459(5) 0.4980(5) 0.07759(15) 0.0362(12) Uani 1.000000 1 . . .
O6 O 0.3455(4) 0.3455(4) 0.1350(2) 0.0162(11) Uani 1.000000 2 S T P
O7 O 0.6078(4) 0.3922(4) 0.0727(3) 0.02901(18) Uani 1.000000 2 S T P
C3 C 0.3453(9) 0.6547(9) 0.2282(5) 0.0394(10) Uani 1.000000 2 S T P
C1 C 0.1467(9) 0.1467(9) 0.0871(6) 0.0528(14) Uani 1.000000 2 S T P
H1 H 0.1111(9) 0.1111(9) 0.0504(6) 0.0634(17) Uiso 1.000000 2 RS T P
C2 C 0.0660(6) 0.4997(7) 0.03696(18) 0.0339(18) Uani 1.000000 1 . . .
H7a H 0.5610(4) 0.3393(4) 0.0552(3) 0.0435(3) Uiso 0.500000 1 GR . .
H7b H 0.6686(4) 0.3563(4) 0.0901(3) 0.0435(3) Uiso 0.500000 1 GR . .
loop_
_atom_site_aniso_label
_atom_site_aniso_U_11
_atom_site_aniso_U_22
_atom_site_aniso_U_33
_atom_site_aniso_U_12
_atom_site_aniso_U_13
_atom_site_aniso_U_23
Gd1 0.01337(16) 0.01411(17) 0.02464(9) 0.00189(11) 0.00042(10) -0.00054(9)
Gd2 0.0138(2) 0.0138(2) 0.0595(4) -0.0015(3) 0.0104(10) -0.0104(10)
O5 0.031(3) 0.033(4) 0.094(3) -0.002(2) 0.003(3) -0.026(3)
O1 0.0253(15) 0.0253(15) 0.068(2) -0.0173(17) 0.0015(13) 0.0015(13)
O3 0.0253(15) 0.0253(15) 0.068(2) -0.0173(17) 0.0015(13) 0.0015(13)
O2 0.016(2) 0.023(2) 0.0198(12) -0.0009(18) -0.0016(13) -0.0011(14)
O4 0.025(3) 0.055(4) 0.0287(14) 0.009(3) -0.0010(18) 0.015(2)
O6 0.0088(17) 0.0088(17) 0.031(2) 0.004(2) -0.0012(16) -0.0012(16)
O7 0.0138(2) 0.0138(2) 0.0595(4) -0.0015(3) 0.0104(10) -0.0104(10)
C3 0.0253(15) 0.0253(15) 0.068(2) -0.0173(17) 0.0015(13) 0.0015(13)
C1 0.031(3) 0.033(4) 0.094(3) -0.002(2) 0.003(3) -0.026(3)
C2 0.040(4) 0.050(5) 0.0117(16) -0.003(4) 0.0064(19) -0.001(2)
loop_
_atom_type_symbol
_atom_type_scat_dispersion_real
_atom_type_scat_dispersion_imag
_atom_type_scat_Cromer_Mann_a1
_atom_type_scat_Cromer_Mann_a2
_atom_type_scat_Cromer_Mann_a3
_atom_type_scat_Cromer_Mann_a4
_atom_type_scat_Cromer_Mann_b1
_atom_type_scat_Cromer_Mann_b2
_atom_type_scat_Cromer_Mann_b3
_atom_type_scat_Cromer_Mann_b4
_atom_type_scat_Cromer_Mann_c
_atom_type_scat_source
_atom_type_scat_dispersion_source
H 0.00000 0.00000 0.49300 0.32291 0.14019 0.04081 10.51090 26.12570 3.14236
57.79970 0.0030380000826
'International Tables Volume C Table 6.1.1.4 (pp. 500-502)'
'Henke, Gullikson and Davis, At. Data and Nucl. Data Tables, 1993, 54, 2'
C 0.00347 0.00161 2.31000 1.02000 1.58860 0.86500 20.84390 10.20750 0.56870
51.65120 0.215599998832
'International Tables Volume C Table 6.1.1.4 (pp. 500-502)'
'Henke, Gullikson and Davis, At. Data and Nucl. Data Tables, 1993, 54, 2'
Gd 0.10424 4.27310 25.07090 19.07980 13.85180 3.54545 2.25341 0.18195 12.93310
101.39800 2.41960000992
'International Tables Volume C Table 6.1.1.4 (pp. 500-502)'
'Henke, Gullikson and Davis, At. Data and Nucl. Data Tables, 1993, 54, 2'
O 0.01158 0.00611 3.04850 2.28680 1.54630 0.86700 13.27710 5.70110 0.32390
32.90890 0.250800013542
'International Tables Volume C Table 6.1.1.4 (pp. 500-502)'
'Henke, Gullikson and Davis, At. Data and Nucl. Data Tables, 1993, 54, 2'
loop_
_geom_angle_atom_site_label_1
_geom_angle_atom_site_label_2
_geom_angle_atom_site_label_3
_geom_angle
_geom_angle_site_symmetry_1
_geom_angle_site_symmetry_3
O1 Gd1 O5 143.39(17) . .
O3 Gd1 O5 74.3(2) . .
O3 Gd1 O1 96.76(19) . .
O2 Gd1 O5 76.27(15) 10_455 .
O2 Gd1 O5 130.37(17) . .
O2 Gd1 O5 129.70(17) 11 .
O2 Gd1 O1 140.14(15) 10_455 .
O2 Gd1 O1 78.18(13) . .
O2 Gd1 O1 76.98(16) 11 .
O2 Gd1 O3 145.32(15) 11 .
O2 Gd1 O3 100.25(16) 10_455 .
O2 Gd1 O3 75.18(17) . .
O4 Gd1 O5 74.5(2) . .
O4 Gd1 O1 92.94(18) . .
O4 Gd1 O3 139.28(19) . .
O4 Gd1 O2 97.06(14) . 10_455
O4 Gd1 O2 75.40(14) . 11
O4 Gd1 O2 145.52(16) . .
O6 Gd1 O5 74.69(18) . .
O6 Gd1 O1 68.90(17) . .
O6 Gd1 O3 70.79(16) . .
O6 Gd1 O2 150.94(16) . 10_455
O6 Gd1 O2 133.81(15) . 11
O6 Gd1 O2 128.46(14) . .
O6 Gd1 O4 76.22(15) . .
O1 Gd2 O1 90.9(2) 8 .
O1 Gd2 O1 90.9(2) 7_665 6_665
O1 Gd2 O1 115.2(2) 6_665 .
O1 Gd2 O1 53.8(2) 8 6_665
O1 Gd2 O1 53.8(2) 7_665 .
O1 Gd2 O1 115.2(2) 8 7_665
O6 Gd2 O1 69.25(13) . .
O6 Gd2 O1 69.25(13) 6_665 6_665
O6 Gd2 O1 122.48(13) 6_665 8
O6 Gd2 O1 122.48(13) . 6_665
O6 Gd2 O1 69.25(13) 6_665 7_665
O6 Gd2 O1 122.48(13) . 7_665
O6 Gd2 O1 69.25(13) . 8
O6 Gd2 O1 122.48(13) 6_665 .
O6 Gd2 O6 160.4(2) 6_665 .
O7 Gd2 O1 83.16(19) 6_665 .
O7 Gd2 O1 83.16(19) 6_665 7_665
O7 Gd2 O1 151.90(12) . .
O7 Gd2 O1 151.90(12) 6_665 6_665
O7 Gd2 O1 83.16(19) . 6_665
O7 Gd2 O1 151.90(12) 6_665 8
O7 Gd2 O1 83.16(19) . 8
O7 Gd2 O1 151.90(12) . 7_665
O7 Gd2 O6 83.03(8) . 6_665
O7 Gd2 O6 83.03(8) 6_665 6_665
O7 Gd2 O6 83.03(8) 6_665 .
O7 Gd2 O6 83.03(8) . .
O7 Gd2 O7 89.2(3) 6_665 .
C3 Gd2 O1 108.7(2) 6_665 .
C3 Gd2 O1 27.31(12) . .
C3 Gd2 O1 27.31(12) 6_665 8
C3 Gd2 O1 27.31(12) 6_665 6_665
C3 Gd2 O1 27.31(12) . 7_665
C3 Gd2 O1 108.7(2) 6_665 7_665
C3 Gd2 O1 108.7(2) . 6_665
C3 Gd2 O1 108.7(2) . 8
C3 Gd2 O6 95.2(2) . 6_665
C3 Gd2 O6 95.2(2) . .
C3 Gd2 O6 95.2(2) 6_665 .
C3 Gd2 O6 95.2(2) 6_665 6_665
C3 Gd2 O7 166.6(3) . .
C3 Gd2 O7 77.4(3) 6_665 .
C3 Gd2 O7 166.6(3) 6_665 6_665
C3 Gd2 O7 77.4(3) . 6_665
C3 Gd2 C3 116.0(4) 6_665 .
H7a Gd2 O1 135.16(13) 6_665 6_665
H7a Gd2 O1 163.72(16) 8 6_665
H7a Gd2 O1 94.62(17) 7_665 8
H7a Gd2 O1 163.72(16) 6_665 8
H7a Gd2 O1 80.20(17) 7_665 6_665
H7a Gd2 O1 80.20(17) 6_665 7_665
H7a Gd2 O1 135.16(13) . .
H7a Gd2 O1 163.72(16) 7_665 .
H7a Gd2 O1 94.62(17) . 6_665
H7a Gd2 O1 135.16(13) 7_665 7_665
H7a Gd2 O1 163.72(16) . 7_665
H7a Gd2 O1 80.20(17) 8 .
H7a Gd2 O1 80.20(17) . 8
H7a Gd2 O1 94.62(17) 8 7_665
H7a Gd2 O1 94.62(17) 6_665 .
H7a Gd2 O1 135.16(13) 8 8
H7a Gd2 O6 66.50(9) . .
H7a Gd2 O6 98.49(9) 6_665 .
H7a Gd2 O6 98.49(9) 8 6_665
H7a Gd2 O6 98.49(9) . 6_665
H7a Gd2 O6 66.50(9) 8 .
H7a Gd2 O6 98.49(9) 7_665 .
H7a Gd2 O6 66.50(9) 7_665 6_665
H7a Gd2 O6 66.50(9) 6_665 6_665
H7a Gd2 O7 16.74(3) . .
H7a Gd2 O7 16.74(3) 7_665 .
H7a Gd2 O7 16.74(3) 8 6_665
H7a Gd2 O7 84.8(3) . 6_665
H7a Gd2 O7 84.8(3) 8 .
H7a Gd2 O7 84.8(3) 6_665 .
H7a Gd2 O7 16.74(3) 6_665 6_665
H7a Gd2 O7 84.8(3) 7_665 6_665
H7a Gd2 C3 82.4(3) 6_665 .
H7a Gd2 C3 156.0(2) . .
H7a Gd2 C3 82.4(3) . 6_665
H7a Gd2 C3 156.0(2) 8 6_665
H7a Gd2 C3 82.4(3) 8 .
H7a Gd2 C3 156.0(2) 7_665 .
H7a Gd2 C3 156.0(2) 6_665 6_665
H7a Gd2 C3 82.4(3) 7_665 6_665
H7a Gd2 H7a 32.19(11) 7_665 .
H7a Gd2 H7a 85.1(3) 6_665 .
H7a Gd2 H7a 85.1(3) 8 7_665
H7a Gd2 H7a 76.2(3) 7_665 6_665
H7a Gd2 H7a 32.19(11) 8 6_665
H7a Gd2 H7a 76.2(3) 8 .
H7b Gd2 O1 66.69(17) . 6_665
H7b Gd2 O1 70.57(17) 7_665 6_665
H7b Gd2 O1 148.14(12) 8 6_665
H7b Gd2 O1 148.14(12) . 7_665
H7b Gd2 O1 66.69(17) 7_665 8
H7b Gd2 O1 70.57(17) . 8
H7b Gd2 O1 155.85(12) 8 8
H7b Gd2 O1 66.69(17) 6_665 .
H7b Gd2 O1 155.85(12) 7_665 7_665
H7b Gd2 O1 155.85(12) 6_665 6_665
H7b Gd2 O1 70.57(17) 8 .
H7b Gd2 O1 70.57(17) 6_665 7_665
H7b Gd2 O1 66.69(17) 8 7_665
H7b Gd2 O1 148.14(12) 6_665 8
H7b Gd2 O1 155.85(12) . .
H7b Gd2 O1 148.14(12) 7_665 .
H7b Gd2 O6 89.23(6) 7_665 6_665
H7b Gd2 O6 89.23(6) 6_665 6_665
H7b Gd2 O6 81.32(5) 8 6_665
H7b Gd2 O6 89.23(6) . .
H7b Gd2 O6 89.23(6) 8 .
H7b Gd2 O6 81.32(5) . 6_665
H7b Gd2 O6 81.32(5) 6_665 .
H7b Gd2 O6 81.32(5) 7_665 .
H7b Gd2 O7 16.96(5) . .
H7b Gd2 O7 16.96(5) 6_665 6_665
H7b Gd2 O7 16.96(5) 8 6_665
H7b Gd2 O7 16.96(5) 7_665 .
H7b Gd2 O7 105.7(3) 8 .
H7b Gd2 O7 105.7(3) 7_665 6_665
H7b Gd2 O7 105.7(3) 6_665 .
H7b Gd2 O7 105.7(3) . 6_665
H7b Gd2 C3 174.94(16) 6_665 6_665
H7b Gd2 C3 61.0(3) 6_665 .
H7b Gd2 C3 174.94(16) 8 6_665
H7b Gd2 C3 174.94(16) 7_665 .
H7b Gd2 C3 61.0(3) 8 .
H7b Gd2 C3 61.0(3) 7_665 6_665
H7b Gd2 C3 174.94(16) . .
H7b Gd2 C3 61.0(3) . 6_665
H7b Gd2 H7a 29.02(6) 7_665 7_665
H7b Gd2 H7a 24.05(5) . 7_665
H7b Gd2 H7a 24.05(5) 8 6_665
H7b Gd2 H7a 99.4(3) 7_665 8
H7b Gd2 H7a 24.05(5) 7_665 .
H7b Gd2 H7a 101.7(3) 6_665 7_665
H7b Gd2 H7a 29.02(6) 8 8
H7b Gd2 H7a 101.7(3) . 8
H7b Gd2 H7a 29.02(6) 6_665 6_665
H7b Gd2 H7a 29.02(6) . .
H7b Gd2 H7a 101.7(3) 8 .
H7b Gd2 H7a 24.05(5) 6_665 8
H7b Gd2 H7a 99.4(3) 8 7_665
H7b Gd2 H7a 101.7(3) 7_665 6_665
H7b Gd2 H7a 99.4(3) . 6_665
H7b Gd2 H7a 99.4(3) 6_665 .
H7b Gd2 H7b 121.7(3) 7_665 6_665
H7b Gd2 H7b 121.7(3) 8 .
H7b Gd2 H7b 122.4(3) 8 7_665
H7b Gd2 H7b 122.4(3) 6_665 .
H7b Gd2 H7b 8.00(10) 7_665 .
H7b Gd2 H7b 8.00(10) 8 6_665
C1 O5 Gd1 141.3(6) . .
Gd2 O1 Gd1 111.48(18) . .
C3 O1 Gd1 140.9(6) . .
C3 O1 Gd2 95.1(5) . .
Gd1 O3 Gd1 108.9(2) 8 .
C3 O3 Gd1 122.97(19) 10_455 8
C3 O3 Gd1 122.97(19) 10_455 .
C2 O4 Gd1 131.6(5) . .
Gd1 O6 Gd1 109.3(2) 8 .
Gd2 O6 Gd1 108.74(14) . 8
Gd2 O6 Gd1 108.74(14) . .
H7a O7 Gd2 109.7 . 6_665
H7a O7 Gd2 109.7 7_665 6_665
H7a O7 H7a 129.90(19) . 7_665
H7b O7 Gd2 108.5 . 6_665
H7b O7 Gd2 108.5 7_665 6_665
H7b O7 H7a 109.5 . .
H7b O7 H7a 85.5 . 7_665
H7b O7 H7a 109.5 7_665 7_665
H7b O7 H7a 85.5 7_665 .
O1 C3 Gd2 57.6(5) 7_665 .
O1 C3 Gd2 57.6(5) . .
O1 C3 O1 112.8(11) 7_665 .
O3 C3 Gd2 179.1(7) 11 .
O3 C3 O1 122.5(5) 11 7_665
O3 C3 O1 122.5(5) 11 .
O5 C1 O5 117.1(10) 8 .
H1 C1 O5 121.5(5) . 8
H1 C1 O5 121.5(5) . .
C2 C2 O4 136.4(3) 6_565 .
C2 C2 O4 133.6(3) 4_565 .
O7 H7a Gd2 53.52(5) 7_665 8
O7 H7b Gd2 54.51(13) . 6_665
H7b H7b Gd2 86.0(5) 7_665 6_665
H7b H7b O7 76.9(8) 7_665 .
loop_
_geom_bond_atom_site_label_1
_geom_bond_atom_site_label_2
_geom_bond_distance
_geom_bond_site_symmetry_2
Gd1 O5 2.377(5) .
Gd1 O1 2.393(5) .
Gd1 O3 2.448(4) .
Gd1 O2 2.321(4) 10_455
Gd1 O2 2.424(4) 11
Gd1 O2 2.432(3) .
Gd1 O4 2.395(3) .
Gd1 O6 2.441(3) .
Gd2 O1 2.391(5) 6_665
Gd2 O1 2.391(5) 8
Gd2 O1 2.391(5) .
Gd2 O1 2.391(5) 7_665
Gd2 O6 2.423(6) .
Gd2 O6 2.423(6) 6_665
Gd2 O7 2.372(6) .
Gd2 O7 2.372(6) 6_665
Gd2 C3 2.819(13) 6_665
Gd2 C3 2.819(13) .
Gd2 H7a 2.777(5) 8
Gd2 H7a 2.777(5) 7_665
Gd2 H7a 2.777(5) 6_665
Gd2 H7a 2.777(5) .
Gd2 H7b 2.763(6) .
Gd2 H7b 2.763(6) 6_665
Gd2 H7b 2.763(6) 8
Gd2 H7b 2.763(6) 7_665
O5 C1 1.335(8) .
O1 C3 1.298(8) .
O3 C3 1.275(13) 10_455
O4 C2 1.206(7) .
O7 H7a 0.8500 .
O7 H7a 0.8500 7_665
O7 H7b 0.8500 .
O7 H7b 0.8500 7_665
C1 H1 0.9300 .
C2 C2 1.512(7) 4_565
C2 C2 1.441(13) 6_565
H7b H7b 0.386(5) 7_665
loop_
_refln_index_h
_refln_index_k
_refln_index_l
_refln_F_squared_meas
_refln_F_squared_sigma
2 0 0 1431544 1196
4 0 0 2390790 1546
6 0 0 347955 590
8 0 0 311600 558
10 0 0 17323 132
12 0 0 2922461 1710
14 0 0 691097 831
1 1 0 733344 856
3 1 0 1677269 1295
5 1 0 3399 58
7 1 0 77579 279
9 1 0 694444 833
11 1 0 645452 803
13 1 0 5921 77
0 2 0 9999999 3162
2 2 0 5942 77
4 2 0 1243338 1115
6 2 0 4678 68
8 2 0 3313 58
10 2 0 1947 44
12 2 0 815261 903
14 2 0 140157 374
1 3 0 1954549 1398
3 3 0 2780311 1667
5 3 0 537524 733
7 3 0 1302007 1141
9 3 0 1969983 1404
11 3 0 2354928 1535
13 3 0 3540 59
0 4 0 604342 777
2 4 0 191977 438
4 4 0 19843 141
6 4 0 182146 427
8 4 0 310336 557
10 4 0 75035 274
12 4 0 180845 425
14 4 0 91001 302
1 5 0 566120 752
3 5 0 766357 875
5 5 0 1629999 1277
7 5 0 2208207 1486
9 5 0 1050410 1025
11 5 0 1260564 1123
13 5 0 68434 262
0 6 0 4986662 2233
2 6 0 805427 897
4 6 0 759593 872
6 6 0 94528 307
8 6 0 39331 198
10 6 0 69958 264
12 6 0 1372824 1172
1 7 0 42920 207
3 7 0 747 27
5 7 0 748547 865
7 7 0 933056 966
9 7 0 6174 79
11 7 0 7451 86
13 7 0 232721 482
0 8 0 8766040 2961
2 8 0 318636 564
4 8 0 3543449 1882
6 8 0 11143 106
8 8 0 45266 213
10 8 0 27402 166
12 8 0 1001268 1001
1 9 0 390794 625
3 9 0 1367635 1169
5 9 0 74888 274
7 9 0 296571 545
9 9 0 855593 925
11 9 0 683768 827
13 9 0 15012 123
0 10 0 1530886 1237
2 10 0 120808 348
4 10 0 2303748 1518
6 10 0 365332 604
8 10 0 222719 472
10 10 0 203169 451
12 10 0 67942 261
1 11 0 2485 50
3 11 0 1035329 1018
5 11 0 1554019 1247
7 11 0 3063356 1750
9 11 0 803292 896
11 11 0 771491 878
0 12 0 203934 452
2 12 0 42637 206
4 12 0 2427 49
6 12 0 123143 351
8 12 0 106710 327
10 12 0 32335 180
12 12 0 118589 344
1 13 0 112343 335
3 13 0 39336 198
5 13 0 1387096 1178
7 13 0 1942764 1394
9 13 0 192389 439
11 13 0 206753 455
0 14 0 1868744 1367
2 14 0 14064 119
4 14 0 1182412 1087
6 14 0 161665 402
8 14 0 31694 178
10 14 0 43241 208
12 14 0 424101 651
1 15 0 3685 61
3 15 0 13820 118
5 15 0 145983 382
7 15 0 119693 346
9 15 0 6026 78
11 15 0 1008 32
0 16 0 1915572 1384
2 16 0 85717 293
4 16 0 1932045 1390
6 16 0 154190 393
8 16 0 77226 278
10 16 0 125874 355
1 17 0 3372 58
3 17 0 68948 263
5 17 0 445101 667
7 17 0 681973 826
9 17 0 17858 134
0 18 0 760740 872
2 18 0 4392 66
4 18 0 331008 575
6 18 0 1596 40
8 18 0 2803 53
10 18 0 16460 128
1 19 0 2765 53
3 19 0 240181 490
5 19 0 666843 817
7 19 0 1073246 1036
9 19 0 165063 406
0 20 0 91585 303
2 20 0 15553 125
4 20 0 136298 369
6 20 0 742 27
8 20 0 8389 92
1 21 0 6811 83
3 21 0 102735 321
5 21 0 239975 490
7 21 0 337300 581
0 22 0 781777 884
2 22 0 6218 79
4 22 0 605685 778
6 22 0 6404 80
1 23 0 5688 75
3 23 0 12480 112
5 23 0 764 28
7 23 0 4520 67
0 24 0 658650 812
2 24 0 61 8
4 24 0 333196 577
6 24 0 1154 34
1 25 0 3668 61
3 25 0 22644 150
0 26 0 225205 475
2 26 0 22199 149
-14 0 1 238527 488
-12 0 1 50661 225
-10 0 1 846631 920
-8 0 1 35524 188
-6 0 1 2103563 1450
-4 0 1 2929313 1712
-2 0 1 1424965 1194
0 0 1 1410437 1188
2 0 1 3045301 1745
4 0 1 2053240 1433
6 0 1 34009 184
8 0 1 889629 943
10 0 1 50045 224
12 0 1 256958 507
-15 1 1 165071 406
-13 1 1 309889 557
-11 1 1 299509 547
-9 1 1 1661345 1289
-7 1 1 1084703 1041
-5 1 1 2081067 1443
-3 1 1 3045 55
-1 1 1 737089 859
1 1 1 8886 94
3 1 1 1906805 1381
5 1 1 1086221 1042
7 1 1 1707060 1307
9 1 1 298699 547
11 1 1 327955 573
13 1 1 178449 422
-14 2 1 313954 560
-12 2 1 207009 455
-10 2 1 271247 521
-8 2 1 153016 391
-6 2 1 1193955 1093
-4 2 1 2529314 1590
-2 2 1 2413595 1554
0 2 1 2288643 1513
2 2 1 2537029 1593
4 2 1 1258844 1122
6 2 1 145819 382
8 2 1 295351 543
10 2 1 216181 465
12 2 1 310761 557
-15 3 1 449411 670
-13 3 1 202573 450
-11 3 1 538403 734
-9 3 1 791074 889
-7 3 1 5857548 2420
-5 3 1 720484 849
-3 3 1 41935 205
-1 3 1 1962590 1401
1 3 1 40213 201
3 3 1 688047 829
5 3 1 6114196 2473
7 3 1 813970 902
9 3 1 533704 731
11 3 1 190485 436
13 3 1 463229 681
-14 4 1 299607 547
-12 4 1 328058 573
-10 4 1 382764 619
-8 4 1 357492 598
-6 4 1 303653 551
-4 4 1 1983205 1408
-2 4 1 1875984 1370
0 4 1 1969095 1403
2 4 1 1986587 1409
4 4 1 349824 591
6 4 1 351208 593
8 4 1 350802 592
10 4 1 329623 574
12 4 1 296133 544
-13 5 1 50240 224
-11 5 1 1117225 1057
-9 5 1 330636 575
-7 5 1 2229379 1493
-5 5 1 260808 511
-3 5 1 679557 824
-1 5 1 565596 752
1 5 1 600118 775
3 5 1 232028 482
5 5 1 2343784 1531
7 5 1 312528 559
9 5 1 1122278 1059
11 5 1 45769 214
-14 6 1 156719 396
-12 6 1 107523 328
-10 6 1 661464 813
-8 6 1 145886 382
-6 6 1 1195150 1093
-4 6 1 2861851 1692
-2 6 1 545080 738
0 6 1 467140 683
2 6 1 3057260 1749
4 6 1 1240462 1114
6 6 1 135561 368
8 6 1 691618 832
10 6 1 114642 339
12 6 1 176029 420
-13 7 1 360138 600
-11 7 1 676018 822
-9 7 1 1936379 1392
-7 7 1 24950 158
-5 7 1 2081634 1443
-3 7 1 1085321 1042
-1 7 1 33556 183
1 7 1 1016225 1008
3 7 1 2175503 1475
5 7 1 28572 169
7 7 1 1982728 1408
9 7 1 679172 824
11 7 1 401157 633
-14 8 1 678972 824
-12 8 1 34682 186
-10 8 1 173221 416
-8 8 1 230140 480
-6 8 1 227044 476
-4 8 1 1491873 1221
-2 8 1 3017024 1737
0 8 1 2990626 1729
2 8 1 1596982 1264
4 8 1 201119 448
6 8 1 224765 474
8 8 1 186643 432
10 8 1 37707 194
12 8 1 753707 868
-13 9 1 256807 507
-11 9 1 127595 357
-9 9 1 1597030 1264
-7 9 1 886795 942
-5 9 1 1220007 1105
-3 9 1 19620 140
-1 9 1 421583 649
1 9 1 15023 123
3 9 1 1241254 1114
5 9 1 822490 907
7 9 1 1662280 1289
9 9 1 141580 376
11 9 1 273073 523
-14 10 1 539181 734
-12 10 1 287654 536
-10 10 1 95231 309
-8 10 1 380264 617
-6 10 1 43910 210
-4 10 1 944456 972
-2 10 1 2283752 1511
0 10 1 2448626 1565
2 10 1 927970 963
4 10 1 47322 218
6 10 1 348498 590
8 10 1 96403 310
10 10 1 296257 544
12 10 1 626955 792
-13 11 1 21813 148
-11 11 1 963379 982
-9 11 1 81857 286
-7 11 1 1215979 1103
-5 11 1 189936 436
-3 11 1 569443 755
-1 11 1 1549 39
1 11 1 556955 746
3 11 1 186329 432
5 11 1 1195415 1093
7 11 1 81764 286
9 11 1 1035272 1017
11 11 1 19143 138
-12 12 1 184094 429
-10 12 1 184547 430
-8 12 1 85470 292
-6 12 1 88001 297
-4 12 1 1418440 1191
-2 12 1 894865 946
0 12 1 926365 962
2 12 1 1386931 1178
4 12 1 93505 306
6 12 1 110971 333
8 12 1 197222 444
10 12 1 194986 442
-13 13 1 161882 402
-11 13 1 1039722 1020
-9 13 1 473363 688
-7 13 1 310754 557
-5 13 1 626967 792
-3 13 1 531557 729
-1 13 1 92356 304
1 13 1 552551 743
3 13 1 599278 774
5 13 1 310496 557
7 13 1 453382 673
9 13 1 1073103 1036
11 13 1 164781 406
-12 14 1 104416 323
-10 14 1 52746 230
-8 14 1 110135 332
-6 14 1 59956 245
-4 14 1 519382 721
-2 14 1 1316759 1148
0 14 1 1296359 1139
2 14 1 520048 721
4 14 1 65394 256
6 14 1 124053 352
8 14 1 43163 208
10 14 1 121652 349
-11 15 1 154729 393
-9 15 1 758647 871
-7 15 1 19255 139
-5 15 1 769420 877
-3 15 1 115440 340
-1 15 1 3838 62
1 15 1 120140 347
3 15 1 770741 878
5 15 1 15187 123
7 15 1 819048 905
9 15 1 174299 417
-12 16 1 104538 323
-10 16 1 22363 150
-8 16 1 229550 479
-6 16 1 9947 100
-4 16 1 292242 541
-2 16 1 1242821 1115
0 16 1 1187350 1090
2 16 1 302541 550
4 16 1 9947 100
6 16 1 259041 509
8 16 1 21462 146
10 16 1 107065 327
-11 17 1 282255 531
-9 17 1 368172 607
-7 17 1 216747 466
-5 17 1 473041 688
-3 17 1 195026 442
-1 17 1 5503 74
1 17 1 198889 446
3 17 1 462826 680
5 17 1 233321 483
7 17 1 371425 609
9 17 1 258306 508
-10 18 1 49810 223
-8 18 1 48552 220
-6 18 1 13549 116
-4 18 1 433483 658
-2 18 1 735972 858
0 18 1 734187 857
2 18 1 431204 657
4 18 1 19937 141
6 18 1 62102 249
8 18 1 52510 229
-9 19 1 2879 54
-7 19 1 382079 618
-5 19 1 235475 485
-3 19 1 377617 615
-1 19 1 1403 37
1 19 1 394631 628
3 19 1 224969 474
5 19 1 403912 636
7 19 1 2560 51
-10 20 1 36802 192
-8 20 1 64465 254
-6 20 1 22121 149
-4 20 1 336716 580
-2 20 1 436455 661
0 20 1 420474 648
2 20 1 305318 553
4 20 1 34806 187
6 20 1 81066 285
8 20 1 45428 213
-9 21 1 180523 425
-7 21 1 256248 506
-5 21 1 146116 382
-3 21 1 65259 255
-1 21 1 16576 129
1 21 1 58918 243
3 21 1 125763 355
5 21 1 254300 504
7 21 1 205594 453
-8 22 1 48410 220
-6 22 1 12119 110
-4 22 1 110549 332
-2 22 1 348113 590
0 22 1 374786 612
2 22 1 121965 349
4 22 1 10706 103
6 22 1 53142 231
-7 23 1 14962 122
-5 23 1 243289 493
-3 23 1 30373 174
-1 23 1 5309 73
1 23 1 39506 199
3 23 1 264321 514
5 23 1 17340 132
-6 24 1 38523 196
-4 24 1 210523 459
-2 24 1 139999 374
0 24 1 133691 366
2 24 1 221590 471
4 24 1 38274 196
-5 25 1 122979 351
-3 25 1 64341 254
-1 25 1 622 25
1 25 1 54662 234
3 25 1 106552 326
-2 26 1 134597 367
0 26 1 133888 366
-16 0 2 229703 479
-14 0 2 118567 344
-12 0 2 25007 158
-10 0 2 488924 699
-8 0 2 2809279 1676
-6 0 2 147287 384
-4 0 2 119004 345
-2 0 2 1491214 1221
0 0 2 125639 354
2 0 2 170353 413
4 0 2 2868618 1694
6 0 2 549620 741
8 0 2 23866 154
10 0 2 141141 376
12 0 2 239695 490
-15 1 2 226717 476
-13 1 2 313657 560
-11 1 2 2068149 1438
-9 1 2 1075100 1037
-7 1 2 3411740 1847
-5 1 2 1675514 1294
-3 1 2 3820 62
-1 1 2 18545 136
1 1 2 1717893 1311
3 1 2 3709356 1926
5 1 2 1146408 1071
7 1 2 2107986 1452
9 1 2 302287 550
11 1 2 253924 504
-14 2 2 34967 187
-12 2 2 308877 556
-10 2 2 82075 286
-8 2 2 1112470 1055
-6 2 2 60073 245
-4 2 2 3062763 1750
-2 2 2 7723 88
0 2 2 3120037 1766
2 2 2 41179 203
4 2 2 1136194 1066
6 2 2 105202 324
8 2 2 334633 578
10 2 2 35168 188
-15 3 2 27179 165
-13 3 2 128095 358
-11 3 2 860934 928
-9 3 2 126930 356
-7 3 2 1019805 1010
-5 3 2 1573302 1254
-3 3 2 28530 169
-1 3 2 33580 183
1 3 2 1588434 1260
3 3 2 1202054 1096
5 3 2 166573 408
7 3 2 893574 945
9 3 2 115021 339
11 3 2 48525 220
-14 4 2 139173 373
-12 4 2 618128 786
-10 4 2 198043 445
-8 4 2 645764 804
-6 4 2 551768 743
-4 4 2 5802244 2409
-2 4 2 160343 400
0 4 2 5952642 2440
2 4 2 516285 719
4 4 2 710692 843
6 4 2 209157 457
8 4 2 615377 784
10 4 2 152861 391
-15 5 2 183317 428
-13 5 2 81112 285
-11 5 2 587158 766
-9 5 2 417121 646
-7 5 2 1098996 1048
-5 5 2 313374 560
-3 5 2 621662 788
-1 5 2 599035 774
1 5 2 297497 545
3 5 2 1072379 1036
5 5 2 376485 614
7 5 2 678029 823
9 5 2 90471 301
11 5 2 191170 437
-14 6 2 123275 351
-12 6 2 214448 463
-10 6 2 340800 584
-8 6 2 1357518 1165
-6 6 2 420898 649
-4 6 2 3032490 1741
-2 6 2 747400 865
0 6 2 3037692 1743
2 6 2 385706 621
4 6 2 1342063 1158
6 6 2 366528 605
8 6 2 222622 472
10 6 2 115377 340
-15 7 2 385337 621
-13 7 2 336276 580
-11 7 2 1989187 1410
-9 7 2 1180817 1087
-7 7 2 2231606 1494
-5 7 2 1439765 1200
-3 7 2 1066197 1033
-1 7 2 995465 998
1 7 2 1426255 1194
3 7 2 2200359 1483
5 7 2 1227071 1108
7 7 2 2122749 1457
9 7 2 375471 613
11 7 2 402370 634
-14 8 2 5357 73
-12 8 2 339103 582
-10 8 2 30352 174
-8 8 2 551314 743
-6 8 2 125340 354
-4 8 2 286920 536
-2 8 2 288573 537
0 8 2 258479 508
2 8 2 142254 377
4 8 2 533684 731
6 8 2 34641 186
8 8 2 340052 583
10 8 2 9216 96
-15 9 2 135348 368
-13 9 2 136358 369
-11 9 2 1316199 1147
-9 9 2 726297 852
-7 9 2 1671965 1293
-5 9 2 1565029 1251
-3 9 2 23916 155
-1 9 2 18135 135
1 9 2 1691994 1301
3 9 2 1606395 1267
5 9 2 734539 857
7 9 2 1368129 1170
9 9 2 162805 403
11 9 2 130329 361
-14 10 2 159603 400
-12 10 2 604615 778
-10 10 2 59900 245
-8 10 2 322165 568
-6 10 2 309965 557
-4 10 2 3660988 1913
-2 10 2 130668 361
0 10 2 3726794 1930
2 10 2 301758 549
4 10 2 347041 589
6 10 2 56710 238
8 10 2 693532 833
10 10 2 171449 414
-13 11 2 43545 209
-11 11 2 56977 239
-9 11 2 82955 288
-7 11 2 193962 440
-5 11 2 202330 450
-3 11 2 587673 767
-1 11 2 581444 763
1 11 2 201237 449
3 11 2 200408 448
5 11 2 67915 261
7 11 2 59046 243
9 11 2 64478 254
-14 12 2 81800 286
-12 12 2 334906 579
-10 12 2 50536 225
-8 12 2 471973 687
-6 12 2 13859 118
-4 12 2 2834445 1684
-2 12 2 27831 167
0 12 2 2967134 1723
2 12 2 12337 111
4 12 2 518900 720
6 12 2 61453 248
8 12 2 353987 595
10 12 2 89348 299
-13 13 2 150477 388
-11 13 2 333379 577
-9 13 2 333074 577
-7 13 2 283298 532
-5 13 2 137819 371
-3 13 2 597187 773
-1 13 2 628637 793
1 13 2 125188 354
3 13 2 263369 513
5 13 2 362687 602
7 13 2 332953 577
9 13 2 167546 409
-12 14 2 362110 602
-10 14 2 7034 84
-8 14 2 204311 452
-6 14 2 21160 145
-4 14 2 586985 766
-2 14 2 16241 127
0 14 2 607515 779
2 14 2 25122 158
4 14 2 227964 477
6 14 2 2417 49
8 14 2 355504 596
-13 15 2 144732 380
-11 15 2 966766 983
-9 15 2 717701 847
-7 15 2 1077259 1038
-5 15 2 325453 570
-3 15 2 105167 324
-1 15 2 103706 322
1 15 2 335982 580
3 15 2 1138937 1067
5 15 2 734373 857
7 15 2 1007980 1004
9 15 2 149422 387
-12 16 2 399313 632
-10 16 2 16031 127
-8 16 2 95971 310
-6 16 2 133228 365
-4 16 2 473064 688
-2 16 2 90651 301
0 16 2 490167 700
2 16 2 153867 392
4 16 2 87019 295
6 16 2 18525 136
8 16 2 389251 624
-11 17 2 583380 764
-9 17 2 395771 629
-7 17 2 572591 757
-5 17 2 198340 445
-3 17 2 198590 446
-1 17 2 198152 445
1 17 2 216831 466
3 17 2 617294 786
5 17 2 390166 625
7 17 2 558381 747
-12 18 2 186630 432
-10 18 2 155 12
-8 18 2 164341 405
-6 18 2 41617 204
-4 18 2 1164887 1079
-2 18 2 1789 42
0 18 2 1271756 1128
2 18 2 47996 219
4 18 2 170103 412
6 18 2 12 3
8 18 2 180212 425
-11 19 2 6718 82
-9 19 2 72222 269
-7 19 2 16097 127
-5 19 2 40546 201
-3 19 2 367350 606
-1 19 2 394251 628
1 19 2 31359 177
3 19 2 10932 105
5 19 2 75326 274
7 19 2 8118 90
-10 20 2 8403 92
-8 20 2 111098 333
-6 20 2 39221 198
-4 20 2 963208 981
-2 20 2 13060 114
0 20 2 1007548 1004
2 20 2 32731 181
4 20 2 119468 346
6 20 2 9442 97
-9 21 2 132642 364
-7 21 2 176450 420
-5 21 2 95876 310
-3 21 2 78333 280
-1 21 2 72027 268
1 21 2 108388 329
3 21 2 182171 427
5 21 2 145509 381
-8 22 2 58683 242
-6 22 2 20417 143
-4 22 2 186844 432
-2 22 2 6551 81
0 22 2 205045 453
2 22 2 17116 131
4 22 2 71666 268
-7 23 2 309603 556
-5 23 2 127168 357
-3 23 2 39116 198
-1 23 2 30309 174
1 23 2 142597 378
3 23 2 325468 570
-6 24 2 5503 74
-4 24 2 105471 325
-2 24 2 28 5
0 24 2 107807 328
2 24 2 7085 84
-5 25 2 64014 253
-3 25 2 40299 201
-1 25 2 45727 214
1 25 2 45230 213
-4 26 2 415720 645
-2 26 2 21764 148
0 26 2 431965 657
-16 0 3 580547 762
-14 0 3 1618662 1272
-12 0 3 589528 768
-10 0 3 70628 266
-8 0 3 127905 358
-6 0 3 876574 936
-4 0 3 2805691 1675
-2 0 3 2897229 1702
0 0 3 922927 961
2 0 3 138220 372
4 0 3 95920 310
6 0 3 655463 810
8 0 3 1920516 1386
10 0 3 639061 799
-15 1 3 552065 743
-13 1 3 285230 534
-11 1 3 1431761 1197
-9 1 3 397239 630
-7 1 3 1604109 1267
-5 1 3 1611086 1269
-3 1 3 1654331 1286
-1 1 3 1680923 1297
1 1 3 1612166 1270
3 1 3 459204 678
5 1 3 1517394 1232
7 1 3 319429 565
9 1 3 650287 806
-16 2 3 228734 478
-14 2 3 888413 943
-12 2 3 235957 486
-10 2 3 161808 402
-8 2 3 1090185 1044
-6 2 3 8615 93
-4 2 3 2449966 1565
-2 2 3 2459024 1568
0 2 3 27454 166
2 2 3 1118397 1058
4 2 3 146948 383
6 2 3 264226 514
8 2 3 973286 987
10 2 3 251055 501
-15 3 3 944068 972
-13 3 3 1480570 1217
-11 3 3 255336 505
-9 3 3 416561 645
-7 3 3 205127 453
-5 3 3 1548570 1244
-3 3 3 2694101 1641
-1 3 3 1625777 1275
1 3 3 250076 500
3 3 3 447513 669
5 3 3 271016 521
7 3 3 1611605 1269
9 3 3 1099993 1049
-16 4 3 83824 290
-14 4 3 689842 831
-12 4 3 329672 574
-10 4 3 141493 376
-8 4 3 1594417 1263
-6 4 3 1131944 1064
-4 4 3 1931729 1390
-2 4 3 1947646 1396
0 4 3 1194047 1093
2 4 3 1674707 1294
4 4 3 132151 364
6 4 3 360362 600
8 4 3 786000 887
10 4 3 95632 309
-15 5 3 499398 707
-13 5 3 599793 774
-11 5 3 341450 584
-9 5 3 948231 974
-7 5 3 555441 745
-5 5 3 244365 494
-3 5 3 680294 825
-1 5 3 275692 525
1 5 3 605658 778
3 5 3 1087971 1043
5 5 3 354718 596
7 5 3 632805 795
9 5 3 572777 757
-16 6 3 423816 651
-14 6 3 822383 907
-12 6 3 285676 534
-10 6 3 41669 204
-8 6 3 733621 857
-6 6 3 240069 490
-4 6 3 2758230 1661
-2 6 3 2857612 1690
0 6 3 209729 458
2 6 3 758951 871
4 6 3 48117 219
6 6 3 302654 550
8 6 3 910093 954
10 6 3 492496 702
-15 7 3 349497 591
-13 7 3 22269 149
-11 7 3 1179699 1086
-9 7 3 482692 695
-7 7 3 1476393 1215
-5 7 3 1323345 1150
-3 7 3 1073 33
-1 7 3 1301451 1141
1 7 3 1531114 1237
3 7 3 460839 679
5 7 3 1204939 1098
7 7 3 30340 174
9 7 3 375090 612
-16 8 3 196815 444
-14 8 3 411771 642
-12 8 3 24930 158
-10 8 3 339392 583
-8 8 3 808034 899
-6 8 3 92335 304
-4 8 3 1481882 1217
-2 8 3 1547972 1244
0 8 3 80350 283
2 8 3 873989 935
4 8 3 404029 636
6 8 3 26329 162
8 8 3 462538 680
10 8 3 221720 471
-15 9 3 516705 719
-13 9 3 263263 513
-11 9 3 784000 885
-9 9 3 235426 485
-7 9 3 909054 953
-5 9 3 1615276 1271
-3 9 3 1307143 1143
-1 9 3 1565047 1251
1 9 3 880037 938
3 9 3 293802 542
5 9 3 847128 920
7 9 3 319588 565
9 9 3 539687 735
-14 10 3 274306 524
-12 10 3 121247 348
-10 10 3 570742 755
-8 10 3 1375611 1173
-6 10 3 518134 720
-4 10 3 875587 936
-2 10 3 916988 958
0 10 3 526617 726
2 10 3 1451448 1205
4 10 3 624237 790
6 10 3 134441 367
8 10 3 272150 522
-15 11 3 232197 482
-13 11 3 160617 401
-11 11 3 84801 291
-9 11 3 720021 849
-7 11 3 543526 737
-5 11 3 206166 454
-3 11 3 939638 969
-1 11 3 184793 430
1 11 3 556776 746
3 11 3 747982 865
5 11 3 94336 307
7 11 3 197832 445
9 11 3 249979 500
-14 12 3 442919 666
-12 12 3 171546 414
-10 12 3 58763 242
-8 12 3 646495 804
-6 12 3 234773 485
-4 12 3 1387067 1178
-2 12 3 1436379 1198
0 12 3 267893 518
2 12 3 700497 837
4 12 3 61946 249
6 12 3 174396 418
8 12 3 501481 708
-13 13 3 32412 180
-11 13 3 589068 768
-9 13 3 1299242 1140
-7 13 3 684697 827
-5 13 3 107363 328
-3 13 3 36170 190
-1 13 3 114945 339
1 13 3 734126 857
3 13 3 1422868 1193
5 13 3 671809 820
7 13 3 44290 210
-14 14 3 195093 442
-12 14 3 35071 187
-10 14 3 234704 484
-8 14 3 867189 931
-6 14 3 200046 447
-4 14 3 518010 720
-2 14 3 509117 714
0 14 3 195517 442
2 14 3 932190 965
4 14 3 250876 501
6 14 3 38409 196
8 14 3 201332 449
-13 15 3 2998 55
-11 15 3 718544 848
-9 15 3 123514 351
-7 15 3 486678 698
-5 15 3 283948 533
-3 15 3 20742 144
-1 15 3 323598 569
1 15 3 467350 684
3 15 3 117944 343
5 15 3 795737 892
7 15 3 1896 44
-12 16 3 10284 101
-10 16 3 423744 651
-8 16 3 856596 926
-6 16 3 134101 366
-4 16 3 285822 535
-2 16 3 283655 533
0 16 3 130037 361
2 16 3 880737 938
4 16 3 448629 670
6 16 3 17190 131
-13 17 3 20964 145
-11 17 3 376400 614
-9 17 3 432647 658
-7 17 3 376770 614
-5 17 3 159149 399
-3 17 3 76269 276
-1 17 3 206091 454
1 17 3 369478 608
3 17 3 459735 678
5 17 3 380618 617
7 17 3 27730 167
-12 18 3 46893 217
-10 18 3 93046 305
-8 18 3 344070 587
-6 18 3 116251 341
-4 18 3 413225 643
-2 18 3 424913 652
0 18 3 104017 323
2 18 3 377345 614
4 18 3 92979 305
6 18 3 43751 209
-11 19 3 88423 297
-9 19 3 621921 789
-7 19 3 226234 476
-5 19 3 34707 186
-3 19 3 225266 475
-1 19 3 33754 184
1 19 3 216880 466
3 19 3 627240 792
5 19 3 85595 293
-10 20 3 70359 265
-8 20 3 346391 589
-6 20 3 108045 329
-4 20 3 299080 547
-2 20 3 302659 550
0 20 3 113910 338
2 20 3 359480 600
4 20 3 73037 270
-11 21 3 159484 399
-9 21 3 214889 464
-7 21 3 118291 344
-5 21 3 109457 331
-3 21 3 103845 322
-1 21 3 99027 315
1 21 3 116516 341
3 21 3 232538 482
5 21 3 177099 421
-10 22 3 125876 355
-8 22 3 316620 563
-6 22 3 43594 209
-4 22 3 117426 343
-2 22 3 117301 342
0 22 3 42487 206
2 22 3 328937 574
4 22 3 143723 379
-9 23 3 34087 185
-7 23 3 158076 398
-5 23 3 118574 344
-3 23 3 5781 76
-1 23 3 109227 330
1 23 3 149116 386
3 23 3 32507 180
-8 24 3 156659 396
-6 24 3 28084 168
-4 24 3 202118 450
-2 24 3 205018 453
0 24 3 20709 144
2 24 3 168061 410
-5 25 3 46690 216
-3 25 3 19855 141
-1 25 3 48661 221
-16 0 4 148342 385
-14 0 4 332957 577
-12 0 4 276340 526
-10 0 4 444173 666
-8 0 4 3006536 1734
-6 0 4 164677 406
-4 0 4 2341436 1530
-2 0 4 140832 375
0 0 4 3122374 1767
2 0 4 524936 725
4 0 4 265556 515
6 0 4 353736 595
8 0 4 152608 391
-17 1 4 134750 367
-15 1 4 336571 580
-13 1 4 3122 56
-11 1 4 462617 680
-9 1 4 961304 980
-7 1 4 1484045 1218
-5 1 4 1996564 1413
-3 1 4 1897038 1377
-1 1 4 1566016 1251
1 1 4 936571 968
3 1 4 521152 722
5 1 4 3865 62
7 1 4 397873 631
9 1 4 172779 416
-16 2 4 343645 586
-14 2 4 86904 295
-12 2 4 1221615 1105
-10 2 4 199063 446
-8 2 4 2682961 1638
-6 2 4 61378 248
-4 2 4 1205588 1098
-2 2 4 53180 231
0 2 4 2760361 1661
2 2 4 225500 475
4 2 4 1348814 1161
6 2 4 115887 340
8 2 4 416617 645
-17 3 4 198753 446
-15 3 4 172990 416
-13 3 4 25739 160
-11 3 4 2164711 1471
-9 3 4 2091231 1446
-7 3 4 196085 443
-5 3 4 645239 803
-3 3 4 663572 815
-1 3 4 224290 474
1 3 4 2170558 1473
3 3 4 2472412 1572
5 3 4 35384 188
7 3 4 199487 447
9 3 4 240082 490
-16 4 4 398966 632
-14 4 4 171203 414
-12 4 4 1852761 1361
-10 4 4 199735 447
-8 4 4 2556157 1599
-6 4 4 577070 760
-4 4 4 15954 126
-2 4 4 506298 712
0 4 4 2597452 1612
2 4 4 209631 458
4 4 4 2096318 1448
6 4 4 160928 401
8 4 4 483663 695
-17 5 4 45733 214
-15 5 4 405064 636
-13 5 4 231988 482
-11 5 4 1169455 1081
-9 5 4 701462 838
-7 5 4 576227 759
-5 5 4 246332 496
-3 5 4 188310 434
-1 5 4 605162 778
1 5 4 793556 891
3 5 4 1282319 1132
5 5 4 288118 537
7 5 4 432059 657
9 5 4 63146 251
-16 6 4 185869 431
-14 6 4 170929 413
-12 6 4 859553 927
-10 6 4 453537 673
-8 6 4 3009046 1735
-6 6 4 376159 613
-4 6 4 681656 826
-2 6 4 367691 606
0 6 4 3082667 1756
2 6 4 498251 706
4 6 4 947589 973
6 6 4 195510 442
8 6 4 214797 463
-17 7 4 163516 404
-15 7 4 604445 777
-13 7 4 380805 617
-11 7 4 43731 209
-9 7 4 422101 650
-7 7 4 1487942 1220
-5 7 4 1962478 1401
-3 7 4 1977593 1406
-1 7 4 1499824 1225
1 7 4 486032 697
3 7 4 48582 220
5 7 4 424259 651
7 7 4 656766 810
9 7 4 172718 416
-16 8 4 434842 659
-14 8 4 11046 105
-12 8 4 51504 227
-10 8 4 84952 291
-8 8 4 845568 920
-6 8 4 122076 349
-4 8 4 3208197 1791
-2 8 4 160229 400
0 8 4 825967 909
2 8 4 88414 297
4 8 4 57839 240
6 8 4 10721 104
8 8 4 464546 682
-15 9 4 292300 541
-13 9 4 4740 69
-11 9 4 665776 816
-9 9 4 787741 888
-7 9 4 794540 891
-5 9 4 1139076 1067
-3 9 4 1129361 1063
-1 9 4 847443 921
1 9 4 984153 992
3 9 4 681342 825
5 9 4 4184 65
7 9 4 302490 550
-16 10 4 550516 742
-14 10 4 70362 265
-12 10 4 990553 995
-10 10 4 65486 256
-8 10 4 544741 738
-6 10 4 280143 529
-4 10 4 2163806 1471
-2 10 4 288381 537
0 10 4 635019 797
2 10 4 75366 275
4 10 4 1080810 1040
6 10 4 91171 302
8 10 4 609815 781
-15 11 4 520737 722
-13 11 4 386276 622
-11 11 4 594115 771
-9 11 4 336742 580
-7 11 4 533597 730
-5 11 4 160677 401
-3 11 4 163482 404
-1 11 4 569574 755
1 11 4 359246 599
3 11 4 625350 791
5 11 4 431802 657
7 11 4 612420 783
-14 12 4 29877 173
-12 12 4 1206721 1099
-10 12 4 100959 318
-8 12 4 1023911 1012
-6 12 4 9059 95
-4 12 4 1243 35
-2 12 4 8969 95
0 12 4 1093837 1046
2 12 4 94241 307
4 12 4 1324492 1151
6 12 4 38790 197
8 12 4 273084 523
-15 13 4 675425 822
-13 13 4 399327 632
-11 13 4 204496 452
-9 13 4 177629 421
-7 13 4 648171 805
-5 13 4 553318 744
-3 13 4 544544 738
-1 13 4 688315 830
1 13 4 167449 409
3 13 4 235234 485
5 13 4 433367 658
7 13 4 771843 879
-14 14 4 9248 96
-12 14 4 330335 575
-10 14 4 14358 120
-8 14 4 544928 738
-6 14 4 19243 139
-4 14 4 1108518 1053
-2 14 4 15133 123
0 14 4 543384 737
2 14 4 14647 121
4 14 4 384270 620
6 14 4 8391 92
-13 15 4 45004 212
-11 15 4 17208 131
-9 15 4 212366 461
-7 15 4 447268 669
-5 15 4 728249 853
-3 15 4 682156 826
-1 15 4 416806 646
1 15 4 200209 447
3 15 4 23324 153
5 15 4 47043 217
7 15 4 264929 515
-14 16 4 28799 170
-12 16 4 32885 181
-10 16 4 8418 92
-8 16 4 201632 449
-6 16 4 133301 365
-4 16 4 1883653 1372
-2 16 4 154323 393
0 16 4 203308 451
2 16 4 8172 90
4 16 4 34497 186
6 16 4 32990 182
-13 17 4 111981 335
-11 17 4 104306 323
-9 17 4 131192 362
-7 17 4 344183 587
-5 17 4 446297 668
-3 17 4 444859 667
-1 17 4 329306 574
1 17 4 122118 349
3 17 4 127569 357
5 17 4 125470 354
-12 18 4 432634 658
-10 18 4 21317 146
-8 18 4 377098 614
-6 18 4 39754 199
-4 18 4 312858 559
-2 18 4 49770 223
0 18 4 384047 620
2 18 4 26779 164
4 18 4 482488 695
-13 19 4 201823 449
-11 19 4 156833 396
-9 19 4 75907 276
-7 19 4 203163 451
-5 19 4 222007 471
-3 19 4 213575 462
-1 19 4 209313 458
1 19 4 70986 266
3 19 4 163461 404
5 19 4 222213 471
-12 20 4 417208 646
-10 20 4 21442 146
-8 20 4 320827 566
-6 20 4 36385 191
-4 20 4 130825 362
-2 20 4 33406 183
0 20 4 320818 566
2 20 4 18071 134
4 20 4 508376 713
-11 21 4 149125 386
-9 21 4 89536 299
-7 21 4 126743 356
-5 21 4 130093 361
-3 21 4 117322 343
-1 21 4 111088 333
1 21 4 102100 320
3 21 4 175515 419
-10 22 4 2085 46
-8 22 4 169094 411
-6 22 4 16750 129
-4 22 4 540043 735
-2 22 4 17233 131
0 22 4 181556 426
2 22 4 2315 48
-9 23 4 55179 235
-7 23 4 135520 368
-5 23 4 244965 495
-3 23 4 229896 479
-1 23 4 148417 385
1 23 4 57733 240
-8 24 4 184367 429
-6 24 4 4086 64
-4 24 4 318964 565
-2 24 4 4552 67
0 24 4 195099 442
-5 25 4 100267 317
-3 25 4 105488 325
-18 0 5 709100 842
-16 0 5 640 25
-14 0 5 55374 235
-12 0 5 1761594 1327
-10 0 5 881746 939
-8 0 5 102670 320
-6 0 5 1803412 1343
-4 0 5 2047698 1431
-2 0 5 119879 346
0 0 5 978181 989
2 0 5 1924986 1387
4 0 5 54885 234
6 0 5 609 25
8 0 5 866598 931
-17 1 5 15421 124
-15 1 5 524385 724
-13 1 5 501446 708
-11 1 5 121178 348
-9 1 5 922352 960
-7 1 5 3095007 1759
-5 1 5 2594 51
-3 1 5 3178590 1783
-1 1 5 956020 978
1 1 5 154736 393
3 1 5 572947 757
5 1 5 583934 764
7 1 5 18642 137
-18 2 5 362514 602
-16 2 5 29117 171
-14 2 5 555202 745
-12 2 5 776781 881
-10 2 5 248293 498
-8 2 5 994565 997
-6 2 5 1054235 1027
-4 2 5 1159365 1077
-2 2 5 1054421 1027
0 2 5 266817 517
2 2 5 934809 967
4 2 5 664484 815
6 2 5 29657 172
8 2 5 433136 658
-17 3 5 5055 71
-15 3 5 1049324 1024
-13 3 5 254108 504
-11 3 5 40128 200
-9 3 5 2005224 1416
-7 3 5 917425 958
-5 3 5 491203 701
-3 3 5 959647 980
-1 3 5 2084869 1444
1 3 5 56859 238
3 3 5 276443 526
5 3 5 1234570 1111
7 3 5 3245 57
-18 4 5 316300 562
-16 4 5 121232 348
-14 4 5 1109883 1054
-12 4 5 979189 990
-10 4 5 533008 730
-8 4 5 1515513 1231
-6 4 5 278175 527
-4 4 5 308837 556
-2 4 5 1511638 1229
0 4 5 620653 788
2 4 5 1062965 1031
4 4 5 1233428 1111
6 4 5 141192 376
8 4 5 403165 635
-17 5 5 106463 326
-15 5 5 590720 769
-13 5 5 12260 111
-11 5 5 332459 577
-9 5 5 664784 815
-7 5 5 897143 947
-5 5 5 1459355 1208
-3 5 5 1029623 1015
-1 5 5 697214 835
1 5 5 365642 605
3 5 5 16990 130
5 5 5 671004 819
7 5 5 116117 341
-16 6 5 36411 191
-14 6 5 529316 728
-12 6 5 1628767 1276
-10 6 5 435080 660
-8 6 5 670113 819
-6 6 5 1192257 1092
-4 6 5 1086199 1042
-2 6 5 657060 811
0 6 5 498039 706
2 6 5 1838871 1356
4 6 5 597972 773
6 6 5 38469 196
-17 7 5 134040 366
-15 7 5 283057 532
-13 7 5 294698 543
-11 7 5 346640 589
-9 7 5 397312 630
-7 7 5 1954071 1398
-5 7 5 631803 795
-3 7 5 2097168 1448
-1 7 5 426538 653
1 7 5 356961 597
3 7 5 362999 602
5 7 5 334417 578
7 7 5 151321 389
-16 8 5 116183 341
-14 8 5 344046 587
-12 8 5 540788 735
-10 8 5 52502 229
-8 8 5 741685 861
-6 8 5 225880 475
-4 8 5 218266 467
-2 8 5 767106 876
0 8 5 62677 250
2 8 5 610219 781
4 8 5 417175 646
6 8 5 127311 357
-17 9 5 14568 121
-15 9 5 533790 731
-13 9 5 295186 543
-11 9 5 76282 276
-9 9 5 836870 915
-7 9 5 1463865 1210
-5 9 5 63167 251
-3 9 5 1532409 1238
-1 9 5 900791 949
1 9 5 72163 269
3 9 5 326308 571
5 9 5 618298 786
7 9 5 23484 153
-16 10 5 211718 460
-14 10 5 914287 956
-12 10 5 336177 580
-10 10 5 455248 675
-8 10 5 1305203 1142
-6 10 5 34537 186
-4 10 5 42502 206
-2 10 5 1416186 1190
0 10 5 478833 692
2 10 5 367036 606
4 10 5 1024193 1012
6 10 5 249820 500
-15 11 5 259460 509
-13 11 5 24604 157
-11 11 5 482787 695
-9 11 5 284022 533
-7 11 5 139515 374
-5 11 5 1392251 1180
-3 11 5 178833 423
-1 11 5 354330 595
1 11 5 503993 710
3 11 5 33611 183
5 11 5 288558 537
-16 12 5 28052 167
-14 12 5 504224 710
-12 12 5 508154 713
-10 12 5 411898 642
-8 12 5 638658 799
-6 12 5 77829 279
-4 12 5 84373 290
-2 12 5 668982 818
0 12 5 414437 644
2 12 5 528984 727
4 12 5 615611 785
6 12 5 46684 216
-15 13 5 102101 320
-13 13 5 137342 371
-11 13 5 679026 824
-9 13 5 164978 406
-7 13 5 247196 497
-5 13 5 1192530 1092
-3 13 5 223684 473
-1 13 5 188503 434
1 13 5 759027 871
3 13 5 147463 384
5 13 5 126723 356
-14 14 5 269278 519
-12 14 5 337736 581
-10 14 5 53915 232
-8 14 5 821621 906
-6 14 5 44224 210
-4 14 5 54721 234
-2 14 5 859589 927
0 14 5 66897 259
2 14 5 339165 582
4 14 5 323106 568
-15 15 5 149260 386
-13 15 5 143595 379
-11 15 5 82922 288
-9 15 5 179791 424
-7 15 5 987027 993
-5 15 5 131046 362
-3 15 5 960078 980
-1 15 5 218753 468
1 15 5 84916 291
3 15 5 149125 386
5 15 5 161196 401
-14 16 5 346956 589
-12 16 5 108333 329
-10 16 5 56864 238
-8 16 5 783475 885
-6 16 5 13421 116
-4 16 5 11777 109
-2 16 5 749738 866
0 16 5 52444 229
2 16 5 126151 355
4 16 5 409037 640
-13 17 5 82825 288
-11 17 5 171412 414
-9 17 5 112118 335
-7 17 5 498966 706
-5 17 5 373659 611
-3 17 5 549721 741
-1 17 5 127429 357
1 17 5 212772 461
3 17 5 77535 278
-14 18 5 322626 568
-12 18 5 173577 417
-10 18 5 128536 359
-8 18 5 330025 574
-6 18 5 15221 123
-4 18 5 16991 130
-2 18 5 356980 597
0 18 5 162280 403
2 18 5 187231 433
4 18 5 314935 561
-13 19 5 30673 175
-11 19 5 229097 479
-9 19 5 61710 248
-7 19 5 13769 117
-5 19 5 632850 796
-3 19 5 5713 76
-1 19 5 73978 272
1 19 5 248143 498
3 19 5 35770 189
-12 20 5 130868 362
-10 20 5 99612 316
-8 20 5 327359 572
-6 20 5 28550 169
-4 20 5 24701 157
-2 20 5 336957 580
0 20 5 102895 321
2 20 5 168909 411
-11 21 5 75217 274
-9 21 5 91235 302
-7 21 5 162859 404
-5 21 5 229893 479
-3 21 5 177129 421
-1 21 5 92495 304
1 21 5 83103 288
-10 22 5 15954 126
-8 22 5 308038 555
-6 22 5 4339 66
-4 22 5 8838 94
-2 22 5 313077 560
0 22 5 19961 141
-9 23 5 51104 226
-7 23 5 274108 524
-5 23 5 205 14
-3 23 5 290633 539
-1 23 5 61511 248
-8 24 5 131768 363
-6 24 5 40347 201
-4 24 5 44987 212
-2 24 5 156941 396
-18 0 6 258819 509
-16 0 6 2004848 1416
-14 0 6 3733 61
-12 0 6 714300 845
-10 0 6 442558 665
-8 0 6 2346369 1532
-6 0 6 328176 573
-4 0 6 2304088 1518
-2 0 6 401023 633
0 0 6 761948 873
2 0 6 11776 109
4 0 6 2318587 1523
6 0 6 360648 601
-17 1 6 121219 348
-15 1 6 163223 404
-13 1 6 307083 554
-11 1 6 114969 339
-9 1 6 407838 639
-7 1 6 912836 955
-5 1 6 910473 954
-3 1 6 411219 641
-1 1 6 122548 350
1 1 6 346562 589
3 1 6 197603 445
5 1 6 153171 391
-18 2 6 65492 256
-16 2 6 905130 951
-14 2 6 61717 248
-12 2 6 827856 910
-10 2 6 193456 440
-8 2 6 951644 976
-6 2 6 11894 109
-4 2 6 990633 995
-2 2 6 171641 414
0 2 6 1003456 1002
2 2 6 82321 287
4 2 6 1104941 1051
6 2 6 99923 316
-17 3 6 399591 632
-15 3 6 33156 182
-13 3 6 406226 637
-11 3 6 39678 199
-9 3 6 395016 629
-7 3 6 5088845 2256
-5 3 6 5397361 2323
-3 3 6 434142 659
-1 3 6 38866 197
1 3 6 471883 687
3 3 6 44170 210
5 3 6 477970 691
-18 4 6 54314 233
-16 4 6 127258 357
-14 4 6 160966 401
-12 4 6 257076 507
-10 4 6 170796 413
-8 4 6 620827 788
-6 4 6 143142 378
-4 4 6 652705 808
-2 4 6 199536 447
0 4 6 274920 524
2 4 6 198956 446
4 4 6 156276 395
6 4 6 63311 252
-17 5 6 71166 267
-15 5 6 226533 476
-13 5 6 84053 290
-11 5 6 343712 586
-9 5 6 833434 913
-7 5 6 1973261 1405
-5 5 6 2109150 1452
-3 5 6 1029281 1015
-1 5 6 343076 586
1 5 6 106776 327
3 5 6 251268 501
5 5 6 83905 290
-18 6 6 155011 394
-16 6 6 1472058 1213
-14 6 6 36463 191
-12 6 6 1074066 1036
-10 6 6 360605 601
-8 6 6 1150290 1073
-6 6 6 72765 270
-4 6 6 1167780 1081
-2 6 6 440347 664
0 6 6 1168799 1081
2 6 6 40902 202
4 6 6 1775072 1332
6 6 6 182634 427
-17 7 6 36919 192
-15 7 6 397870 631
-13 7 6 213524 462
-11 7 6 324770 570
-9 7 6 424067 651
-7 7 6 27579 166
-5 7 6 16004 127
-3 7 6 388169 623
-1 7 6 346192 588
1 7 6 263616 513
3 7 6 468180 684
5 7 6 41791 204
-18 8 6 21539 147
-16 8 6 1118800 1058
-14 8 6 64239 253
-12 8 6 2502356 1582
-10 8 6 74540 273
-8 8 6 460960 679
-6 8 6 11620 108
-4 8 6 413860 643
-2 8 6 73651 271
0 8 6 2558444 1600
2 8 6 64672 254
4 8 6 1280085 1131
6 8 6 28913 170
-17 9 6 136986 370
-15 9 6 120608 347
-13 9 6 230481 480
-11 9 6 64645 254
-9 9 6 203212 451
-7 9 6 767345 876
-5 9 6 657221 811
-3 9 6 242892 493
-1 9 6 80983 285
1 9 6 287966 537
3 9 6 140662 375
5 9 6 180700 425
-16 10 6 151975 390
-14 10 6 166674 408
-12 10 6 1207479 1099
-10 10 6 59282 243
-8 10 6 259769 510
-6 10 6 297117 545
-4 10 6 266862 517
-2 10 6 70809 266
0 10 6 1331160 1154
2 10 6 208285 456
4 10 6 181963 427
-17 11 6 69395 263
-15 11 6 118291 344
-13 11 6 14953 122
-11 11 6 438290 662
-9 11 6 630866 794
-7 11 6 1112692 1055
-5 11 6 1042731 1021
-3 11 6 595011 771
-1 11 6 505445 711
1 11 6 22868 151
3 11 6 129695 360
5 11 6 93910 306
-16 12 6 171719 414
-14 12 6 52823 230
-12 12 6 33962 184
-10 12 6 88599 298
-8 12 6 410967 641
-6 12 6 99860 316
-4 12 6 442280 665
-2 12 6 97549 312
0 12 6 46112 215
2 12 6 73401 271
4 12 6 183196 428
-15 13 6 294681 543
-13 13 6 43786 209
-11 13 6 620912 788
-9 13 6 1164629 1079
-7 13 6 284375 533
-5 13 6 281676 531
-3 13 6 1226121 1107
-1 13 6 713655 845
1 13 6 32116 179
3 13 6 352013 593
-16 14 6 445831 668
-14 14 6 126282 355
-12 14 6 1361837 1167
-10 14 6 6409 80
-8 14 6 191519 438
-6 14 6 131416 363
-4 14 6 175752 419
-2 14 6 10476 102
0 14 6 1550818 1245
2 14 6 153921 392
4 14 6 554708 745
-15 15 6 139419 373
-13 15 6 47415 218
-11 15 6 88790 298
-9 15 6 101339 318
-7 15 6 18853 137
-5 15 6 12607 112
-3 15 6 103710 322
-1 15 6 71800 268
1 15 6 54407 233
3 15 6 157824 397
-14 16 6 121701 349
-12 16 6 1296356 1139
-10 16 6 10476 102
-8 16 6 80698 284
-6 16 6 153186 391
-4 16 6 72006 268
-2 16 6 8438 92
0 16 6 1421263 1192
2 16 6 139489 373
-15 17 6 102130 320
-13 17 6 25246 159
-11 17 6 184795 430
-9 17 6 353710 595
-7 17 6 183658 429
-5 17 6 181232 426
-3 17 6 417503 646
-1 17 6 191896 438
1 17 6 25816 161
3 17 6 120598 347
-14 18 6 22181 149
-12 18 6 234900 485
-10 18 6 20909 145
-8 18 6 140723 375
-6 18 6 1350 37
-4 18 6 152624 391
-2 18 6 25867 161
0 18 6 241481 491
2 18 6 25082 158
-13 19 6 760 28
-11 19 6 208993 457
-9 19 6 487378 698
-7 19 6 350075 592
-5 19 6 364001 603
-3 19 6 560674 749
-1 19 6 239945 490
1 19 6 757 28
-12 20 6 92876 305
-10 20 6 17779 133
-8 20 6 106118 326
-6 20 6 314 18
-4 20 6 104446 323
-2 20 6 15940 126
0 20 6 113558 337
-11 21 6 68428 262
-9 21 6 195513 442
-7 21 6 224576 474
-5 21 6 234544 484
-3 21 6 195849 443
-1 21 6 78421 280
-10 22 6 276 17
-8 22 6 57852 241
-6 22 6 2397 49
-4 22 6 60113 245
-2 22 6 2455 50
-9 23 6 34512 186
-7 23 6 18646 137
-5 23 6 14085 119
-3 23 6 28834 170
-6 24 6 2035 45
-18 0 7 152165 390
-16 0 7 82385 287
-14 0 7 2875543 1696
-12 0 7 1768156 1330
-10 0 7 72033 268
-8 0 7 27777 167
-6 0 7 40528 201
-4 0 7 69080 263
-2 0 7 1798004 1341
0 0 7 3269188 1808
2 0 7 85425 292
4 0 7 216316 465
-19 1 7 81384 285
-17 1 7 84208 290
-15 1 7 80722 284
-13 1 7 305945 553
-11 1 7 419121 647
-9 1 7 897930 948
-7 1 7 71210 267
-5 1 7 802016 896
-3 1 7 433490 658
-1 1 7 390166 625
1 1 7 109093 330
3 1 7 116315 341
5 1 7 90367 301
-18 2 7 170137 412
-16 2 7 351632 593
-14 2 7 1002284 1001
-12 2 7 741210 861
-10 2 7 136894 370
-8 2 7 123018 351
-6 2 7 131437 363
-4 2 7 141014 376
-2 2 7 826978 909
0 2 7 1214393 1102
2 2 7 396711 630
4 2 7 209613 458
-19 3 7 159837 400
-17 3 7 104986 324
-15 3 7 282679 532
-13 3 7 400797 633
-11 3 7 1847162 1359
-9 3 7 88157 297
-7 3 7 1000355 1000
-5 3 7 126308 355
-3 3 7 1982505 1408
-1 3 7 452076 672
1 3 7 325267 570
3 3 7 142612 378
5 3 7 192935 439
-18 4 7 91173 302
-16 4 7 459195 678
-14 4 7 314497 561
-12 4 7 956737 978
-10 4 7 106622 327
-8 4 7 284733 534
-6 4 7 309349 556
-4 4 7 99900 316
-2 4 7 986600 993
0 4 7 373580 611
2 4 7 604828 778
4 4 7 109432 331
-19 5 7 341377 584
-17 5 7 33366 183
-15 5 7 66292 257
-13 5 7 77217 278
-11 5 7 1019799 1010
-9 5 7 317929 564
-7 5 7 1693613 1301
-5 5 7 331677 576
-3 5 7 1043802 1022
-1 5 7 92792 305
1 5 7 74745 273
3 5 7 53183 231
5 5 7 444272 667
-18 6 7 106582 326
-16 6 7 183929 429
-14 6 7 1399599 1183
-12 6 7 1503816 1226
-10 6 7 31234 177
-8 6 7 107643 328
-6 6 7 101639 319
-4 6 7 39530 199
-2 6 7 1695268 1302
0 6 7 1664464 1290
2 6 7 194978 442
4 6 7 109964 332
-17 7 7 146169 382
-15 7 7 123457 351
-13 7 7 204021 452
-11 7 7 31572 178
-9 7 7 800452 895
-7 7 7 759648 872
-5 7 7 1064509 1032
-3 7 7 59429 244
-1 7 7 204833 453
1 7 7 119980 346
3 7 7 174393 418
-18 8 7 411983 642
-16 8 7 233119 483
-14 8 7 702783 838
-12 8 7 504588 710
-10 8 7 295684 544
-8 8 7 218710 468
-6 8 7 193119 439
-4 8 7 300104 548
-2 8 7 546729 739
0 8 7 814416 902
2 8 7 268642 518
4 8 7 549185 741
-17 9 7 114758 339
-15 9 7 89568 299
-13 9 7 241425 491
-11 9 7 566582 753
-9 9 7 534979 731
-7 9 7 284636 534
-5 9 7 590041 768
-3 9 7 644277 803
-1 9 7 262570 512
1 9 7 104417 323
3 9 7 128542 359
-18 10 7 386909 622
-16 10 7 474500 689
-14 10 7 139967 374
-12 10 7 316046 562
-10 10 7 481734 694
-8 10 7 287152 536
-6 10 7 265887 516
-4 10 7 513341 716
-2 10 7 335902 580
0 10 7 167675 409
2 10 7 550717 742
4 10 7 513841 717
-17 11 7 3766 61
-15 11 7 1947 44
-13 11 7 13548 116
-11 11 7 471252 686
-9 11 7 66452 258
-7 11 7 2671270 1634
-5 11 7 73933 272
-3 11 7 579687 761
-1 11 7 20493 143
1 11 7 1289 36
3 11 7 4269 65
-16 12 7 270643 520
-14 12 7 121960 349
-12 12 7 479351 692
-10 12 7 50368 224
-8 12 7 89639 299
-6 12 7 86556 294
-4 12 7 54996 235
-2 12 7 516235 718
0 12 7 136197 369
2 12 7 350082 592
-17 13 7 32082 179
-15 13 7 22147 149
-13 13 7 27996 167
-11 13 7 165471 407
-9 13 7 329065 574
-7 13 7 1591343 1261
-5 13 7 289697 538
-3 13 7 201578 449
-1 13 7 44638 211
1 13 7 30276 174
3 13 7 43202 208
-16 14 7 235994 486
-14 14 7 357415 598
-12 14 7 299710 547
-10 14 7 178689 423
-8 14 7 98158 313
-6 14 7 98162 313
-4 14 7 203955 452
-2 14 7 359476 600
0 14 7 384626 620
2 14 7 286421 535
-15 15 7 22205 149
-13 15 7 38628 197
-11 15 7 21144 145
-9 15 7 572927 757
-7 15 7 105269 324
-5 15 7 604076 777
-3 15 7 18515 136
-1 15 7 61032 247
1 15 7 27892 167
-14 16 7 209839 458
-12 16 7 105296 324
-10 16 7 338500 582
-8 16 7 208989 457
-6 16 7 213732 462
-4 16 7 360036 600
-2 16 7 119481 346
0 16 7 239413 489
-15 17 7 17638 133
-13 17 7 17114 131
-11 17 7 107358 328
-9 17 7 320854 566
-7 17 7 544161 738
-5 17 7 317964 564
-3 17 7 115784 340
-1 17 7 32334 180
1 17 7 16143 127
-14 18 7 121368 348
-12 18 7 166895 409
-10 18 7 76323 276
-8 18 7 41803 204
-6 18 7 42784 207
-4 18 7 83050 288
-2 18 7 147769 384
0 18 7 139461 373
-13 19 7 54 7
-11 19 7 128200 358
-9 19 7 79673 282
-7 19 7 871703 934
-5 19 7 68173 261
-3 19 7 151745 390
-1 19 7 766 28
-12 20 7 146973 383
-10 20 7 61831 249
-8 20 7 51851 228
-6 20 7 61429 248
-4 20 7 57548 240
-2 20 7 160548 401
-11 21 7 136210 369
-9 21 7 106206 326
-7 21 7 273686 523
-5 21 7 128314 358
-3 21 7 148709 386
-10 22 7 130567 361
-8 22 7 44454 211
-6 22 7 41926 205
-4 22 7 104874 324
-7 23 7 1967 44
-18 0 8 230853 480
-16 0 8 154522 393
-14 0 8 5721 76
-12 0 8 167867 410
-10 0 8 354509 595
-8 0 8 279312 528
-6 0 8 384316 620
-4 0 8 192473 439
-2 0 8 15980 126
0 0 8 175907 419
2 0 8 272436 522
-19 1 8 339761 583
-17 1 8 62032 249
-15 1 8 77043 278
-13 1 8 436391 661
-11 1 8 1054404 1027
-9 1 8 1108444 1053
-7 1 8 1325019 1151
-5 1 8 1265933 1125
-3 1 8 451020 672
-1 1 8 100075 316
1 1 8 83702 289
3 1 8 433321 658
-18 2 8 103965 322
-16 2 8 1116052 1056
-14 2 8 60552 246
-12 2 8 989274 995
-10 2 8 69726 264
-8 2 8 1501 39
-6 2 8 83233 289
-4 2 8 1148928 1072
-2 2 8 83372 289
0 2 8 1243352 1115
2 2 8 131284 362
-19 3 8 177111 421
-17 3 8 54099 233
-15 3 8 266989 517
-13 3 8 215619 464
-11 3 8 209092 457
-9 3 8 579725 761
-7 3 8 659901 812
-5 3 8 228773 478
-3 3 8 237730 488
-1 3 8 311565 558
1 3 8 77039 278
3 3 8 218634 468
-18 4 8 157370 397
-16 4 8 1729889 1315
-14 4 8 144579 380
-12 4 8 1583100 1258
-10 4 8 132854 364
-8 4 8 260700 511
-6 4 8 169341 412
-4 4 8 1743064 1320
-2 4 8 173425 416
0 4 8 2166234 1472
2 4 8 182248 427
-19 5 8 52788 230
-17 5 8 14520 120
-15 5 8 65485 256
-13 5 8 15254 124
-11 5 8 275319 525
-9 5 8 253162 503
-7 5 8 224301 474
-5 5 8 250041 500
-3 5 8 16380 128
-1 5 8 77991 279
1 5 8 21280 146
3 5 8 66072 257
-18 6 8 221718 471
-16 6 8 547593 740
-14 6 8 37722 194
-12 6 8 696935 835
-10 6 8 233901 484
-8 6 8 24598 157
-6 6 8 279428 529
-4 6 8 730992 855
-2 6 8 48477 220
0 6 8 643564 802
2 6 8 273207 523
-19 7 8 342200 585
-17 7 8 61893 249
-15 7 8 91708 303
-13 7 8 232625 482
-11 7 8 836574 915
-9 7 8 1431626 1197
-7 7 8 1523285 1234
-5 7 8 900202 949
-3 7 8 272553 522
-1 7 8 112972 336
1 7 8 90065 300
3 7 8 417696 646
-18 8 8 24937 158
-16 8 8 43442 208
-14 8 8 53887 232
-12 8 8 47531 218
-10 8 8 25221 159
-8 8 8 27268 165
-6 8 8 23166 152
-4 8 8 47532 218
-2 8 8 60613 246
0 8 8 51167 226
2 8 8 28464 169
-17 9 8 46621 216
-15 9 8 72590 269
-13 9 8 251615 502
-11 9 8 557615 747
-9 9 8 1315893 1147
-7 9 8 1251246 1119
-5 9 8 655731 810
-3 9 8 269534 519
-1 9 8 103322 321
1 9 8 58505 242
-18 10 8 56048 237
-16 10 8 864273 930
-14 10 8 184119 429
-12 10 8 801917 895
-10 10 8 51860 228
-8 10 8 150222 388
-6 10 8 53784 232
-4 10 8 858243 926
-2 10 8 189996 436
0 10 8 1070261 1035
2 10 8 73910 272
-17 11 8 19864 141
-15 11 8 637 25
-13 11 8 24140 155
-11 11 8 61780 249
-9 11 8 75817 275
-7 11 8 63297 252
-5 11 8 70252 265
-3 11 8 31785 178
-1 11 8 3782 61
1 11 8 17071 131
-16 12 8 1119825 1058
-14 12 8 52494 229
-12 12 8 995886 998
-10 12 8 44398 211
-8 12 8 81748 286
-6 12 8 49332 222
-4 12 8 1127789 1062
-2 12 8 62925 251
0 12 8 1356983 1165
-17 13 8 80741 284
-15 13 8 24572 157
-13 13 8 122469 350
-11 13 8 468180 684
-9 13 8 371571 610
-7 13 8 356234 597
-5 13 8 529109 727
-3 13 8 133700 366
-1 13 8 32809 181
1 13 8 107007 327
-16 14 8 326024 571
-14 14 8 145282 381
-12 14 8 316608 563
-10 14 8 1634 40
-8 14 8 22044 148
-6 14 8 5603 75
-4 14 8 308267 555
-2 14 8 151501 389
0 14 8 362032 602
-15 15 8 20310 143
-13 15 8 123557 352
-11 15 8 556394 746
-9 15 8 508371 713
-7 15 8 577096 760
-5 15 8 588904 767
-3 15 8 147726 384
-1 15 8 19809 141
-14 16 8 99731 316
-12 16 8 20570 143
-10 16 8 11301 106
-8 16 8 50874 226
-6 16 8 15101 123
-4 16 8 28109 168
-2 16 8 121696 349
0 16 8 72629 269
-15 17 8 21292 146
-13 17 8 73289 271
-11 17 8 244410 494
-9 17 8 251145 501
-7 17 8 243099 493
-5 17 8 281150 530
-3 17 8 74936 274
-1 17 8 18077 134
-14 18 8 19867 141
-12 18 8 353937 595
-10 18 8 108 10
-8 18 8 1249 35
-6 18 8 405 20
-4 18 8 362931 602
-2 18 8 24638 157
-13 19 8 28089 168
-11 19 8 57590 240
-9 19 8 4324 66
-7 19 8 2043 45
-5 19 8 69255 263
-3 19 8 36029 190
-12 20 8 383367 619
-10 20 8 7557 87
-8 20 8 7413 86
-6 20 8 5894 77
-4 20 8 418698 647
-11 21 8 123970 352
-9 21 8 137722 371
-7 21 8 165277 407
-5 21 8 138397 372
-18 0 9 549844 742
-16 0 9 68335 261
-14 0 9 34382 185
-12 0 9 412510 642
-10 0 9 561255 749
-8 0 9 526272 725
-6 0 9 475927 690
-4 0 9 45834 214
-2 0 9 51840 228
0 0 9 733328 856
-19 1 9 171743 414
-17 1 9 57363 240
-15 1 9 128829 359
-13 1 9 642 25
-11 1 9 1349412 1162
-9 1 9 479651 693
-7 1 9 1512825 1230
-5 1 9 4181 65
-3 1 9 168082 410
-1 1 9 60334 246
1 1 9 225112 474
-18 2 9 427561 654
-16 2 9 293767 542
-14 2 9 427697 654
-12 2 9 190421 436
-10 2 9 143413 379
-8 2 9 191519 438
-6 2 9 207886 456
-4 2 9 516850 719
-2 2 9 342060 585
0 2 9 543067 737
-19 3 9 175576 419
-17 3 9 42263 206
-15 3 9 25402 159
-13 3 9 25285 159
-11 3 9 587692 767
-9 3 9 1325850 1151
-7 3 9 644524 803
-5 3 9 27578 166
-3 3 9 32349 180
-1 3 9 62864 251
1 3 9 231479 481
-18 4 9 564717 751
-16 4 9 374795 612
-14 4 9 916506 957
-12 4 9 254323 504
-10 4 9 282460 531
-8 4 9 279657 529
-6 4 9 261120 511
-4 4 9 999083 1000
-2 4 9 465660 682
0 4 9 755974 869
-19 5 9 50613 225
-17 5 9 19155 138
-15 5 9 168033 410
-13 5 9 173529 417
-11 5 9 471898 687
-9 5 9 732845 856
-7 5 9 457772 677
-5 5 9 197487 444
-3 5 9 193765 440
-1 5 9 22171 149
1 5 9 70872 266
-18 6 9 341188 584
-16 6 9 172318 415
-14 6 9 409349 640
-12 6 9 243308 493
-10 6 9 446778 668
-8 6 9 528048 727
-6 6 9 214526 463
-4 6 9 514914 718
-2 6 9 174576 418
0 6 9 464118 681
-19 7 9 150087 387
-17 7 9 69422 263
-15 7 9 317596 564
-13 7 9 314145 560
-11 7 9 1478737 1216
-9 7 9 5137 72
-7 7 9 1475496 1215
-5 7 9 346088 588
-3 7 9 351033 592
-1 7 9 73375 271
1 7 9 210952 459
-18 8 9 53462 231
-16 8 9 174086 417
-14 8 9 256120 506
-12 8 9 19465 140
-10 8 9 88941 298
-8 8 9 105209 324
-6 8 9 15281 124
-4 8 9 288874 537
-2 8 9 256041 506
0 8 9 92165 304
-17 9 9 30047 173
-15 9 9 94121 307
-13 9 9 6004 77
-11 9 9 907800 953
-9 9 9 619114 787
-7 9 9 891985 944
-5 9 9 1583 40
-3 9 9 100327 317
-1 9 9 48055 219
-18 10 9 282638 532
-16 10 9 399171 632
-14 10 9 670905 819
-12 10 9 75526 275
-10 10 9 53220 231
-8 10 9 57501 240
-6 10 9 108567 329
-4 10 9 767712 876
-2 10 9 484700 696
0 10 9 362872 602
-17 11 9 16610 129
-15 11 9 88969 298
-13 11 9 287005 536
-11 11 9 41482 204
-9 11 9 627344 792
-7 11 9 41233 203
-5 11 9 310109 557
-3 11 9 113311 337
-1 11 9 25682 160
-16 12 9 243553 494
-14 12 9 457115 676
-12 12 9 126744 356
-10 12 9 141904 377
-8 12 9 132097 363
-6 12 9 142465 377
-4 12 9 525809 725
-2 12 9 249938 500
-17 13 9 80761 284
-15 13 9 221290 470
-13 13 9 262792 513
-11 13 9 215440 464
-9 13 9 138907 373
-7 13 9 226636 476
-5 13 9 299333 547
-3 13 9 275853 525
-1 13 9 112968 336
-16 14 9 212054 460
-14 14 9 187871 433
-12 14 9 34312 185
-10 14 9 39941 200
-8 14 9 29616 172
-6 14 9 28003 167
-4 14 9 257725 508
-2 14 9 222079 471
-15 15 9 114286 338
-13 15 9 28315 168
-11 15 9 649544 806
-9 15 9 3822 62
-7 15 9 714026 845
-5 15 9 37332 193
-3 15 9 127298 357
-14 16 9 279095 528
-12 16 9 14682 121
-10 16 9 12021 110
-8 16 9 15326 124
-6 16 9 11310 106
-4 16 9 321867 567
-15 17 9 91958 303
-13 17 9 93227 305
-11 17 9 384264 620
-9 17 9 5521 74
-7 17 9 425000 652
-5 17 9 100061 316
-3 17 9 93115 305
-14 18 9 205365 453
-12 18 9 35946 190
-10 18 9 37538 194
-8 18 9 30400 174
-6 18 9 42999 207
-4 18 9 227299 477
-13 19 9 156474 396
-11 19 9 5565 75
-9 19 9 122861 351
-7 19 9 7599 87
-5 19 9 158938 399
-10 20 9 24574 157
-8 20 9 25254 159
-20 0 10 318841 565
-18 0 10 205575 453
-16 0 10 1363744 1168
-14 0 10 226130 476
-12 0 10 21550 147
-10 0 10 8912 94
-8 0 10 18902 137
-6 0 10 262452 512
-4 0 10 1781085 1335
-2 0 10 233883 484
0 0 10 406559 638
-19 1 10 145440 381
-17 1 10 61173 247
-15 1 10 352550 594
-13 1 10 183542 428
-11 1 10 205003 453
-9 1 10 208408 457
-7 1 10 200162 447
-5 1 10 383187 619
-3 1 10 85669 293
-1 1 10 187737 433
-18 2 10 84573 291
-16 2 10 617927 786
-14 2 10 58634 242
-12 2 10 220019 469
-10 2 10 514 23
-8 2 10 194443 441
-6 2 10 79417 282
-4 2 10 835552 914
-2 2 10 110177 332
0 2 10 296766 545
-19 3 10 186394 432
-17 3 10 83435 289
-15 3 10 710055 843
-13 3 10 996985 998
-11 3 10 363078 603
-9 3 10 365325 604
-7 3 10 1075929 1037
-5 3 10 887525 942
-3 3 10 107954 329
-1 3 10 223365 473
-18 4 10 136420 369
-16 4 10 96412 311
-14 4 10 114609 339
-12 4 10 427708 654
-10 4 10 45398 213
-8 4 10 399806 632
-6 4 10 132155 364
-4 4 10 121840 349
-2 4 10 150657 388
-19 5 10 43479 209
-17 5 10 20166 142
-15 5 10 421892 650
-13 5 10 381726 618
-11 5 10 720458 849
-9 5 10 799519 894
-7 5 10 433033 658
-5 5 10 458867 677
-3 5 10 44272 210
-1 5 10 57098 239
-18 6 10 170481 413
-16 6 10 1096576 1047
-14 6 10 95629 309
-12 6 10 109948 332
-10 6 10 50024 224
-8 6 10 155946 395
-6 6 10 131669 363
-4 6 10 1276387 1130
-2 6 10 212340 461
-19 7 10 132432 364
-17 7 10 110213 332
-15 7 10 208996 457
-13 7 10 21141 145
-11 7 10 421461 649
-9 7 10 379817 616
-7 7 10 18858 137
-5 7 10 220906 470
-3 7 10 135036 367
-1 7 10 144257 380
-18 8 10 17221 131
-16 8 10 878817 937
-14 8 10 14141 119
-12 8 10 190269 436
-10 8 10 8912 94
-8 8 10 195265 442
-6 8 10 9386 97
-4 8 10 1012688 1006
-2 8 10 15608 125
-17 9 10 93232 305
-15 9 10 406605 638
-13 9 10 172853 416
-11 9 10 87914 297
-9 9 10 71728 268
-7 9 10 210388 459
-5 9 10 433562 658
-3 9 10 104305 323
-18 10 10 48146 219
-16 10 10 121192 348
-14 10 10 56335 237
-12 10 10 375313 613
-10 10 10 115105 339
-8 10 10 401609 634
-6 10 10 65288 256
-4 10 10 142500 377
-2 10 10 66186 257
-17 11 10 3368 58
-15 11 10 179781 424
-13 11 10 112583 336
-11 11 10 621048 788
-9 11 10 606919 779
-7 11 10 107519 328
-5 11 10 210669 459
-3 11 10 3551 60
-16 12 10 116853 342
-14 12 10 22394 150
-12 12 10 215765 465
-10 12 10 16227 127
-8 12 10 212535 461
-6 12 10 33958 184
-4 12 10 155201 394
-17 13 10 25602 160
-15 13 10 72444 269
-13 13 10 23996 155
-11 13 10 661654 813
-9 13 10 706729 841
-7 13 10 23443 153
-5 13 10 96155 310
-3 13 10 40892 202
-16 14 10 323921 569
-14 14 10 4362 66
-12 14 10 233438 483
-10 14 10 24378 156
-8 14 10 255978 506
-6 14 10 4479 67
-4 14 10 388000 623
-15 15 10 103766 322
-13 15 10 2183 47
-11 15 10 95455 309
-9 15 10 108752 330
-7 15 10 2981 55
-5 15 10 103394 322
-14 16 10 18276 135
-12 16 10 236490 486
-10 16 10 55458 235
-8 16 10 247132 497
-6 16 10 16766 129
-13 17 10 14974 122
-11 17 10 174771 418
-9 17 10 161654 402
-7 17 10 21645 147
-12 18 10 106236 326
-10 18 10 6971 83
-8 18 10 111312 334
-18 0 11 114628 339
-16 0 11 230 15
-14 0 11 1070784 1035
-12 0 11 25404 159
-10 0 11 30857 176
-8 0 11 1173161 1083
-6 0 11 92 10
-4 0 11 163076 404
-19 1 11 277084 526
-17 1 11 83186 288
-15 1 11 189703 436
-13 1 11 180179 424
-11 1 11 400900 633
-9 1 11 199285 446
-7 1 11 205377 453
-5 1 11 113148 336
-3 1 11 322947 568
-18 2 11 127834 358
-16 2 11 22567 150
-14 2 11 562374 750
-12 2 11 113921 338
-10 2 11 143746 379
-8 2 11 582136 763
-6 2 11 24599 157
-4 2 11 150796 388
-19 3 11 123837 352
-17 3 11 243677 494
-15 3 11 128804 359
-13 3 11 77926 279
-11 3 11 1379468 1175
-9 3 11 79178 281
-7 3 11 106726 327
-5 3 11 329506 574
-3 3 11 161464 402
-18 4 11 69857 264
-16 4 11 79746 282
-14 4 11 434186 659
-12 4 11 192716 439
-10 4 11 172229 415
-8 4 11 454020 674
-6 4 11 103264 321
-4 4 11 72234 269
-19 5 11 34267 185
-17 5 11 49074 222
-15 5 11 231914 482
-13 5 11 57030 239
-11 5 11 754452 869
-9 5 11 56137 237
-7 5 11 267865 518
-5 5 11 61993 249
-3 5 11 41482 204
-18 6 11 67316 259
-16 6 11 27840 167
-14 6 11 463421 681
-12 6 11 62808 251
-10 6 11 55453 235
-8 6 11 503880 710
-6 6 11 25661 160
-4 6 11 86590 294
-19 7 11 259232 509
-17 7 11 25189 159
-15 7 11 341463 584
-13 7 11 218469 467
-11 7 11 10893 104
-9 7 11 226237 476
-7 7 11 428268 654
-5 7 11 21206 146
-3 7 11 294104 542
-18 8 11 305505 553
-16 8 11 81185 285
-14 8 11 202453 450
-12 8 11 10550 103
-10 8 11 23789 154
-8 8 11 269833 519
-6 8 11 93892 306
-4 8 11 371792 610
-17 9 11 97598 312
-15 9 11 166564 408
-13 9 11 87497 296
-11 9 11 397081 630
-9 9 11 82406 287
-7 9 11 183564 428
-5 9 11 107881 328
-18 10 11 300564 548
-16 10 11 129134 359
-14 10 11 143278 379
-12 10 11 141048 376
-10 10 11 195846 443
-8 10 11 185911 431
-6 10 11 175029 418
-4 10 11 361215 601
-17 11 11 53437 231
-15 11 11 330955 575
-13 11 11 32721 181
-11 11 11 476007 690
-9 11 11 32139 179
-7 11 11 371054 609
-5 11 11 66493 258
-16 12 11 28783 170
-14 12 11 309763 557
-12 12 11 113934 338
-10 12 11 122427 350
-8 12 11 319041 565
-6 12 11 25990 161
-15 13 11 458274 677
-13 13 11 84123 290
-11 13 11 130290 361
-9 13 11 81502 285
-7 13 11 477200 691
-14 14 11 98965 315
-12 14 11 78807 281
-10 14 11 68668 262
-8 14 11 128955 359
-13 15 11 84378 290
-11 15 11 1640 40
-9 15 11 95717 309
-12 16 11 70456 265
-10 16 11 59695 244
-18 0 12 188379 434
-16 0 12 81081 285
-14 0 12 75736 275
-12 0 12 1496575 1223
-10 0 12 79686 282
-8 0 12 95896 310
-6 0 12 212653 461
-19 1 12 58269 241
-17 1 12 14142 119
-15 1 12 308961 556
-13 1 12 163601 404
-11 1 12 180354 425
-9 1 12 327595 572
-7 1 12 12378 111
-5 1 12 79312 282
-18 2 12 62289 250
-16 2 12 210648 459
-14 2 12 23330 153
-12 2 12 408042 639
-10 2 12 10672 103
-8 2 12 226611 476
-6 2 12 63253 252
-19 3 12 108852 330
-17 3 12 3593 60
-15 3 12 531394 729
-13 3 12 111312 334
-11 3 12 103629 322
-9 3 12 555657 745
-7 3 12 2701 52
-5 3 12 124525 353
-18 4 12 20620 144
-16 4 12 254763 505
-14 4 12 85334 292
-12 4 12 102764 321
-10 4 12 66916 259
-8 4 12 270907 520
-6 4 12 42716 207
-19 5 12 222391 472
-17 5 12 62849 251
-15 5 12 312935 559
-13 5 12 20693 144
-11 5 12 13278 115
-9 5 12 280755 530
-7 5 12 78678 280
-5 5 12 303384 551
-18 6 12 79721 282
-16 6 12 97266 312
-14 6 12 57230 239
-12 6 12 689548 830
-10 6 12 59261 243
-8 6 12 121117 348
-6 6 12 117666 343
-17 7 12 76382 276
-15 7 12 182005 427
-13 7 12 189933 436
-11 7 12 178649 423
-9 7 12 201436 449
-7 7 12 104937 324
-18 8 12 12273 111
-16 8 12 214454 463
-14 8 12 3981 63
-12 8 12 519902 721
-10 8 12 7783 88
-8 8 12 272349 522
-6 8 12 17781 133
-17 9 12 16346 128
-15 9 12 225395 475
-13 9 12 125195 354
-11 9 12 132674 364
-9 9 12 317594 564
-7 9 12 22945 151
-16 10 12 303472 551
-14 10 12 89610 299
-12 10 12 39794 199
-10 10 12 88896 298
-8 10 12 336586 580
-15 11 12 132033 363
-13 11 12 12941 114
-11 11 12 16496 128
-9 11 12 135353 368
-14 12 12 57208 239
-12 12 12 52838 230
-10 12 12 50565 225
-8 12 12 168239 410
-13 13 12 96315 310
-11 13 12 102404 320
-12 14 12 215500 464
-18 0 13 372984 611
-16 0 13 232228 482
-14 0 13 93909 306
-12 0 13 98218 313
-10 0 13 264018 514
-8 0 13 406472 638
-17 1 13 87710 296
-15 1 13 111114 333
-13 1 13 1940 44
-11 1 13 145669 382
-9 1 13 61460 248
-18 2 13 186671 432
-16 2 13 95628 309
-14 2 13 125332 354
-12 2 13 148245 385
-10 2 13 108039 329
-8 2 13 228190 478
-17 3 13 99264 315
-15 3 13 18587 136
-13 3 13 1098 33
-11 3 13 23863 154
-9 3 13 109117 330
-18 4 13 169967 412
-16 4 13 41444 204
-14 4 13 108613 330
-12 4 13 151197 389
-10 4 13 28276 168
-8 4 13 228719 478
-17 5 13 25464 160
-15 5 13 82386 287
-13 5 13 35411 188
-11 5 13 99534 315
-9 5 13 28700 169
-16 6 13 208054 456
-14 6 13 74285 273
-12 6 13 82019 286
-10 6 13 224093 473
-17 7 13 84959 291
-15 7 13 167333 409
-13 7 13 117806 343
-11 7 13 224903 474
-9 7 13 101586 319
-16 8 13 100659 317
-14 8 13 344148 587
-12 8 13 346862 589
-10 8 13 106582 326
-15 9 13 75167 274
-13 9 13 7317 86
-11 9 13 70348 265
-14 10 13 272236 522
-12 10 13 268508 518
-16 0 14 69783 264
-14 0 14 293891 542
-12 0 14 94573 308
-15 1 14 75085 274
-13 1 14 69164 263
-14 2 14 50255 224
-15 3 14 182066 427
-13 3 14 199762 447
-14 4 14 36436 191
-1 -1 0 735071 857
-3 -1 0 1675343 1294
-5 -1 0 2506 50
-7 -1 0 79022 281
-9 -1 0 701980 838
-11 -1 0 643308 802
-13 -1 0 6779 82
0 -2 0 9997198 3162
-2 -2 0 5113 72
-4 -2 0 1243942 1115
-6 -2 0 4722 69
-8 -2 0 3622 60
-10 -2 0 1752 42
-12 -2 0 816446 904
-14 -2 0 139968 374
-1 -3 0 1956051 1399
-3 -3 0 2778250 1667
-5 -3 0 538100 734
-7 -3 0 1302749 1141
-9 -3 0 1991217 1411
-11 -3 0 2353479 1534
-13 -3 0 3931 63
0 -4 0 605382 778
-2 -4 0 191633 438
-4 -4 0 18530 136
-6 -4 0 183499 428
-8 -4 0 311714 558
-10 -4 0 76773 277
-12 -4 0 182519 427
-14 -4 0 90006 300
-1 -5 0 566518 753
-3 -5 0 772355 879
-5 -5 0 1619114 1272
-7 -5 0 2214345 1488
-9 -5 0 1051855 1026
-11 -5 0 1254999 1120
-13 -5 0 65676 256
0 -6 0 4995867 2235
-2 -6 0 806913 898
-4 -6 0 760817 872
-6 -6 0 96039 310
-8 -6 0 39699 199
-10 -6 0 70475 265
-12 -6 0 1385947 1177
-1 -7 0 42751 207
-3 -7 0 2974 55
-5 -7 0 750106 866
-7 -7 0 932678 966
-9 -7 0 5601 75
-11 -7 0 7765 88
-13 -7 0 229731 479
0 -8 0 8753440 2959
-2 -8 0 319384 565
-4 -8 0 3547108 1883
-6 -8 0 10992 105
-8 -8 0 45412 213
-10 -8 0 26733 164
-12 -8 0 1008521 1004
-1 -9 0 392604 627
-3 -9 0 1361633 1167
-5 -9 0 75128 274
-7 -9 0 295499 544
-9 -9 0 848155 921
-11 -9 0 690429 831
-13 -9 0 15274 124
0 -10 0 1529003 1237
-2 -10 0 121086 348
-4 -10 0 2313940 1521
-6 -10 0 364024 603
-8 -10 0 221078 470
-10 -10 0 200749 448
-12 -10 0 71502 267
-1 -11 0 2797 53
-3 -11 0 1036202 1018
-5 -11 0 1554837 1247
-7 -11 0 3054584 1748
-9 -11 0 803059 896
-11 -11 0 774549 880
0 -12 0 205007 453
-2 -12 0 41171 203
-4 -12 0 2550 50
-6 -12 0 123134 351
-8 -12 0 106434 326
-10 -12 0 32898 181
-12 -12 0 118018 344
-1 -13 0 112761 336
-3 -13 0 42797 207
-5 -13 0 1387975 1178
-7 -13 0 1946935 1395
-9 -13 0 191590 438
-11 -13 0 212196 461
0 -14 0 1874269 1369
-2 -14 0 14149 119
-4 -14 0 1180303 1086
-6 -14 0 161248 402
-8 -14 0 32352 180
-10 -14 0 43609 209
-12 -14 0 421260 649
-1 -15 0 3046 55
-3 -15 0 14022 118
-5 -15 0 146119 382
-7 -15 0 117440 343
-9 -15 0 5775 76
-11 -15 0 1001 32
0 -16 0 1913020 1383
-2 -16 0 85893 293
-4 -16 0 1927518 1388
-6 -16 0 155753 395
-8 -16 0 76360 276
-10 -16 0 121958 349
-1 -17 0 3257 57
-3 -17 0 69792 264
-5 -17 0 443945 666
-7 -17 0 688726 830
-9 -17 0 17456 132
0 -18 0 758522 871
-2 -18 0 4236 65
-4 -18 0 329745 574
-6 -18 0 1430 38
-8 -18 0 2885 54
-10 -18 0 15992 126
-1 -19 0 2870 54
-3 -19 0 239632 490
-5 -19 0 666020 816
-7 -19 0 1074968 1037
-9 -19 0 166415 408
0 -20 0 91346 302
-2 -20 0 14897 122
-4 -20 0 134089 366
-6 -20 0 1032 32
-8 -20 0 7857 89
-1 -21 0 6340 80
-3 -21 0 100894 318
-5 -21 0 241741 492
-7 -21 0 344142 587
0 -22 0 777341 882
-2 -22 0 6638 81
-4 -22 0 609825 781
-6 -22 0 6533 81
-1 -23 0 6968 83
-3 -23 0 13784 117
-5 -23 0 1856 43
-7 -23 0 4721 69
0 -24 0 665868 816
-2 -24 0 392 20
-4 -24 0 332888 577
-6 -24 0 975 31
-1 -25 0 3819 62
-3 -25 0 24138 155
0 -26 0 223485 473
-2 -26 0 22006 148
15 -1 -1 174970 418
13 -1 -1 305836 553
11 -1 -1 307395 554
9 -1 -1 1719560 1311
7 -1 -1 1100085 1049
5 -1 -1 1911184 1382
3 -1 -1 11114 105
1 -1 -1 737048 859
-1 -1 -1 1844 43
-3 -1 -1 2077869 1441
-5 -1 -1 1073405 1036
-7 -1 -1 1637396 1280
-9 -1 -1 291147 540
-11 -1 -1 330619 575
-13 -1 -1 171543 414
14 -2 -1 295949 544
12 -2 -1 212341 461
10 -2 -1 272739 522
8 -2 -1 164245 405
6 -2 -1 1193199 1092
4 -2 -1 2503236 1582
2 -2 -1 2275618 1509
0 -2 -1 2427432 1558
-2 -2 -1 2560773 1600
-4 -2 -1 1253637 1120
-6 -2 -1 131828 363
-8 -2 -1 296501 545
-10 -2 -1 214249 463
-12 -2 -1 335322 579
15 -3 -1 464359 681
13 -3 -1 198416 445
11 -3 -1 532985 730
9 -3 -1 838322 916
7 -3 -1 5993017 2448
5 -3 -1 713058 844
3 -3 -1 47344 218
1 -3 -1 1958196 1399
-1 -3 -1 35322 188
-3 -3 -1 689917 831
-5 -3 -1 5994025 2448
-7 -3 -1 775576 881
-9 -3 -1 542848 737
-11 -3 -1 195563 442
-13 -3 -1 456013 675
14 -4 -1 304494 552
12 -4 -1 327854 573
10 -4 -1 380561 617
8 -4 -1 367733 606
6 -4 -1 333768 578
4 -4 -1 2048304 1431
2 -4 -1 1952720 1397
0 -4 -1 1905494 1380
-2 -4 -1 1918543 1385
-4 -4 -1 315661 562
-6 -4 -1 339431 583
-8 -4 -1 353647 595
-10 -4 -1 335939 580
-12 -4 -1 295566 544
13 -5 -1 45403 213
11 -5 -1 1099149 1048
9 -5 -1 301930 549
7 -5 -1 2251254 1500
5 -5 -1 204476 452
3 -5 -1 623081 789
1 -5 -1 564430 751
-1 -5 -1 655234 809
-3 -5 -1 294335 543
-5 -5 -1 2321630 1524
-7 -5 -1 337219 581
-9 -5 -1 1139120 1067
-11 -5 -1 47636 218
14 -6 -1 161496 402
12 -6 -1 103531 322
10 -6 -1 672700 820
8 -6 -1 140486 375
6 -6 -1 1208405 1099
4 -6 -1 3038102 1743
2 -6 -1 468564 685
0 -6 -1 543441 737
-2 -6 -1 2888615 1700
-4 -6 -1 1232972 1110
-6 -6 -1 142007 377
-8 -6 -1 672980 820
-10 -6 -1 119192 345
-12 -6 -1 171181 414
13 -7 -1 365548 605
11 -7 -1 650820 807
9 -7 -1 1883842 1373
7 -7 -1 24382 156
5 -7 -1 2093300 1447
3 -7 -1 1046039 1023
1 -7 -1 35445 188
-1 -7 -1 1049185 1024
-3 -7 -1 2161959 1470
-5 -7 -1 29183 171
-7 -7 -1 2039670 1428
-9 -7 -1 700888 837
-11 -7 -1 391259 626
14 -8 -1 680655 825
12 -8 -1 37013 192
10 -8 -1 179059 423
8 -8 -1 205859 454
6 -8 -1 223283 473
4 -8 -1 1549396 1245
2 -8 -1 3013067 1736
0 -8 -1 2989940 1729
-2 -8 -1 1534551 1239
-4 -8 -1 204963 453
-6 -8 -1 241379 491
-8 -8 -1 178835 423
-10 -8 -1 35099 187
-12 -8 -1 742921 862
13 -9 -1 258243 508
11 -9 -1 129623 360
9 -9 -1 1582032 1258
7 -9 -1 831067 912
5 -9 -1 1205488 1098
3 -9 -1 16236 127
1 -9 -1 425013 652
-1 -9 -1 17079 131
-3 -9 -1 1261986 1123
-5 -9 -1 890166 943
-7 -9 -1 1681491 1297
-9 -9 -1 137769 371
-11 -9 -1 267604 517
14 -10 -1 542305 736
12 -10 -1 292629 541
10 -10 -1 92764 305
8 -10 -1 349727 591
6 -10 -1 52777 230
4 -10 -1 924427 961
2 -10 -1 2368565 1539
0 -10 -1 2354565 1534
-2 -10 -1 947429 973
-4 -10 -1 39042 198
-6 -10 -1 373328 611
-8 -10 -1 100297 317
-10 -10 -1 294226 542
-12 -10 -1 629991 794
13 -11 -1 18281 135
11 -11 -1 966865 983
9 -11 -1 76644 277
7 -11 -1 1197976 1095
5 -11 -1 189112 435
3 -11 -1 566295 753
1 -11 -1 1158 34
-1 -11 -1 568288 754
-3 -11 -1 191217 437
-5 -11 -1 1216972 1103
-7 -11 -1 89221 299
-9 -11 -1 1031062 1015
-11 -11 -1 22099 149
12 -12 -1 177653 421
10 -12 -1 177024 421
8 -12 -1 94859 308
6 -12 -1 97406 312
4 -12 -1 1460821 1209
2 -12 -1 922744 961
0 -12 -1 903369 950
-2 -12 -1 1350821 1162
-4 -12 -1 84431 291
-6 -12 -1 99614 316
-8 -12 -1 203604 451
-10 -12 -1 199021 446
13 -13 -1 157611 397
11 -13 -1 1038747 1019
9 -13 -1 440023 663
7 -13 -1 320387 566
5 -13 -1 591446 769
3 -13 -1 538569 734
1 -13 -1 91900 303
-1 -13 -1 547839 740
-3 -13 -1 631215 794
-5 -13 -1 303224 551
-7 -13 -1 483946 696
-9 -13 -1 1078397 1038
-11 -13 -1 169073 411
12 -14 -1 104562 323
10 -14 -1 47308 218
8 -14 -1 112487 335
6 -14 -1 67784 260
4 -14 -1 524623 724
2 -14 -1 1304049 1142
0 -14 -1 1308886 1144
-2 -14 -1 519257 721
-4 -14 -1 58285 241
-6 -14 -1 127249 357
-8 -14 -1 48114 219
-10 -14 -1 118167 344
11 -15 -1 146730 383
9 -15 -1 750446 866
7 -15 -1 17562 133
5 -15 -1 755683 869
3 -15 -1 116416 341
1 -15 -1 3958 63
-1 -15 -1 120801 348
-3 -15 -1 784934 886
-5 -15 -1 16097 127
-7 -15 -1 824043 908
-9 -15 -1 181756 426
12 -16 -1 104477 323
10 -16 -1 22069 149
8 -16 -1 242304 492
6 -16 -1 13324 115
4 -16 -1 292726 541
2 -16 -1 1212790 1101
0 -16 -1 1214695 1102
-2 -16 -1 302451 550
-4 -16 -1 6986 84
-6 -16 -1 248260 498
-8 -16 -1 21125 145
-10 -16 -1 110954 333
11 -17 -1 266792 517
9 -17 -1 349621 591
7 -17 -1 213831 462
5 -17 -1 470536 686
3 -17 -1 208530 457
1 -17 -1 5488 74
-1 -17 -1 186025 431
-3 -17 -1 463143 681
-5 -17 -1 235118 485
-7 -17 -1 392184 626
-9 -17 -1 271514 521
10 -18 -1 49492 222
8 -18 -1 48254 220
6 -18 -1 14788 122
4 -18 -1 437469 661
2 -18 -1 759579 872
0 -18 -1 707673 841
-2 -18 -1 422279 650
-4 -18 -1 18942 138
-6 -18 -1 63158 251
-8 -18 -1 52520 229
9 -19 -1 2187 47
7 -19 -1 372668 610
5 -19 -1 234952 485
3 -19 -1 389047 624
1 -19 -1 1316 36
-1 -19 -1 386980 622
-3 -19 -1 225567 475
-5 -19 -1 412143 642
-7 -19 -1 3093 56
10 -20 -1 37845 195
8 -20 -1 71200 267
6 -20 -1 24535 157
4 -20 -1 330954 575
2 -20 -1 450182 671
0 -20 -1 409075 640
-2 -20 -1 311726 558
-4 -20 -1 32360 180
-6 -20 -1 74738 273
-8 -20 -1 44411 211
9 -21 -1 180492 425
7 -21 -1 251378 501
5 -21 -1 139922 374
3 -21 -1 60829 247
1 -21 -1 17329 132
-1 -21 -1 60546 246
-3 -21 -1 130390 361
-5 -21 -1 268747 518
-7 -21 -1 207853 456
8 -22 -1 47427 218
6 -22 -1 11912 109
4 -22 -1 113039 336
2 -22 -1 352827 594
0 -22 -1 366242 605
-2 -22 -1 123826 352
-4 -22 -1 11520 107
-6 -22 -1 53575 231
7 -23 -1 13311 115
5 -23 -1 232300 482
3 -23 -1 28421 169
1 -23 -1 4370 66
-1 -23 -1 39843 200
-3 -23 -1 272420 522
-5 -23 -1 18135 135
6 -24 -1 36150 190
4 -24 -1 215071 464
2 -24 -1 133704 366
0 -24 -1 140660 375
-2 -24 -1 214448 463
-4 -24 -1 40034 200
5 -25 -1 126822 356
3 -25 -1 63731 252
1 -25 -1 537 23
-1 -25 -1 58120 241
-3 -25 -1 101451 319
2 -26 -1 149996 387
0 -26 -1 118449 344
15 -1 -2 236636 486
13 -1 -2 292896 541
11 -1 -2 2135130 1461
9 -1 -2 1070584 1035
7 -1 -2 3486274 1867
5 -1 -2 1669608 1292
3 -1 -2 12667 113
1 -1 -2 7354 86
-1 -1 -2 1733949 1317
-3 -1 -2 3630849 1905
-5 -1 -2 1165984 1080
-7 -1 -2 2024486 1423
-9 -1 -2 331058 575
-11 -1 -2 245237 495
14 -2 -2 31840 178
12 -2 -2 287077 536
10 -2 -2 91648 303
8 -2 -2 1101350 1049
6 -2 -2 47772 219
4 -2 -2 3035519 1742
2 -2 -2 8501 92
0 -2 -2 3153742 1776
-2 -2 -2 52520 229
-4 -2 -2 1162955 1078
-6 -2 -2 95942 310
-8 -2 -2 351763 593
-10 -2 -2 37896 195
15 -3 -2 32172 179
13 -3 -2 121078 348
11 -3 -2 869803 933
9 -3 -2 160827 401
7 -3 -2 1048778 1024
5 -3 -2 1613365 1270
3 -3 -2 32545 180
1 -3 -2 29735 172
-1 -3 -2 1563077 1250
-3 -3 -2 1156149 1075
-5 -3 -2 134706 367
-7 -3 -2 877650 937
-9 -3 -2 126611 356
-11 -3 -2 44038 210
14 -4 -2 134001 366
12 -4 -2 583640 764
10 -4 -2 213692 462
8 -4 -2 650123 806
6 -4 -2 505357 711
4 -4 -2 5952414 2440
2 -4 -2 159875 400
0 -4 -2 5779559 2404
-2 -4 -2 562397 750
-4 -4 -2 711445 843
-6 -4 -2 192161 438
-8 -4 -2 641082 801
-10 -4 -2 159177 399
15 -5 -2 184863 430
13 -5 -2 83706 289
11 -5 -2 574227 758
9 -5 -2 391099 625
7 -5 -2 1108214 1053
5 -5 -2 312474 559
3 -5 -2 569254 754
1 -5 -2 654279 809
-1 -5 -2 305110 552
-3 -5 -2 1058584 1029
-5 -5 -2 406577 638
-7 -5 -2 685711 828
-9 -5 -2 88910 298
-11 -5 -2 193461 440
14 -6 -2 119905 346
12 -6 -2 224001 473
10 -6 -2 365122 604
8 -6 -2 1327551 1152
6 -6 -2 383482 619
4 -6 -2 3019157 1738
2 -6 -2 748851 865
0 -6 -2 3060185 1749
-2 -6 -2 418794 647
-4 -6 -2 1364464 1168
-6 -6 -2 338955 582
-8 -6 -2 210988 459
-10 -6 -2 120666 347
15 -7 -2 373198 611
13 -7 -2 344727 587
11 -7 -2 1945053 1395
9 -7 -2 1223362 1106
7 -7 -2 2241276 1497
5 -7 -2 1406049 1186
3 -7 -2 1027050 1013
1 -7 -2 1042791 1021
-1 -7 -2 1457501 1207
-3 -7 -2 2186697 1479
-5 -7 -2 1179906 1086
-7 -7 -2 2178372 1476
-9 -7 -2 363180 603
-11 -7 -2 416430 645
14 -8 -2 5252 72
12 -8 -2 339921 583
10 -8 -2 33707 184
8 -8 -2 550187 742
6 -8 -2 128181 358
4 -8 -2 272004 522
2 -8 -2 288377 537
0 -8 -2 272565 522
-2 -8 -2 137561 371
-4 -8 -2 523482 724
-6 -8 -2 31594 178
-8 -8 -2 341100 584
-10 -8 -2 9422 97
15 -9 -2 137928 371
13 -9 -2 135370 368
11 -9 -2 1305870 1143
9 -9 -2 762298 873
7 -9 -2 1644588 1282
5 -9 -2 1554219 1247
3 -9 -2 18732 137
1 -9 -2 23391 153
-1 -9 -2 1695986 1302
-3 -9 -2 1618199 1272
-5 -9 -2 701900 838
-7 -9 -2 1383144 1176
-9 -9 -2 163629 405
-11 -9 -2 130968 362
14 -10 -2 157203 396
12 -10 -2 610814 782
10 -10 -2 51220 226
8 -10 -2 323007 568
6 -10 -2 305666 553
4 -10 -2 3573365 1890
2 -10 -2 131513 363
0 -10 -2 3832246 1958
-2 -10 -2 305612 553
-4 -10 -2 347692 590
-6 -10 -2 65235 255
-8 -10 -2 687728 829
-10 -10 -2 170158 413
13 -11 -2 51240 226
11 -11 -2 53330 231
9 -11 -2 75538 275
7 -11 -2 211553 460
5 -11 -2 194941 442
3 -11 -2 569809 755
1 -11 -2 587745 767
-1 -11 -2 210849 459
-3 -11 -2 179813 424
-5 -11 -2 78180 280
-7 -11 -2 62821 251
-9 -11 -2 56534 238
14 -12 -2 78901 281
12 -12 -2 319212 565
10 -12 -2 49298 222
8 -12 -2 481951 694
6 -12 -2 13061 114
4 -12 -2 2836237 1684
2 -12 -2 28388 168
0 -12 -2 2963489 1721
-2 -12 -2 15114 123
-4 -12 -2 506478 712
-6 -12 -2 63727 252
-8 -12 -2 371321 609
-10 -12 -2 92568 304
13 -13 -2 149971 387
11 -13 -2 319866 566
9 -13 -2 297700 546
7 -13 -2 269192 519
5 -13 -2 135021 367
3 -13 -2 609623 781
1 -13 -2 615653 785
-1 -13 -2 125609 354
-3 -13 -2 281556 531
-5 -13 -2 401933 634
-7 -13 -2 344894 587
-9 -13 -2 168922 411
12 -14 -2 361171 601
10 -14 -2 7627 87
8 -14 -2 205642 453
6 -14 -2 24422 156
4 -14 -2 566109 752
2 -14 -2 15907 126
0 -14 -2 631030 794
-2 -14 -2 23703 154
-4 -14 -2 228196 478
-6 -14 -2 2015 45
-8 -14 -2 359044 599
13 -15 -2 148846 386
11 -15 -2 958186 979
9 -15 -2 721850 850
7 -15 -2 1038302 1019
5 -15 -2 327478 572
3 -15 -2 105496 325
1 -15 -2 101603 319
-1 -15 -2 331563 576
-3 -15 -2 1182101 1087
-5 -15 -2 725765 852
-7 -15 -2 1012908 1006
-9 -15 -2 146444 383
12 -16 -2 391829 626
10 -16 -2 19543 140
8 -16 -2 96070 310
6 -16 -2 138246 372
4 -16 -2 495146 704
2 -16 -2 90662 301
0 -16 -2 466830 683
-2 -16 -2 152082 390
-4 -16 -2 85812 293
-6 -16 -2 15462 124
-8 -16 -2 391201 625
11 -17 -2 574854 758
9 -17 -2 386667 622
7 -17 -2 574492 758
5 -17 -2 200144 447
3 -17 -2 212090 461
1 -17 -2 186009 431
-1 -17 -2 212859 461
-3 -17 -2 614516 784
-5 -17 -2 402540 634
-7 -17 -2 571784 756
12 -18 -2 187072 433
10 -18 -2 61 8
8 -18 -2 168716 411
6 -18 -2 41129 203
4 -18 -2 1198299 1095
2 -18 -2 1383 37
0 -18 -2 1239450 1113
-2 -18 -2 48030 219
-4 -18 -2 166119 408
-6 -18 -2 6 2
-8 -18 -2 182138 427
11 -19 -2 7568 87
9 -19 -2 67213 259
7 -19 -2 15016 123
5 -19 -2 40400 201
3 -19 -2 373941 612
1 -19 -2 382889 619
-1 -19 -2 31252 177
-3 -19 -2 11893 109
-5 -19 -2 78900 281
-7 -19 -2 7541 87
10 -20 -2 9372 97
8 -20 -2 113176 336
6 -20 -2 37356 193
4 -20 -2 987237 994
2 -20 -2 13253 115
0 -20 -2 987119 994
-2 -20 -2 34303 185
-4 -20 -2 115016 339
-6 -20 -2 8147 90
9 -21 -2 129692 360
7 -21 -2 179233 423
5 -21 -2 94048 307
3 -21 -2 77053 278
1 -21 -2 74746 273
-1 -21 -2 107948 329
-3 -21 -2 175930 419
-5 -21 -2 148113 385
8 -22 -2 55240 235
6 -22 -2 22353 150
4 -22 -2 187737 433
2 -22 -2 6516 81
0 -22 -2 203877 452
-2 -22 -2 15360 124
-4 -22 -2 73571 271
7 -23 -2 305556 553
5 -23 -2 125630 354
3 -23 -2 37938 195
1 -23 -2 32392 180
-1 -23 -2 145488 381
-3 -23 -2 334274 578
6 -24 -2 6387 80
4 -24 -2 103278 321
2 -24 -2 319 18
0 -24 -2 110179 332
-2 -24 -2 6042 78
5 -25 -2 63385 252
3 -25 -2 38963 197
1 -25 -2 46165 215
-1 -25 -2 44986 212
4 -26 -2 422538 650
2 -26 -2 21492 147
0 -26 -2 423297 651
15 -1 -3 578285 760
13 -1 -3 285438 534
11 -1 -3 1417912 1191
9 -1 -3 412802 642
7 -1 -3 1623195 1274
5 -1 -3 1605664 1267
3 -1 -3 1649314 1284
1 -1 -3 1686511 1299
-1 -1 -3 1599663 1265
-3 -1 -3 441363 664
-5 -1 -3 1530470 1237
-7 -1 -3 309957 557
-9 -1 -3 617334 786
16 -2 -3 226744 476
14 -2 -3 873835 935
12 -2 -3 262170 512
10 -2 -3 160819 401
8 -2 -3 1067630 1033
6 -2 -3 22107 149
4 -2 -3 2434408 1560
2 -2 -3 2475174 1573
0 -2 -3 11861 109
-2 -2 -3 1141609 1068
-4 -2 -3 151133 389
-6 -2 -3 239208 489
-8 -2 -3 992952 996
-10 -2 -3 251450 501
15 -3 -3 984890 992
13 -3 -3 1450137 1204
11 -3 -3 246870 497
9 -3 -3 437019 661
7 -3 -3 223255 472
5 -3 -3 1566811 1252
3 -3 -3 2692032 1641
1 -3 -3 1589171 1261
-1 -3 -3 231077 481
-3 -3 -3 427108 654
-5 -3 -3 279816 529
-7 -3 -3 1620982 1273
-9 -3 -3 1061965 1031
16 -4 -3 78363 280
14 -4 -3 685474 828
12 -4 -3 342922 586
10 -4 -3 134615 367
8 -4 -3 1582719 1258
6 -4 -3 1199575 1095
4 -4 -3 1992581 1412
2 -4 -3 1887304 1374
0 -4 -3 1120908 1059
-2 -4 -3 1692698 1301
-4 -4 -3 140614 375
-6 -4 -3 344109 587
-8 -4 -3 786372 887
-10 -4 -3 101933 319
15 -5 -3 505551 711
13 -5 -3 581143 762
11 -5 -3 323888 569
9 -5 -3 992619 996
7 -5 -3 552063 743
5 -5 -3 256428 506
3 -5 -3 692203 832
1 -5 -3 268405 518
-1 -5 -3 611827 782
-3 -5 -3 1046233 1023
-5 -5 -3 371684 610
-7 -5 -3 646933 804
-9 -5 -3 563014 750
16 -6 -3 419372 648
14 -6 -3 823928 908
12 -6 -3 288682 537
10 -6 -3 44247 210
8 -6 -3 738526 859
6 -6 -3 205171 453
4 -6 -3 2931182 1712
2 -6 -3 2695090 1642
0 -6 -3 248447 498
-2 -6 -3 748414 865
-4 -6 -3 44762 212
-6 -6 -3 300955 549
-8 -6 -3 886820 942
-10 -6 -3 493214 702
15 -7 -3 330476 575
13 -7 -3 25194 159
11 -7 -3 1182798 1088
9 -7 -3 427185 654
7 -7 -3 1472632 1214
5 -7 -3 1284955 1134
3 -7 -3 4141 64
1 -7 -3 1333720 1155
-1 -7 -3 1512489 1230
-3 -7 -3 520188 721
-5 -7 -3 1203234 1097
-7 -7 -3 27797 167
-9 -7 -3 400556 633
16 -8 -3 197830 445
14 -8 -3 417289 646
12 -8 -3 20724 144
10 -8 -3 339946 583
8 -8 -3 829227 911
6 -8 -3 79588 282
4 -8 -3 1539877 1241
2 -8 -3 1484486 1218
0 -8 -3 95881 310
-2 -8 -3 858925 927
-4 -8 -3 405246 637
-6 -8 -3 30107 174
-8 -8 -3 446471 668
-10 -8 -3 223249 472
15 -9 -3 525055 725
13 -9 -3 279645 529
11 -9 -3 790369 889
9 -9 -3 249621 500
7 -9 -3 894122 946
5 -9 -3 1597673 1264
3 -9 -3 1299074 1140
1 -9 -3 1582933 1258
-1 -9 -3 896221 947
-3 -9 -3 278985 528
-5 -9 -3 846473 920
-7 -9 -3 304957 552
-9 -9 -3 520212 721
14 -10 -3 279942 529
12 -10 -3 132622 364
10 -10 -3 566346 753
8 -10 -3 1410513 1188
6 -10 -3 512888 716
4 -10 -3 855623 925
2 -10 -3 935294 967
0 -10 -3 528480 727
-2 -10 -3 1415581 1190
-4 -10 -3 633966 796
-6 -10 -3 125504 354
-8 -10 -3 266779 517
15 -11 -3 241131 491
13 -11 -3 169367 412
11 -11 -3 84516 291
9 -11 -3 730577 855
7 -11 -3 578138 760
5 -11 -3 194630 441
3 -11 -3 929169 964
1 -11 -3 194870 441
-1 -11 -3 524827 724
-3 -11 -3 730174 855
-5 -11 -3 100001 316
-7 -11 -3 186534 432
-9 -11 -3 241010 491
14 -12 -3 437903 662
12 -12 -3 173034 416
10 -12 -3 58744 242
8 -12 -3 645260 803
6 -12 -3 271840 521
4 -12 -3 1425110 1194
2 -12 -3 1395800 1181
0 -12 -3 227366 477
-2 -12 -3 704637 839
-4 -12 -3 61938 249
-6 -12 -3 172166 415
-8 -12 -3 510299 714
13 -13 -3 32771 181
11 -13 -3 596998 773
9 -13 -3 1302520 1141
7 -13 -3 700421 837
5 -13 -3 107995 329
3 -13 -3 39932 200
1 -13 -3 117236 342
-1 -13 -3 722967 850
-3 -13 -3 1405173 1185
-5 -13 -3 664546 815
-7 -13 -3 40109 200
14 -14 -3 207944 456
12 -14 -3 32332 180
10 -14 -3 237921 488
8 -14 -3 867967 932
6 -14 -3 171317 414
4 -14 -3 511856 715
2 -14 -3 515529 718
0 -14 -3 227609 477
-2 -14 -3 928375 964
-4 -14 -3 244587 495
-6 -14 -3 42971 207
-8 -14 -3 188968 435
13 -15 -3 2046 45
11 -15 -3 740091 860
9 -15 -3 112014 335
7 -15 -3 466909 683
5 -15 -3 289120 538
3 -15 -3 21067 145
1 -15 -3 321121 567
-1 -15 -3 485496 697
-3 -15 -3 127535 357
-5 -15 -3 772202 879
-7 -15 -3 2899 54
12 -16 -3 11060 105
10 -16 -3 427865 654
8 -16 -3 837688 915
6 -16 -3 123596 352
4 -16 -3 286348 535
2 -16 -3 282458 531
0 -16 -3 143748 379
-2 -16 -3 890980 944
-4 -16 -3 435997 660
-6 -16 -3 17490 132
13 -17 -3 23671 154
11 -17 -3 381439 618
9 -17 -3 439893 663
7 -17 -3 376970 614
5 -17 -3 163242 404
3 -17 -3 79099 281
1 -17 -3 203092 451
-1 -17 -3 367904 607
-3 -17 -3 451040 672
-5 -17 -3 374572 612
-7 -17 -3 25457 160
12 -18 -3 44605 211
10 -18 -3 93969 307
8 -18 -3 352923 594
6 -18 -3 98565 314
4 -18 -3 419539 648
2 -18 -3 416195 645
0 -18 -3 122959 351
-2 -18 -3 368481 607
-4 -18 -3 91194 302
-6 -18 -3 45432 213
11 -19 -3 93210 305
9 -19 -3 642670 802
7 -19 -3 226846 476
5 -19 -3 32236 180
3 -19 -3 224867 474
1 -19 -3 34852 187
-1 -19 -3 212863 461
-3 -19 -3 607968 780
-5 -19 -3 83642 289
10 -20 -3 71117 267
8 -20 -3 338674 582
6 -20 -3 116336 341
4 -20 -3 297750 546
2 -20 -3 307085 554
0 -20 -3 106975 327
-2 -20 -3 365694 605
-4 -20 -3 71397 267
11 -21 -3 156366 395
9 -21 -3 226103 476
7 -21 -3 116485 341
5 -21 -3 111508 334
3 -21 -3 105467 325
1 -21 -3 99308 315
-1 -21 -3 116124 341
-3 -21 -3 218135 467
-5 -21 -3 179911 424
10 -22 -3 128468 358
8 -22 -3 311393 558
6 -22 -3 41624 204
4 -22 -3 116442 341
2 -22 -3 117106 342
0 -22 -3 44767 212
-2 -22 -3 337391 581
-4 -22 -3 143771 379
9 -23 -3 31343 177
7 -23 -3 156502 396
5 -23 -3 112400 335
3 -23 -3 6212 79
1 -23 -3 114256 338
-1 -23 -3 152243 390
-3 -23 -3 35337 188
8 -24 -3 149796 387
6 -24 -3 27419 166
4 -24 -3 205104 453
2 -24 -3 201683 449
0 -24 -3 20678 144
-2 -24 -3 172052 415
5 -25 -3 49705 223
3 -25 -3 19092 138
1 -25 -3 47511 218
17 -1 -4 129358 360
15 -1 -4 347383 589
13 -1 -4 4247 65
11 -1 -4 483385 695
9 -1 -4 932742 966
7 -1 -4 1496489 1223
5 -1 -4 1840569 1357
3 -1 -4 2059468 1435
1 -1 -4 1544763 1243
-1 -1 -4 954359 977
-3 -1 -4 494740 703
-5 -1 -4 2668 52
-7 -1 -4 388915 624
-9 -1 -4 181899 426
16 -2 -4 339276 582
14 -2 -4 95145 308
12 -2 -4 1262859 1124
10 -2 -4 203896 452
8 -2 -4 2697682 1642
6 -2 -4 48288 220
4 -2 -4 1209026 1100
2 -2 -4 65377 256
0 -2 -4 2739524 1655
-2 -2 -4 222307 471
-4 -2 -4 1309702 1144
-6 -2 -4 104785 324
-8 -2 -4 421114 649
17 -3 -4 191603 438
15 -3 -4 174728 418
13 -3 -4 30275 174
11 -3 -4 2204092 1485
9 -3 -4 2035884 1427
7 -3 -4 210749 459
5 -3 -4 641350 801
3 -3 -4 670747 819
1 -3 -4 207883 456
-1 -3 -4 2231381 1494
-3 -3 -4 2408944 1552
-5 -3 -4 30982 176
-7 -3 -4 198002 445
-9 -3 -4 250949 501
16 -4 -4 390073 625
14 -4 -4 159970 400
12 -4 -4 1882237 1372
10 -4 -4 204926 453
8 -4 -4 2450498 1565
6 -4 -4 525174 725
4 -4 -4 13633 117
2 -4 -4 558060 747
0 -4 -4 2692930 1641
-2 -4 -4 207660 456
-4 -4 -4 2066539 1438
-6 -4 -4 169351 412
-8 -4 -4 491795 701
17 -5 -4 46974 217
15 -5 -4 397532 631
13 -5 -4 247900 498
11 -5 -4 1154446 1074
9 -5 -4 687111 829
7 -5 -4 571132 756
5 -5 -4 191184 437
3 -5 -4 246388 496
1 -5 -4 610600 781
-1 -5 -4 796035 892
-3 -5 -4 1296274 1139
-5 -5 -4 265921 516
-7 -5 -4 447239 669
-9 -5 -4 64348 254
16 -6 -4 184455 429
14 -6 -4 166768 408
12 -6 -4 821913 907
10 -6 -4 467740 684
8 -6 -4 2936080 1713
6 -6 -4 342765 585
4 -6 -4 677395 823
2 -6 -4 399989 632
0 -6 -4 3132372 1770
-2 -6 -4 479652 693
-4 -6 -4 997716 999
-6 -6 -4 202623 450
-8 -6 -4 216103 465
17 -7 -4 162770 403
15 -7 -4 606853 779
13 -7 -4 375750 613
11 -7 -4 44212 210
9 -7 -4 413679 643
7 -7 -4 1510310 1229
5 -7 -4 1979245 1407
3 -7 -4 1959134 1400
1 -7 -4 1484889 1219
-1 -7 -4 499828 707
-3 -7 -4 48593 220
-5 -7 -4 428300 654
-7 -7 -4 654592 809
-9 -7 -4 171534 414
16 -8 -4 434665 659
14 -8 -4 9480 97
12 -8 -4 52410 229
10 -8 -4 85328 292
8 -8 -4 799777 894
6 -8 -4 126087 355
4 -8 -4 3200528 1789
2 -8 -4 155970 395
0 -8 -4 885658 941
-2 -8 -4 87899 296
-4 -8 -4 57224 239
-6 -8 -4 12089 110
-8 -8 -4 468779 685
15 -9 -4 291443 540
13 -9 -4 3513 59
11 -9 -4 678455 824
9 -9 -4 823051 907
7 -9 -4 785047 886
5 -9 -4 1118338 1058
3 -9 -4 1143392 1069
1 -9 -4 858434 927
-1 -9 -4 945310 972
-3 -9 -4 673721 821
-5 -9 -4 5894 77
-7 -9 -4 301282 549
16 -10 -4 548144 740
14 -10 -4 80436 284
12 -10 -4 1012969 1006
10 -10 -4 58796 242
8 -10 -4 586436 766
6 -10 -4 275460 525
4 -10 -4 2158525 1469
2 -10 -4 289668 538
0 -10 -4 599729 774
-2 -10 -4 83704 289
-4 -10 -4 1065505 1032
-6 -10 -4 84157 290
-8 -10 -4 613942 784
15 -11 -4 534556 731
13 -11 -4 382162 618
11 -11 -4 611951 782
9 -11 -4 341665 585
7 -11 -4 569007 754
5 -11 -4 159434 399
3 -11 -4 167633 409
1 -11 -4 531159 729
-1 -11 -4 351395 593
-3 -11 -4 610113 781
-5 -11 -4 442314 665
-7 -11 -4 589051 767
14 -12 -4 38595 196
12 -12 -4 1211204 1101
10 -12 -4 102510 320
8 -12 -4 1034515 1017
6 -12 -4 5310 73
4 -12 -4 1215 35
2 -12 -4 12249 111
0 -12 -4 1084691 1041
-2 -12 -4 92274 304
-4 -12 -4 1315647 1147
-6 -12 -4 29708 172
-8 -12 -4 278090 527
15 -13 -4 673703 821
13 -13 -4 399322 632
11 -13 -4 211806 460
9 -13 -4 175858 419
7 -13 -4 674909 822
5 -13 -4 518682 720
3 -13 -4 579851 761
1 -13 -4 671048 819
-1 -13 -4 161525 402
-3 -13 -4 229311 479
-5 -13 -4 432037 657
-7 -13 -4 763325 874
14 -14 -4 10807 104
12 -14 -4 334628 578
10 -14 -4 13145 115
8 -14 -4 535620 732
6 -14 -4 20861 144
4 -14 -4 1104837 1051
2 -14 -4 15216 123
0 -14 -4 539962 735
-2 -14 -4 16341 128
-4 -14 -4 383209 619
-6 -14 -4 7934 89
13 -15 -4 47414 218
11 -15 -4 14986 122
9 -15 -4 204304 452
7 -15 -4 429367 655
5 -15 -4 713732 845
3 -15 -4 698212 836
1 -15 -4 431759 657
-1 -15 -4 201898 449
-3 -15 -4 26941 164
-5 -15 -4 45116 212
-7 -15 -4 273627 523
14 -16 -4 29287 171
12 -16 -4 32211 179
10 -16 -4 8384 92
8 -16 -4 189720 436
6 -16 -4 136408 369
4 -16 -4 1883299 1372
2 -16 -4 151375 389
0 -16 -4 214325 463
-2 -16 -4 7121 84
-4 -16 -4 34428 186
-6 -16 -4 30828 176
13 -17 -4 107542 328
11 -17 -4 111393 334
9 -17 -4 132540 364
7 -17 -4 338832 582
5 -17 -4 444810 667
3 -17 -4 445259 667
1 -17 -4 334362 578
-1 -17 -4 123402 351
-3 -17 -4 121137 348
-5 -17 -4 129843 360
12 -18 -4 444132 666
10 -18 -4 23791 154
8 -18 -4 373679 611
6 -18 -4 40197 200
4 -18 -4 312445 559
2 -18 -4 49706 223
0 -18 -4 391719 626
-2 -18 -4 23883 155
-4 -18 -4 471226 686
13 -19 -4 196406 443
11 -19 -4 169150 411
9 -19 -4 78422 280
7 -19 -4 205689 454
5 -19 -4 222979 472
3 -19 -4 212983 462
1 -19 -4 212584 461
-1 -19 -4 70160 265
-3 -19 -4 148829 386
-5 -19 -4 225585 475
12 -20 -4 432233 657
10 -20 -4 20290 142
8 -20 -4 311690 558
6 -20 -4 36295 191
4 -20 -4 134167 366
2 -20 -4 34640 186
0 -20 -4 333066 577
-2 -20 -4 18297 135
-4 -20 -4 491313 701
11 -21 -4 152440 390
9 -21 -4 93430 306
7 -21 -4 128318 358
5 -21 -4 127952 358
3 -21 -4 121348 348
1 -21 -4 114560 338
-1 -21 -4 98864 314
-3 -21 -4 170851 413
10 -22 -4 1391 37
8 -22 -4 174425 418
6 -22 -4 18473 136
4 -22 -4 538100 734
2 -22 -4 14738 121
0 -22 -4 180941 425
-2 -22 -4 3285 57
9 -23 -4 53933 232
7 -23 -4 130466 361
5 -23 -4 228587 478
3 -23 -4 241956 492
1 -23 -4 153103 391
-1 -23 -4 59763 244
8 -24 -4 180841 425
6 -24 -4 4637 68
4 -24 -4 319966 566
2 -24 -4 3765 61
0 -24 -4 196439 443
5 -25 -4 106302 326
3 -25 -4 99965 316
17 -1 -5 14399 120
15 -1 -5 505923 711
13 -1 -5 497694 705
11 -1 -5 125160 354
9 -1 -5 892800 945
7 -1 -5 3157673 1777
5 -1 -5 2815 53
3 -1 -5 3110704 1764
1 -1 -5 980293 990
-1 -1 -5 148003 385
-3 -1 -5 577594 760
-5 -1 -5 609486 781
-7 -1 -5 19569 140
18 -2 -5 363738 603
16 -2 -5 24473 156
14 -2 -5 586902 766
12 -2 -5 777960 882
10 -2 -5 261215 511
8 -2 -5 956950 978
6 -2 -5 1051002 1025
4 -2 -5 1156545 1075
2 -2 -5 1081293 1040
0 -2 -5 255902 506
-2 -2 -5 922291 960
-4 -2 -5 629352 793
-6 -2 -5 34418 186
-8 -2 -5 433733 659
17 -3 -5 4401 66
15 -3 -5 1057232 1028
13 -3 -5 248195 498
11 -3 -5 36169 190
9 -3 -5 1951135 1397
7 -3 -5 946422 973
5 -3 -5 495494 704
3 -3 -5 939316 969
1 -3 -5 2141670 1463
-1 -3 -5 55501 236
-3 -3 -5 281694 531
-5 -3 -5 1214855 1102
-7 -3 -5 3792 62
18 -4 -5 321501 567
16 -4 -5 126088 355
14 -4 -5 1101308 1049
12 -4 -5 967045 983
10 -4 -5 547596 740
8 -4 -5 1504547 1227
6 -4 -5 305526 553
4 -4 -5 283305 532
2 -4 -5 1531976 1238
0 -4 -5 615173 784
-2 -4 -5 1076983 1038
-4 -4 -5 1233328 1111
-6 -4 -5 135427 368
-8 -4 -5 398469 631
17 -5 -5 103512 322
15 -5 -5 586178 766
13 -5 -5 15396 124
11 -5 -5 309977 557
9 -5 -5 657544 811
7 -5 -5 909577 954
5 -5 -5 1461789 1209
3 -5 -5 1021215 1011
1 -5 -5 701556 838
-1 -5 -5 385629 621
-3 -5 -5 14414 120
-5 -5 -5 683668 827
-7 -5 -5 121508 349
16 -6 -5 39694 199
14 -6 -5 529586 728
12 -6 -5 1587800 1260
10 -6 -5 463365 681
8 -6 -5 682718 826
6 -6 -5 1189124 1090
4 -6 -5 1087193 1043
2 -6 -5 647441 805
0 -6 -5 470722 686
-2 -6 -5 1887288 1374
-4 -6 -5 602076 776
-6 -6 -5 34856 187
17 -7 -5 135382 368
15 -7 -5 288984 538
13 -7 -5 305504 553
11 -7 -5 321247 567
9 -7 -5 386667 622
7 -7 -5 1974672 1405
5 -7 -5 636224 798
3 -7 -5 2074815 1440
1 -7 -5 440905 664
-1 -7 -5 382521 618
-3 -7 -5 355834 597
-5 -7 -5 328799 573
-7 -7 -5 152128 390
16 -8 -5 109663 331
14 -8 -5 360475 600
12 -8 -5 536850 733
10 -8 -5 49098 222
8 -8 -5 773740 880
6 -8 -5 222475 472
4 -8 -5 219101 468
2 -8 -5 743926 863
0 -8 -5 65355 256
-2 -8 -5 620784 788
-4 -8 -5 404903 636
-6 -8 -5 133412 365
17 -9 -5 16106 127
15 -9 -5 541635 736
13 -9 -5 284741 534
11 -9 -5 78599 280
9 -9 -5 866221 931
7 -9 -5 1426437 1194
5 -9 -5 63982 253
3 -9 -5 1551048 1245
1 -9 -5 873782 935
-1 -9 -5 69606 264
-3 -9 -5 341055 584
-5 -9 -5 612564 783
-7 -9 -5 21274 146
16 -10 -5 211534 460
14 -10 -5 951909 976
12 -10 -5 359153 599
10 -10 -5 446486 668
8 -10 -5 1332939 1155
6 -10 -5 39568 199
4 -10 -5 31974 179
2 -10 -5 1377427 1174
0 -10 -5 481372 694
-2 -10 -5 342443 585
-4 -10 -5 996815 998
-6 -10 -5 246594 497
15 -11 -5 253859 504
13 -11 -5 29970 173
11 -11 -5 496279 704
9 -11 -5 294940 543
7 -11 -5 156411 395
5 -11 -5 1382155 1176
3 -11 -5 161286 402
1 -11 -5 350216 592
-1 -11 -5 489219 699
-3 -11 -5 28627 169
-5 -11 -5 291698 540
16 -12 -5 28319 168
14 -12 -5 522862 723
12 -12 -5 493243 702
10 -12 -5 406576 638
8 -12 -5 634516 797
6 -12 -5 88268 297
4 -12 -5 74336 273
2 -12 -5 677807 823
0 -12 -5 423253 651
-2 -12 -5 547810 740
-4 -12 -5 590198 768
-6 -12 -5 44867 212
15 -13 -5 94583 308
13 -13 -5 125755 355
11 -13 -5 700146 837
9 -13 -5 167299 409
7 -13 -5 230873 480
5 -13 -5 1188357 1090
3 -13 -5 247197 497
1 -13 -5 188320 434
-1 -13 -5 728815 854
-3 -13 -5 159724 400
-5 -13 -5 133068 365
14 -14 -5 267647 517
12 -14 -5 344951 587
10 -14 -5 53236 231
8 -14 -5 825011 908
6 -14 -5 50762 225
4 -14 -5 48360 220
2 -14 -5 860637 928
0 -14 -5 68848 262
-2 -14 -5 336194 580
-4 -14 -5 316199 562
15 -15 -5 147157 384
13 -15 -5 137313 371
11 -15 -5 79075 281
9 -15 -5 180067 424
7 -15 -5 955616 978
5 -15 -5 133139 365
3 -15 -5 998908 999
1 -15 -5 217991 467
-1 -15 -5 91128 302
-3 -15 -5 158070 398
-5 -15 -5 163754 405
14 -16 -5 346149 588
12 -16 -5 106652 327
10 -16 -5 55721 236
8 -16 -5 777654 882
6 -16 -5 16548 129
4 -16 -5 8475 92
2 -16 -5 763096 874
0 -16 -5 52143 228
-2 -16 -5 126377 355
-4 -16 -5 413147 643
13 -17 -5 80143 283
11 -17 -5 179704 424
9 -17 -5 105205 324
7 -17 -5 500184 707
5 -17 -5 378048 615
3 -17 -5 544536 738
1 -17 -5 127803 357
-1 -17 -5 207057 455
-3 -17 -5 81183 285
14 -18 -5 323334 569
12 -18 -5 179241 423
10 -18 -5 127063 356
8 -18 -5 338001 581
6 -18 -5 17482 132
4 -18 -5 16253 127
2 -18 -5 341444 584
0 -18 -5 164864 406
-2 -18 -5 184754 430
-4 -18 -5 316643 563
13 -19 -5 31305 177
11 -19 -5 229964 480
9 -19 -5 65863 257
7 -19 -5 13593 117
5 -19 -5 630486 794
3 -19 -5 6632 81
1 -19 -5 71034 267
-1 -19 -5 245661 496
-3 -19 -5 35907 189
12 -20 -5 134688 367
10 -20 -5 94929 308
8 -20 -5 320495 566
6 -20 -5 30674 175
4 -20 -5 22285 149
2 -20 -5 338898 582
0 -20 -5 104331 323
-2 -20 -5 164326 405
11 -21 -5 74380 273
9 -21 -5 94379 307
7 -21 -5 169002 411
5 -21 -5 230893 481
3 -21 -5 172664 416
1 -21 -5 88269 297
-1 -21 -5 81863 286
10 -22 -5 14082 119
8 -22 -5 305044 552
6 -22 -5 4528 67
4 -22 -5 9057 95
2 -22 -5 318996 565
0 -22 -5 21403 146
9 -23 -5 50307 224
7 -23 -5 265504 515
5 -23 -5 221 15
3 -23 -5 299512 547
1 -23 -5 61040 247
8 -24 -5 128660 359
6 -24 -5 37255 193
4 -24 -5 47458 218
2 -24 -5 160035 400
17 -1 -6 121902 349
15 -1 -6 161879 402
13 -1 -6 324770 570
11 -1 -6 117805 343
9 -1 -6 422915 650
7 -1 -6 932003 965
5 -1 -6 903199 950
3 -1 -6 391582 626
1 -1 -6 116790 342
-1 -1 -6 331402 576
-3 -1 -6 198328 445
-5 -1 -6 155215 394
18 -2 -6 72236 269
16 -2 -6 924072 961
14 -2 -6 64657 254
12 -2 -6 862250 929
10 -2 -6 200266 448
8 -2 -6 924132 961
6 -2 -6 11294 106
4 -2 -6 1011623 1006
2 -2 -6 173152 416
0 -2 -6 973097 986
-2 -2 -6 80951 285
-4 -2 -6 1079436 1039
-6 -2 -6 91028 302
17 -3 -6 405814 637
15 -3 -6 38939 197
13 -3 -6 402811 635
11 -3 -6 37542 194
9 -3 -6 421278 649
7 -3 -6 5234497 2288
5 -3 -6 5286466 2299
3 -3 -6 406554 638
1 -3 -6 39988 200
-1 -3 -6 479315 692
-3 -3 -6 36479 191
-5 -3 -6 476615 690
18 -4 -6 51856 228
16 -4 -6 119057 345
14 -4 -6 164119 405
12 -4 -6 257488 507
10 -4 -6 175029 418
8 -4 -6 619960 787
6 -4 -6 143874 379
4 -4 -6 657223 811
2 -4 -6 198443 445
0 -4 -6 274999 524
-2 -4 -6 197813 445
-4 -4 -6 166312 408
-6 -4 -6 68334 261
17 -5 -6 76734 277
15 -5 -6 217228 466
13 -5 -6 86784 295
11 -5 -6 317339 563
9 -5 -6 883228 940
7 -5 -6 1980550 1407
5 -5 -6 2089231 1445
3 -5 -6 971361 986
1 -5 -6 372329 610
-1 -5 -6 105528 325
-3 -5 -6 261676 512
-5 -5 -6 81106 285
18 -6 -6 155264 394
16 -6 -6 1425005 1194
14 -6 -6 38048 195
12 -6 -6 1039181 1019
10 -6 -6 378056 615
8 -6 -6 1141224 1068
6 -6 -6 75369 275
4 -6 -6 1186663 1089
2 -6 -6 417933 646
0 -6 -6 1211303 1101
-2 -6 -6 37682 194
-4 -6 -6 1829568 1353
-6 -6 -6 187660 433
17 -7 -6 36158 190
15 -7 -6 398978 632
13 -7 -6 204904 453
11 -7 -6 308301 555
9 -7 -6 385491 621
7 -7 -6 26731 163
5 -7 -6 16472 128
3 -7 -6 436417 661
1 -7 -6 372766 611
-1 -7 -6 270193 520
-3 -7 -6 469872 685
-5 -7 -6 42821 207
18 -8 -6 21782 148
16 -8 -6 1096490 1047
14 -8 -6 59500 244
12 -8 -6 2440604 1562
10 -8 -6 73620 271
8 -8 -6 468996 685
6 -8 -6 11718 108
4 -8 -6 418639 647
2 -8 -6 72321 269
0 -8 -6 2598942 1612
-2 -8 -6 69011 263
-4 -8 -6 1314863 1147
-6 -8 -6 29453 172
17 -9 -6 137686 371
15 -9 -6 113986 338
13 -9 -6 239071 489
11 -9 -6 64139 253
9 -9 -6 215035 464
7 -9 -6 705977 840
5 -9 -6 724226 851
3 -9 -6 230033 480
1 -9 -6 77774 279
-1 -9 -6 275738 525
-3 -9 -6 153282 392
-5 -9 -6 182267 427
16 -10 -6 150272 388
14 -10 -6 160919 401
12 -10 -6 1200682 1096
10 -10 -6 59860 245
8 -10 -6 262024 512
6 -10 -6 297283 545
4 -10 -6 267788 517
2 -10 -6 75045 274
0 -10 -6 1330271 1153
-2 -10 -6 213712 462
-4 -10 -6 183365 428
17 -11 -6 70477 265
15 -11 -6 119764 346
13 -11 -6 19641 140
11 -11 -6 458355 677
9 -11 -6 643442 802
7 -11 -6 1096121 1047
5 -11 -6 1069217 1034
3 -11 -6 596221 772
1 -11 -6 484797 696
-1 -11 -6 17728 133
-3 -11 -6 128754 359
-5 -11 -6 91249 302
16 -12 -6 169038 411
14 -12 -6 44245 210
12 -12 -6 30960 176
10 -12 -6 94823 308
8 -12 -6 417522 646
6 -12 -6 98827 314
4 -12 -6 434810 659
2 -12 -6 90809 301
0 -12 -6 50005 224
-2 -12 -6 80302 283
-4 -12 -6 185293 430
15 -13 -6 288237 537
13 -13 -6 38965 197
11 -13 -6 641763 801
9 -13 -6 1175203 1084
7 -13 -6 292821 541
5 -13 -6 275485 525
3 -13 -6 1221950 1105
1 -13 -6 685931 828
-1 -13 -6 36986 192
-3 -13 -6 351988 593
16 -14 -6 437251 661
14 -14 -6 126243 355
12 -14 -6 1332244 1154
10 -14 -6 5371 73
8 -14 -6 196386 443
6 -14 -6 130081 361
4 -14 -6 172050 415
2 -14 -6 11830 109
0 -14 -6 1583748 1258
-2 -14 -6 155226 394
-4 -14 -6 558486 747
15 -15 -6 132147 364
13 -15 -6 45288 213
11 -15 -6 87370 296
9 -15 -6 95587 309
7 -15 -6 17595 133
5 -15 -6 13813 118
3 -15 -6 110612 333
1 -15 -6 75465 275
-1 -15 -6 56495 238
-3 -15 -6 162791 403
14 -16 -6 114853 339
12 -16 -6 1261335 1123
10 -16 -6 10043 100
8 -16 -6 83952 290
6 -16 -6 150083 387
4 -16 -6 68999 263
2 -16 -6 7611 87
0 -16 -6 1468841 1212
-2 -16 -6 144456 380
15 -17 -6 96643 311
13 -17 -6 25656 160
11 -17 -6 183618 429
9 -17 -6 351345 593
7 -17 -6 182378 427
5 -17 -6 183094 428
3 -17 -6 407679 638
1 -17 -6 189235 435
-1 -17 -6 26801 164
-3 -17 -6 128983 359
14 -18 -6 24707 157
12 -18 -6 226357 476
10 -18 -6 24064 155
8 -18 -6 145935 382
6 -18 -6 1374 37
4 -18 -6 147702 384
2 -18 -6 24376 156
0 -18 -6 256941 507
-2 -18 -6 24086 155
13 -19 -6 624 25
11 -19 -6 216430 465
9 -19 -6 507146 712
7 -19 -6 340264 583
5 -19 -6 364404 604
3 -19 -6 544326 738
1 -19 -6 240795 491
-1 -19 -6 656 26
12 -20 -6 99999 316
10 -20 -6 17083 131
8 -20 -6 107216 327
6 -20 -6 1272 36
4 -20 -6 99075 315
2 -20 -6 17434 132
0 -20 -6 115045 339
11 -21 -6 69048 263
9 -21 -6 202846 450
7 -21 -6 216854 466
5 -21 -6 245182 495
3 -21 -6 184210 429
1 -21 -6 79094 281
10 -22 -6 92 10
8 -22 -6 57902 241
6 -22 -6 2338 48
4 -22 -6 62942 251
2 -22 -6 3483 59
9 -23 -6 30792 175
7 -23 -6 16666 129
5 -23 -6 15741 125
3 -23 -6 31523 178
6 -24 -6 2032 45
19 -1 -7 77695 279
17 -1 -7 85771 293
15 -1 -7 93748 306
13 -1 -7 321287 567
11 -1 -7 441209 664
9 -1 -7 896214 947
7 -1 -7 64946 255
5 -1 -7 817540 904
3 -1 -7 415080 644
1 -1 -7 375105 612
-1 -1 -7 98128 313
-3 -1 -7 110419 332
-5 -1 -7 91573 303
18 -2 -7 173177 416
16 -2 -7 341446 584
14 -2 -7 1036891 1018
12 -2 -7 736665 858
10 -2 -7 134454 367
8 -2 -7 135270 368
6 -2 -7 119251 345
4 -2 -7 143198 378
2 -2 -7 827395 910
0 -2 -7 1172141 1083
-2 -2 -7 409525 640
-4 -2 -7 206995 455
19 -3 -7 151573 389
17 -3 -7 101026 318
15 -3 -7 285919 535
13 -3 -7 403923 636
11 -3 -7 1888804 1374
9 -3 -7 110803 333
7 -3 -7 1005866 1003
5 -3 -7 99326 315
3 -3 -7 1930476 1389
1 -3 -7 446287 668
-1 -3 -7 319622 565
-3 -3 -7 145101 381
-5 -3 -7 201331 449
18 -4 -7 87510 296
16 -4 -7 469950 686
14 -4 -7 325752 571
12 -4 -7 944309 972
10 -4 -7 95264 309
8 -4 -7 299351 547
6 -4 -7 295255 543
4 -4 -7 102901 321
2 -4 -7 1007684 1004
0 -4 -7 362149 602
-2 -4 -7 593128 770
-4 -4 -7 113877 337
19 -5 -7 336833 580
17 -5 -7 35047 187
15 -5 -7 69159 263
13 -5 -7 80043 283
11 -5 -7 1014002 1007
9 -5 -7 299941 548
7 -5 -7 1684177 1298
5 -5 -7 354787 596
3 -5 -7 1065812 1032
1 -5 -7 89748 300
-1 -5 -7 71775 268
-3 -5 -7 48711 221
-5 -5 -7 436771 661
18 -6 -7 101634 319
16 -6 -7 175477 419
14 -6 -7 1455541 1206
12 -6 -7 1475100 1215
10 -6 -7 33817 184
8 -6 -7 100100 316
6 -6 -7 104684 324
4 -6 -7 36386 191
2 -6 -7 1736374 1318
0 -6 -7 1622685 1274
-2 -6 -7 208006 456
-4 -6 -7 113109 336
17 -7 -7 145015 381
15 -7 -7 113180 336
13 -7 -7 197047 444
11 -7 -7 32878 181
9 -7 -7 838460 916
7 -7 -7 753864 868
5 -7 -7 1018015 1009
3 -7 -7 58976 243
1 -7 -7 212695 461
-1 -7 -7 122772 350
-3 -7 -7 177837 422
18 -8 -7 410784 641
16 -8 -7 236577 486
14 -8 -7 712131 844
12 -8 -7 504667 710
10 -8 -7 295703 544
8 -8 -7 199157 446
6 -8 -7 210540 459
4 -8 -7 302001 550
2 -8 -7 546637 739
0 -8 -7 799680 894
-2 -8 -7 266988 517
-4 -8 -7 550736 742
17 -9 -7 112896 336
15 -9 -7 88960 298
13 -9 -7 247831 498
11 -9 -7 581070 762
9 -9 -7 561556 749
7 -9 -7 284063 533
5 -9 -7 572101 756
3 -9 -7 634009 796
1 -9 -7 256000 506
-1 -9 -7 101311 318
-3 -9 -7 127513 357
18 -10 -7 386995 622
16 -10 -7 483691 695
14 -10 -7 133308 365
12 -10 -7 333651 578
10 -10 -7 477359 691
8 -10 -7 259848 510
6 -10 -7 293175 541
4 -10 -7 521981 722
2 -10 -7 312111 559
0 -10 -7 177525 421
-2 -10 -7 540110 735
-4 -10 -7 513754 717
17 -11 -7 2600 51
15 -11 -7 1768 42
13 -11 -7 17091 131
11 -11 -7 488532 699
9 -11 -7 58095 241
7 -11 -7 2664377 1632
5 -11 -7 83220 288
3 -11 -7 561409 749
1 -11 -7 15358 124
-1 -11 -7 1671 41
-3 -11 -7 4927 70
16 -12 -7 283094 532
14 -12 -7 123639 352
12 -12 -7 457237 676
10 -12 -7 50510 225
8 -12 -7 100405 317
6 -12 -7 80761 284
4 -12 -7 55230 235
2 -12 -7 538182 734
0 -12 -7 130201 361
-2 -12 -7 333243 577
17 -13 -7 36246 190
15 -13 -7 22196 149
13 -13 -7 23252 152
11 -13 -7 170779 413
9 -13 -7 294262 542
7 -13 -7 1603082 1266
5 -13 -7 322546 568
3 -13 -7 193259 440
1 -13 -7 48976 221
-1 -13 -7 35051 187
-3 -13 -7 36365 191
16 -14 -7 231904 482
14 -14 -7 329619 574
12 -14 -7 302977 550
10 -14 -7 184917 430
8 -14 -7 99956 316
6 -14 -7 100639 317
4 -14 -7 195996 443
2 -14 -7 353235 594
0 -14 -7 414942 644
-2 -14 -7 293459 542
15 -15 -7 21476 147
13 -15 -7 37488 194
11 -15 -7 18672 137
9 -15 -7 583507 764
7 -15 -7 105950 325
5 -15 -7 592385 770
3 -15 -7 21576 147
1 -15 -7 63119 251
-1 -15 -7 30052 173
14 -16 -7 205336 453
12 -16 -7 102557 320
10 -16 -7 341577 584
8 -16 -7 220019 469
6 -16 -7 202856 450
4 -16 -7 353770 595
2 -16 -7 123318 351
0 -16 -7 241331 491
15 -17 -7 18227 135
13 -17 -7 16466 128
11 -17 -7 112029 335
9 -17 -7 308210 555
7 -17 -7 547111 740
5 -17 -7 327231 572
3 -17 -7 108722 330
1 -17 -7 33378 183
-1 -17 -7 16546 129
14 -18 -7 123821 352
12 -18 -7 163851 405
10 -18 -7 75083 274
8 -18 -7 38775 197
6 -18 -7 42808 207
4 -18 -7 82766 288
2 -18 -7 149197 386
0 -18 -7 142039 377
13 -19 -7 1 1
11 -19 -7 143900 379
9 -19 -7 73872 272
7 -19 -7 862249 929
5 -19 -7 70677 266
3 -19 -7 140271 375
1 -19 -7 1016 32
12 -20 -7 150251 388
10 -20 -7 63085 251
8 -20 -7 56014 237
6 -20 -7 54618 234
4 -20 -7 55338 235
2 -20 -7 161550 402
11 -21 -7 141659 376
9 -21 -7 104493 323
7 -21 -7 275384 525
5 -21 -7 128252 358
3 -21 -7 145469 381
10 -22 -7 132950 365
8 -22 -7 44989 212
6 -22 -7 43191 208
4 -22 -7 105185 324
7 -23 -7 2186 47
19 -1 -8 338920 582
17 -1 -8 61274 248
15 -1 -8 92048 303
13 -1 -8 434173 659
11 -1 -8 1042325 1021
9 -1 -8 1162005 1078
7 -1 -8 1278252 1131
5 -1 -8 1270317 1127
3 -1 -8 450978 672
1 -1 -8 86646 294
-1 -1 -8 82852 288
-3 -1 -8 431727 657
18 -2 -8 105710 325
16 -2 -8 1112028 1055
14 -2 -8 63793 253
12 -2 -8 1007168 1004
10 -2 -8 76736 277
8 -2 -8 2899 54
6 -2 -8 75769 275
4 -2 -8 1127586 1062
2 -2 -8 79903 283
0 -2 -8 1233530 1111
-2 -2 -8 128995 359
19 -3 -8 172327 415
17 -3 -8 57196 239
15 -3 -8 275173 525
13 -3 -8 211280 460
11 -3 -8 205905 454
9 -3 -8 616305 785
7 -3 -8 628629 793
5 -3 -8 230209 480
3 -3 -8 241108 491
1 -3 -8 303621 551
-1 -3 -8 76634 277
-3 -3 -8 219183 468
18 -4 -8 159300 399
16 -4 -8 1758038 1326
14 -4 -8 150629 388
12 -4 -8 1599093 1265
10 -4 -8 145385 381
8 -4 -8 266684 516
6 -4 -8 152454 390
4 -4 -8 1725920 1314
2 -4 -8 167974 410
0 -4 -8 2123995 1457
-2 -4 -8 180456 425
19 -5 -8 49114 222
17 -5 -8 12866 113
15 -5 -8 68995 263
13 -5 -8 17273 131
11 -5 -8 258191 508
9 -5 -8 234640 484
7 -5 -8 245244 495
5 -5 -8 269592 519
3 -5 -8 14090 119
1 -5 -8 73904 272
-1 -5 -8 21263 146
-3 -5 -8 68481 262
18 -6 -8 214491 463
16 -6 -8 535931 732
14 -6 -8 40643 202
12 -6 -8 663348 814
10 -6 -8 253757 504
8 -6 -8 26795 164
6 -6 -8 251071 501
4 -6 -8 762879 873
2 -6 -8 41497 204
0 -6 -8 660073 812
-2 -6 -8 277722 527
19 -7 -8 334639 578
17 -7 -8 57924 241
15 -7 -8 82138 287
13 -7 -8 241425 491
11 -7 -8 833096 913
9 -7 -8 1384514 1177
7 -7 -8 1563456 1250
5 -7 -8 900296 949
3 -7 -8 273543 523
1 -7 -8 126536 356
-1 -7 -8 93043 305
-3 -7 -8 429602 655
18 -8 -8 24630 157
16 -8 -8 45041 212
14 -8 -8 46227 215
12 -8 -8 48951 221
10 -8 -8 27136 165
8 -8 -8 27509 166
6 -8 -8 20311 143
4 -8 -8 45982 214
2 -8 -8 68302 261
0 -8 -8 49621 223
-2 -8 -8 30898 176
17 -9 -8 48830 221
15 -9 -8 69766 264
13 -9 -8 241585 492
11 -9 -8 556986 746
9 -9 -8 1295724 1138
7 -9 -8 1261332 1123
5 -9 -8 663434 815
3 -9 -8 280827 530
1 -9 -8 107624 328
-1 -9 -8 54072 233
18 -10 -8 55933 237
16 -10 -8 856160 925
14 -10 -8 176588 420
12 -10 -8 806656 898
10 -10 -8 45767 214
8 -10 -8 146433 383
6 -10 -8 63540 252
4 -10 -8 845388 919
2 -10 -8 199578 447
0 -10 -8 1066782 1033
-2 -10 -8 71814 268
17 -11 -8 20384 143
15 -11 -8 373 19
13 -11 -8 28388 168
11 -11 -8 56939 239
9 -11 -8 70717 266
7 -11 -8 65899 257
5 -11 -8 74357 273
3 -11 -8 27077 165
1 -11 -8 4426 67
-1 -11 -8 15221 123
16 -12 -8 1145088 1070
14 -12 -8 47746 219
12 -12 -8 1002240 1001
10 -12 -8 44806 212
8 -12 -8 81208 285
6 -12 -8 53780 232
4 -12 -8 1120094 1058
2 -12 -8 71307 267
0 -12 -8 1318754 1148
17 -13 -8 85140 292
15 -13 -8 22543 150
13 -13 -8 110801 333
11 -13 -8 476784 690
9 -13 -8 346065 588
7 -13 -8 386232 621
5 -13 -8 523904 724
3 -13 -8 145646 382
1 -13 -8 33070 182
-1 -13 -8 102627 320
16 -14 -8 313991 560
14 -14 -8 146152 382
12 -14 -8 317850 564
10 -14 -8 1781 42
8 -14 -8 22103 149
6 -14 -8 5370 73
4 -14 -8 304170 552
2 -14 -8 149018 386
0 -14 -8 376922 614
15 -15 -8 17406 132
13 -15 -8 115093 339
11 -15 -8 571759 756
9 -15 -8 506610 712
7 -15 -8 579025 761
5 -15 -8 565795 752
3 -15 -8 156103 395
1 -15 -8 21552 147
14 -16 -8 98473 314
12 -16 -8 22413 150
10 -16 -8 14406 120
8 -16 -8 51125 226
6 -16 -8 12201 110
4 -16 -8 27473 166
2 -16 -8 125835 355
0 -16 -8 71612 268
15 -17 -8 21436 146
13 -17 -8 69694 264
11 -17 -8 246324 496
9 -17 -8 231959 482
7 -17 -8 263564 513
5 -17 -8 277837 527
3 -17 -8 75374 275
1 -17 -8 17559 133
14 -18 -8 19755 141
12 -18 -8 353827 595
10 -18 -8 126 11
8 -18 -8 1194 35
6 -18 -8 329 18
4 -18 -8 360636 601
2 -18 -8 23136 152
13 -19 -8 28998 170
11 -19 -8 61641 248
9 -19 -8 3025 55
7 -19 -8 2881 54
5 -19 -8 68141 261
3 -19 -8 35134 187
12 -20 -8 395884 629
10 -20 -8 8302 91
8 -20 -8 7716 88
6 -20 -8 5243 72
4 -20 -8 409411 640
11 -21 -8 120194 347
9 -21 -8 138580 372
7 -21 -8 166489 408
5 -21 -8 142663 378
19 -1 -9 167581 409
17 -1 -9 56862 238
15 -1 -9 125126 354
13 -1 -9 1553 39
11 -1 -9 1402116 1184
9 -1 -9 473986 688
7 -1 -9 1455221 1206
5 -1 -9 2766 53
3 -1 -9 174111 417
1 -1 -9 54931 234
-1 -1 -9 226823 476
18 -2 -9 444481 667
16 -2 -9 285892 535
14 -2 -9 453048 673
12 -2 -9 212865 461
10 -2 -9 150097 387
8 -2 -9 193545 440
6 -2 -9 181524 426
4 -2 -9 491595 701
2 -2 -9 341038 584
0 -2 -9 520800 722
19 -3 -9 171310 414
17 -3 -9 45553 213
15 -3 -9 29758 173
13 -3 -9 30184 174
11 -3 -9 595785 772
9 -3 -9 1312336 1146
7 -3 -9 636841 798
5 -3 -9 24085 155
3 -3 -9 26902 164
1 -3 -9 58596 242
-1 -3 -9 241004 491
18 -4 -9 574483 758
16 -4 -9 385436 621
14 -4 -9 909981 954
12 -4 -9 263977 514
10 -4 -9 282051 531
8 -4 -9 276620 526
6 -4 -9 244099 494
4 -4 -9 1013881 1007
2 -4 -9 450122 671
0 -4 -9 744406 863
19 -5 -9 47646 218
17 -5 -9 18193 135
15 -5 -9 160845 401
13 -5 -9 191719 438
11 -5 -9 466841 683
9 -5 -9 733460 856
7 -5 -9 463168 681
5 -5 -9 183167 428
3 -5 -9 199942 447
1 -5 -9 23339 153
-1 -5 -9 71254 267
18 -6 -9 346249 588
16 -6 -9 158512 398
14 -6 -9 412044 642
12 -6 -9 243026 493
10 -6 -9 456937 676
8 -6 -9 512970 716
6 -6 -9 212371 461
4 -6 -9 510929 715
2 -6 -9 183303 428
0 -6 -9 458144 677
19 -7 -9 145647 382
17 -7 -9 70016 265
15 -7 -9 316607 563
13 -7 -9 311111 558
11 -7 -9 1448119 1203
9 -7 -9 5387 73
7 -7 -9 1501054 1225
5 -7 -9 352446 594
3 -7 -9 347627 590
1 -7 -9 78298 280
-1 -7 -9 219113 468
18 -8 -9 55232 235
16 -8 -9 175530 419
14 -8 -9 269195 519
12 -8 -9 15926 126
10 -8 -9 94690 308
8 -8 -9 99307 315
6 -8 -9 17697 133
4 -8 -9 276883 526
2 -8 -9 261468 511
0 -8 -9 88041 297
17 -9 -9 34516 186
15 -9 -9 88576 298
13 -9 -9 4241 65
11 -9 -9 886068 941
9 -9 -9 627360 792
7 -9 -9 899030 948
5 -9 -9 2617 51
3 -9 -9 105597 325
1 -9 -9 44553 211
18 -10 -9 290027 539
16 -10 -9 409530 640
14 -10 -9 680614 825
12 -10 -9 80086 283
10 -10 -9 51602 227
8 -10 -9 63191 251
6 -10 -9 102058 319
4 -10 -9 746477 864
2 -10 -9 474509 689
0 -10 -9 353870 595
17 -11 -9 18409 136
15 -11 -9 94219 307
13 -11 -9 283484 532
11 -11 -9 38599 196
9 -11 -9 628761 793
7 -11 -9 43242 208
5 -11 -9 310983 558
3 -11 -9 113100 336
1 -11 -9 24334 156
16 -12 -9 257941 508
14 -12 -9 472359 687
12 -12 -9 126127 355
10 -12 -9 134470 367
8 -12 -9 136087 369
6 -12 -9 139689 374
4 -12 -9 514972 718
2 -12 -9 234530 484
17 -13 -9 83441 289
15 -13 -9 218823 468
13 -13 -9 265895 516
11 -13 -9 203760 451
9 -13 -9 137431 371
7 -13 -9 238533 488
5 -13 -9 293417 542
3 -13 -9 279412 529
1 -13 -9 109700 331
16 -14 -9 213094 462
14 -14 -9 198977 446
12 -14 -9 31067 176
10 -14 -9 33556 183
8 -14 -9 32308 180
6 -14 -9 29083 171
4 -14 -9 251471 501
2 -14 -9 222107 471
15 -15 -9 110155 332
13 -15 -9 31351 177
11 -15 -9 657059 811
9 -15 -9 3915 63
7 -15 -9 713885 845
5 -15 -9 34658 186
3 -15 -9 133282 365
14 -16 -9 277108 526
12 -16 -9 15352 124
10 -16 -9 11570 108
8 -16 -9 16248 127
6 -16 -9 11185 106
4 -16 -9 322701 568
15 -17 -9 83986 290
13 -17 -9 89844 300
11 -17 -9 372617 610
9 -17 -9 4334 66
7 -17 -9 433225 658
5 -17 -9 104057 323
3 -17 -9 97635 312
14 -18 -9 198621 446
12 -18 -9 33147 182
10 -18 -9 38335 196
8 -18 -9 30561 175
6 -18 -9 45227 213
4 -18 -9 227461 477
13 -19 -9 152791 391
11 -19 -9 5913 77
9 -19 -9 122755 350
7 -19 -9 6372 80
5 -19 -9 164363 405
10 -20 -9 24786 157
8 -20 -9 27286 165
19 -1 -10 139291 373
17 -1 -10 60847 247
15 -1 -10 336800 580
13 -1 -10 182887 428
11 -1 -10 210608 459
9 -1 -10 207232 455
7 -1 -10 203766 451
5 -1 -10 405025 636
3 -1 -10 81249 285
1 -1 -10 195245 442
18 -2 -10 85184 292
16 -2 -10 633364 796
14 -2 -10 64639 254
12 -2 -10 210756 459
10 -2 -10 404 20
8 -2 -10 215099 464
6 -2 -10 69171 263
4 -2 -10 823216 907
2 -2 -10 110373 332
0 -2 -10 297387 545
19 -3 -10 177338 421
17 -3 -10 78678 280
15 -3 -10 710721 843
13 -3 -10 973410 987
11 -3 -10 351924 593
9 -3 -10 371817 610
7 -3 -10 1082576 1040
5 -3 -10 876467 936
3 -3 -10 111248 334
1 -3 -10 231725 481
18 -4 -10 138217 372
16 -4 -10 90624 301
14 -4 -10 104689 324
12 -4 -10 416765 646
10 -4 -10 43742 209
8 -4 -10 425372 652
6 -4 -10 141296 376
4 -4 -10 125574 354
2 -4 -10 150930 388
19 -5 -10 43014 207
17 -5 -10 21970 148
15 -5 -10 419805 648
13 -5 -10 363931 603
11 -5 -10 707028 841
9 -5 -10 813244 902
7 -5 -10 451367 672
5 -5 -10 466362 683
3 -5 -10 41099 203
1 -5 -10 58939 243
18 -6 -10 162301 403
16 -6 -10 1066937 1033
14 -6 -10 89225 299
12 -6 -10 117810 343
10 -6 -10 51091 226
8 -6 -10 144162 380
6 -6 -10 137185 370
4 -6 -10 1325764 1151
2 -6 -10 213962 463
19 -7 -10 128004 358
17 -7 -10 114561 338
15 -7 -10 213754 462
13 -7 -10 22689 151
11 -7 -10 397346 630
9 -7 -10 398289 631
7 -7 -10 16556 129
5 -7 -10 210984 459
3 -7 -10 134145 366
1 -7 -10 149800 387
18 -8 -10 16588 129
16 -8 -10 853738 924
14 -8 -10 13296 115
12 -8 -10 190089 436
10 -8 -10 8018 90
8 -8 -10 195007 442
6 -8 -10 10649 103
4 -8 -10 1043971 1022
2 -8 -10 16667 129
17 -9 -10 93160 305
15 -9 -10 412961 643
13 -9 -10 178327 422
11 -9 -10 89467 299
9 -9 -10 67357 260
7 -9 -10 199389 447
5 -9 -10 430634 656
3 -9 -10 104426 323
18 -10 -10 50807 225
16 -10 -10 116596 341
14 -10 -10 61799 249
12 -10 -10 381921 618
10 -10 -10 116587 341
8 -10 -10 395033 629
6 -10 -10 56693 238
4 -10 -10 141510 376
2 -10 -10 62098 249
17 -11 -10 2698 52
15 -11 -10 176779 420
13 -11 -10 120141 347
11 -11 -10 622816 789
9 -11 -10 610900 782
7 -11 -10 94846 308
5 -11 -10 217675 467
3 -11 -10 3792 62
16 -12 -10 116164 341
14 -12 -10 28915 170
12 -12 -10 206290 454
10 -12 -10 16690 129
8 -12 -10 227623 477
6 -12 -10 25228 159
4 -12 -10 152184 390
17 -13 -10 29299 171
15 -13 -10 69199 263
13 -13 -10 25865 161
11 -13 -10 665830 816
9 -13 -10 700455 837
7 -13 -10 21420 146
5 -13 -10 104442 323
3 -13 -10 38237 196
16 -14 -10 326218 571
14 -14 -10 4826 69
12 -14 -10 235052 485
10 -14 -10 23801 154
8 -14 -10 258853 509
6 -14 -10 3466 59
4 -14 -10 388252 623
15 -15 -10 101308 318
13 -15 -10 1612 40
11 -15 -10 93140 305
9 -15 -10 112948 336
7 -15 -10 3918 63
5 -15 -10 105872 325
14 -16 -10 20944 145
12 -16 -10 237615 487
10 -16 -10 55751 236
8 -16 -10 250685 501
6 -16 -10 15121 123
13 -17 -10 16500 128
11 -17 -10 165650 407
9 -17 -10 170278 413
7 -17 -10 20340 143
12 -18 -10 103769 322
10 -18 -10 6726 82
8 -18 -10 110813 333
19 -1 -11 274746 524
17 -1 -11 80655 284
15 -1 -11 197518 444
13 -1 -11 162331 403
11 -1 -11 405987 637
9 -1 -11 215643 464
7 -1 -11 197672 445
5 -1 -11 115201 339
3 -1 -11 316565 563
18 -2 -11 129919 360
16 -2 -11 18421 136
14 -2 -11 555713 745
12 -2 -11 113978 338
10 -2 -11 141353 376
8 -2 -11 604431 777
6 -2 -11 29643 172
4 -2 -11 145450 381
19 -3 -11 118793 345
17 -3 -11 244301 494
15 -3 -11 127091 356
13 -3 -11 69654 264
11 -3 -11 1412879 1189
9 -3 -11 84317 290
7 -3 -11 100349 317
5 -3 -11 329376 574
3 -3 -11 167400 409
18 -4 -11 66630 258
16 -4 -11 83466 289
14 -4 -11 440462 664
12 -4 -11 194883 441
10 -4 -11 167354 409
8 -4 -11 462323 680
6 -4 -11 101199 318
4 -4 -11 76673 277
19 -5 -11 32224 180
17 -5 -11 48294 220
15 -5 -11 227958 477
13 -5 -11 58832 243
11 -5 -11 763798 874
9 -5 -11 52495 229
7 -5 -11 269323 519
5 -5 -11 58216 241
3 -5 -11 43277 208
18 -6 -11 66387 258
16 -6 -11 29012 170
14 -6 -11 466583 683
12 -6 -11 59019 243
10 -6 -11 55884 236
8 -6 -11 494119 703
6 -6 -11 24024 155
4 -6 -11 87391 296
19 -7 -11 256983 507
17 -7 -11 22857 151
15 -7 -11 346262 588
13 -7 -11 223620 473
11 -7 -11 10299 101
9 -7 -11 215885 465
7 -7 -11 428075 654
5 -7 -11 21912 148
3 -7 -11 306032 553
18 -8 -11 307807 555
16 -8 -11 79185 281
14 -8 -11 212300 461
12 -8 -11 10550 103
10 -8 -11 20903 145
8 -8 -11 260067 510
6 -8 -11 96842 311
4 -8 -11 373071 611
17 -9 -11 96403 310
15 -9 -11 167670 409
13 -9 -11 88067 297
11 -9 -11 390168 625
9 -9 -11 84207 290
7 -9 -11 186992 432
5 -9 -11 109406 331
18 -10 -11 298932 547
16 -10 -11 132112 363
14 -10 -11 143694 379
12 -10 -11 147598 384
10 -10 -11 192796 439
8 -10 -11 184029 429
6 -10 -11 170463 413
4 -10 -11 361313 601
17 -11 -11 55560 236
15 -11 -11 346792 589
13 -11 -11 36850 192
11 -11 -11 476383 690
9 -11 -11 26018 161
7 -11 -11 358136 598
5 -11 -11 66876 259
16 -12 -11 30131 174
14 -12 -11 307769 555
12 -12 -11 114327 338
10 -12 -11 125541 354
8 -12 -11 323668 569
6 -12 -11 24836 158
15 -13 -11 464102 681
13 -13 -11 84400 291
11 -13 -11 133026 365
9 -13 -11 83181 288
7 -13 -11 470575 686
14 -14 -11 107947 329
12 -14 -11 82377 287
10 -14 -11 67354 260
8 -14 -11 118164 344
13 -15 -11 90213 300
11 -15 -11 1710 41
9 -15 -11 92349 304
12 -16 -11 64432 254
10 -16 -11 62881 251
19 -1 -12 55185 235
17 -1 -12 14097 119
15 -1 -12 323095 568
13 -1 -12 163854 405
11 -1 -12 187299 433
9 -1 -12 308129 555
7 -1 -12 12680 113
5 -1 -12 79018 281
18 -2 -12 65702 256
16 -2 -12 205880 454
14 -2 -12 18746 137
12 -2 -12 396725 630
10 -2 -12 16017 127
8 -2 -12 235156 485
6 -2 -12 54404 233
19 -3 -12 102891 321
17 -3 -12 2708 52
15 -3 -12 558039 747
13 -3 -12 110204 332
11 -3 -12 107781 328
9 -3 -12 520310 721
7 -3 -12 2616 51
5 -3 -12 130944 362
18 -4 -12 20078 142
16 -4 -12 248730 499
14 -4 -12 79089 281
12 -4 -12 100929 318
10 -4 -12 73121 270
8 -4 -12 273311 523
6 -4 -12 43916 210
19 -5 -12 223479 473
17 -5 -12 57049 239
15 -5 -12 319760 565
13 -5 -12 18407 136
11 -5 -12 17553 132
9 -5 -12 276074 525
7 -5 -12 80399 284
5 -5 -12 301588 549
18 -6 -12 82426 287
16 -6 -12 97696 313
14 -6 -12 54414 233
12 -6 -12 696858 835
10 -6 -12 65430 256
8 -6 -12 116727 342
6 -6 -12 120301 347
17 -7 -12 76839 277
15 -7 -12 168280 410
13 -7 -12 197324 444
11 -7 -12 177737 422
9 -7 -12 215334 464
7 -7 -12 104722 324
18 -8 -12 13322 115
16 -8 -12 208502 457
14 -8 -12 4637 68
12 -8 -12 525207 725
10 -8 -12 8567 93
8 -8 -12 270531 520
6 -8 -12 18803 137
17 -9 -12 18667 137
15 -9 -12 236130 486
13 -9 -12 125422 354
11 -9 -12 136028 369
9 -9 -12 309012 556
7 -9 -12 21550 147
16 -10 -12 297452 545
14 -10 -12 89933 300
12 -10 -12 41728 204
10 -10 -12 90511 301
8 -10 -12 344008 587
15 -11 -12 134548 367
13 -11 -12 9892 99
11 -11 -12 20786 144
9 -11 -12 129362 360
14 -12 -12 54191 233
12 -12 -12 50865 226
10 -12 -12 52291 229
8 -12 -12 173955 417
13 -13 -12 91317 302
11 -13 -12 103042 321
12 -14 -12 216088 465
17 -1 -13 82619 287
15 -1 -13 115243 339
13 -1 -13 2057 45
11 -1 -13 137675 371
9 -1 -13 60921 247
18 -2 -13 188786 434
16 -2 -13 95906 310
14 -2 -13 113185 336
12 -2 -13 156038 395
10 -2 -13 112918 336
8 -2 -13 226667 476
17 -3 -13 95567 309
15 -3 -13 22142 149
13 -3 -13 783 28
11 -3 -13 20695 144
9 -3 -13 113002 336
18 -4 -13 178407 422
16 -4 -13 40146 200
14 -4 -13 108354 329
12 -4 -13 144589 380
10 -4 -13 29193 171
8 -4 -13 226817 476
17 -5 -13 26405 162
15 -5 -13 80556 284
13 -5 -13 36112 190
11 -5 -13 100484 317
9 -5 -13 25596 160
16 -6 -13 205680 454
14 -6 -13 74614 273
12 -6 -13 82129 287
10 -6 -13 223043 472
17 -7 -13 84280 290
15 -7 -13 165359 407
13 -7 -13 116717 342
11 -7 -13 229179 479
9 -7 -13 104695 324
16 -8 -13 99468 315
14 -8 -13 341097 584
12 -8 -13 341635 584
10 -8 -13 104806 324
15 -9 -13 73579 271
13 -9 -13 6401 80
11 -9 -13 69939 264
14 -10 -13 273476 523
12 -10 -13 268294 518
15 -1 -14 80199 283
13 -1 -14 63998 253
14 -2 -14 51560 227
15 -3 -14 188582 434
13 -3 -14 192540 439
14 -4 -14 35874 189
loop_
_twin_individual_id
_twin_individual_mass_fraction_refined
1 0.93(3)
2 0.07(3)
