#------------------------------------------------------------------------------
#$Date: 2019-11-23 04:14:30 +0200 (Sat, 23 Nov 2019) $
#$Revision: 232087 $
#$URL: file:///home/coder/svn-repositories/cod/cif/4/34/69/4346980.cif $
#------------------------------------------------------------------------------
#
# This file is available in the Crystallography Open Database (COD),
# http://www.crystallography.net/
#
# All data on this site have been placed in the public domain by the
# contributors.
#
data_4346980
loop_
_publ_author_name
'Biswas, Soumava'
'Mondal, Amit Kumar'
'Konar, Sanjit'
_publ_section_title
;
 Densely Packed Lanthanide Cubane Based 3D Metal-Organic Frameworks for
 Efficient Magnetic Refrigeration and Slow Magnetic Relaxation.
;
_journal_issue                   5
_journal_name_full               'Inorganic chemistry'
_journal_page_first              2085
_journal_page_last               2090
_journal_paper_doi               10.1021/acs.inorgchem.5b02486
_journal_volume                  55
_journal_year                    2016
_chemical_formula_moiety         'C8 H4 Dy5 O22'
_chemical_formula_sum            'C8 H4 Dy5 O22'
_chemical_formula_weight         1264.61
_space_group_crystal_system      tetragonal
_space_group_IT_number           121
_space_group_name_Hall           'I -4 2'
_space_group_name_H-M_alt        'I -4 2 m'
_atom_sites_solution_hydrogens   geom
_audit_creation_method           SHELXL-2014/6
_cell_angle_alpha                90
_cell_angle_beta                 90
_cell_angle_gamma                90
_cell_formula_units_Z            4
_cell_length_a                   10.7012(14)
_cell_length_b                   10.7012(14)
_cell_length_c                   20.408(3)
_cell_measurement_reflns_used    9044
_cell_measurement_temperature    120(2)
_cell_measurement_theta_max      25.06
_cell_measurement_theta_min      2.69
_cell_volume                     2337.0(6)
_computing_cell_refinement       'Bruker SAINT'
_computing_data_collection       'Bruker APEX2'
_computing_data_reduction        'Bruker SAINT'
_computing_molecular_graphics    'Bruker SHELXTL'
_computing_publication_material  'Bruker SHELXTL'
_computing_structure_refinement  'SHELXL-2014 (Sheldrick 2014)'
_computing_structure_solution    'SHELXS-97 (Sheldrick 2008)'
_diffrn_ambient_temperature      120(2)
_diffrn_measured_fraction_theta_full 0.997
_diffrn_measured_fraction_theta_max 0.997
_diffrn_measurement_device_type  'Bruker APEX-II CCD'
_diffrn_radiation_type           MoK\a
_diffrn_radiation_wavelength     0.71073
_diffrn_reflns_av_R_equivalents  0.0103
_diffrn_reflns_av_unetI/netI     0.0141
_diffrn_reflns_Laue_measured_fraction_full 0.997
_diffrn_reflns_Laue_measured_fraction_max 0.997
_diffrn_reflns_limit_h_max       12
_diffrn_reflns_limit_h_min       -12
_diffrn_reflns_limit_k_max       12
_diffrn_reflns_limit_k_min       -12
_diffrn_reflns_limit_l_max       24
_diffrn_reflns_limit_l_min       -24
_diffrn_reflns_number            1132
_diffrn_reflns_point_group_measured_fraction_full 0.997
_diffrn_reflns_point_group_measured_fraction_max 0.997
_diffrn_reflns_theta_full        25.242
_diffrn_reflns_theta_max         25.093
_diffrn_reflns_theta_min         2.692
_diffrn_source                   'fine-focus sealed tube'
_exptl_absorpt_coefficient_mu    15.885
_exptl_absorpt_correction_T_max  0.014
_exptl_absorpt_correction_T_min  0.002
_exptl_absorpt_correction_type   multi-scan
_exptl_crystal_colour            colourless
_exptl_crystal_density_diffrn    3.594
_exptl_crystal_description       block
_exptl_crystal_F_000             2232
_exptl_crystal_size_max          0.42
_exptl_crystal_size_mid          0.35
_exptl_crystal_size_min          0.27
_refine_diff_density_max         1.573
_refine_diff_density_min         -0.823
_refine_diff_density_rms         0.175
_refine_ls_abs_structure_details
;
 Flack x determined using 402 quotients [(I+)-(I-)]/[(I+)+(I-)]
 (Parsons, Flack and Wagner, Acta Cryst. B69 (2013) 249-259).
;
_refine_ls_abs_structure_Flack   0.012(12)
_refine_ls_extinction_method     none
_refine_ls_goodness_of_fit_ref   1.119
_refine_ls_hydrogen_treatment    constr
_refine_ls_matrix_type           full
_refine_ls_number_parameters     85
_refine_ls_number_reflns         1132
_refine_ls_number_restraints     0
_refine_ls_restrained_S_all      1.119
_refine_ls_R_factor_all          0.0189
_refine_ls_R_factor_gt           0.0187
_refine_ls_shift/su_max          0.000
_refine_ls_shift/su_mean         0.000
_refine_ls_structure_factor_coef Fsqd
_refine_ls_weighting_details
'w=1/[\s^2^(Fo^2^)+(0.0303P)^2^+27.0469P] where P=(Fo^2^+2Fc^2^)/3'
_refine_ls_weighting_scheme      calc
_refine_ls_wR_factor_gt          0.0507
_refine_ls_wR_factor_ref         0.0508
_reflns_Friedel_coverage         0.633
_reflns_Friedel_fraction_full    0.828
_reflns_Friedel_fraction_max     0.845
_reflns_number_gt                1044
_reflns_number_total             1132
_reflns_threshold_expression     'I > 2\s(I)'
_cod_data_source_file            ic5b02486_si_003.cif
_cod_data_source_block           Complex2
_cod_original_cell_volume        2337.0(7)
_cod_database_code               4346980
_shelx_space_group_comment
;
The symmetry employed for this shelxl refinement is uniquely defined
by the following loop, which should always be used as a source of
symmetry information in preference to the above space-group names.
They are only intended as comments.
;
_shelxl_version_number           2014/6
_shelx_res_file
;
TITL ty2_a.res in I-42m
CELL  0.71073  10.7012  10.7012  20.4077   90.000   90.000   90.000
ZERR   4.000   0.0014   0.0014   0.0030    0.000    0.000    0.000
LATT -2
SYMM -X, -Y, Z
SYMM Y, -X, -Z
SYMM -Y, X, -Z
SYMM -X, Y, -Z
SYMM X, -Y, -Z
SYMM -Y, -X, Z
SYMM Y, X, Z
SFAC C  H  O  Dy
UNIT 8  4  22  5
L.S. 30
ACTA
BOND $H
FMAP 2
PLAN 2
EADP O7
EADP C2 O1
FREE Dy2  Dy1
TEMP -143.120
WGHT    0.030300   27.046902
FVAR       1.33437
DY2   4    0.500000    0.500000    0.347464    10.25000    0.00877    0.00877 =
         0.01980    0.00000    0.00000   -0.00077
DY1   4    0.152299    0.411242    0.314987    11.00000    0.00794    0.00884 =
         0.01541    0.00011   -0.00053    0.00146
O4    3   -0.060346    0.388678    0.298441    11.00000    0.00875    0.01499 =
         0.02080    0.00293    0.00071    0.00552
O2    3    0.345246    0.345246    0.363628    10.50000    0.01072    0.01072 =
         0.02038   -0.00171   -0.00171    0.00518
O5    3    0.320903    0.535195    0.279440    11.00000    0.01633    0.01453 =
         0.03547    0.00994   -0.00776   -0.00422
C3    1    0.351621    0.648379    0.264160    10.50000    0.01883    0.01883 =
         0.01881    0.00028   -0.00028   -0.00948
O3    3    0.150636    0.499154    0.419885    11.00000    0.04199    0.05495 =
         0.01936   -0.00458    0.00323    0.01293
O1    3    0.090838    0.243964    0.384108    11.00000    0.03361    0.04084 =
         0.05836    0.02473    0.01067    0.00542
C1    1    0.068373    0.497975    0.463757    11.00000    0.03999    0.04186 =
         0.02412   -0.00161    0.00793    0.00310
O6    3    0.276933    0.723067    0.238313    10.50000    0.01377    0.01377 =
         0.03479    0.01088   -0.01088   -0.00398
C2    1    0.142645    0.142645    0.404261    10.50000    0.03361    0.04084 =
         0.05836    0.02473    0.01067    0.00542
AFIX  43
H2    2    0.100372    0.100373    0.438675    10.50000   -1.20000
AFIX   0
O7    3    0.610215    0.389785    0.423631    10.50000    0.07954    0.07954 =
         0.12854    0.06304   -0.06304   -0.04688
AFIX  83
H7    2    0.600066    0.312917    0.417210    10.50000   -1.50000
AFIX   0
HKLF 4

REM  ty2_a.res in I-42m
REM R1 =  0.0187 for    1044 Fo > 4sig(Fo)  and  0.0189 for all    1055 data
REM     85 parameters refined using      0 restraints

END

WGHT      0.0309     24.4500

REM Highest difference peak  1.573,  deepest hole -0.823,  1-sigma level  0.175
Q1    1   0.7048  0.2952  0.4979  10.50000  0.05    1.57
Q2    1   0.1664  0.1664  0.4409  10.50000  0.05    1.06
;
_shelx_res_checksum              36782
_shelx_hkl_file
;
   1   1   0  153625    2093                                                      141453   11.92    0.00  1.0000
   0   2   0  194530    2061                                                      149276  -41.15    0.00  1.0000
   2   2   0   14531     426                                                       24317   26.63    0.00  1.0000
  -1   3   0  433805    5232                                                      409546  -14.06    0.01  1.0000
   1   3   0  420074    5586                                                      396195  -14.06    0.02  1.0000
   3   3   0  133821    2071                                                      156924   22.81    0.02  1.0000
  -2   4   0   18603     318                                                       16591   -5.71    0.00  1.0000
   0   4   0  363737    4740                                                      355527    5.15    0.03  1.0000
   2   4   0   18632     340                                                       16628   -5.68    0.01  1.0000
   4   4   0  539750    7065                                                      551184    5.82    0.00  1.0000
  -3   5   0   26037     524                                                       31183  -11.46    0.00  1.0000
  -1   5   0  340908    4521                                                      349354    5.41    0.01  1.0000
   1   5   0  335686    4591                                                      344077    5.41    0.00  1.0000
   3   5   0   26436     569                                                       31617  -11.45    0.01  1.0000
   5   5   0  126628    1987                                                      133084    6.74    0.01  1.0000
  -4   6   0   88014    1256                                                       84280   -4.79   -0.01  1.0000
  -2   6   0  386336    4985                                                      383966   -1.44    0.00  1.0000
   0   6   0   45824     807                                                       47322    2.61   -0.02  1.0000
   2   6   0  382643    4800                                                      380243   -1.46    0.01  1.0000
   4   6   0   88911    1286                                                       85167   -4.77    0.00  1.0000
   6   6   0  125251    2032                                                      117717    8.13   -0.01  1.0000
  -5   7   0  296848    4099                                                      297020    0.12    0.00  1.0000
  -3   7   0   10786     312                                                       10393    1.44   -0.01  1.0000
  -1   7   0    4226     212                                                        4002   -1.31   -0.02  1.0000
   1   7   0    4120     192                                                        3898   -1.32    0.00  1.0000
   3   7   0   10711     303                                                       10323    1.42   -0.01  1.0000
   5   7   0  299742    4291                                                      299894    0.10   -0.01  1.0000
   7   7   0  536472    8172                                                      533188   -1.69    0.01  1.0000
  -6   8   0     124     250                                                          21   -4.94    0.00  1.0000
  -4   8   0   29536     637                                                       30061    1.14   -0.01  1.0000
  -2   8   0   74706    1285                                                       77289    3.53   -0.01  1.0000
   0   8   0   49001     881                                                       45819   -5.50    0.00  1.0000
   2   8   0   74168    1174                                                       76748    3.53   -0.02  1.0000
   4   8   0   29703     589                                                       30220    1.12   -0.01  1.0000
   6   8   0      43     260                                                        -103   -4.94    0.00  1.0000
   8   8   0   18011     855                                                       19198    3.27   -0.02  1.0000
  -7   9   0   11622     687                                                       11160    1.63   -0.01  1.0000
  -5   9   0    3474     316                                                        4053   -3.55   -0.01  1.0000
  -3   9   0   81840    1440                                                       83320    1.94    0.00  1.0000
  -1   9   0  106580    1758                                                      106095   -0.56    0.00  1.0000
   1   9   0  106066    1690                                                      105581   -0.56   -0.01  1.0000
   3   9   0   83143    1374                                                       84642    1.95    0.00  1.0000
   5   9   0    3888     287                                                        4497   -3.54   -0.01  1.0000
   7   9   0   10970     576                                                       10523    1.62   -0.02  1.0000
   9   9   0  108294    2960                                                      108914    0.71    0.00  1.0000
  -6  10   0  361254    7930                                                      362672    0.89   -0.01  1.0000
  -4  10   0   45910    1082                                                       45035   -1.54    0.00  1.0000
  -2  10   0    3944     329                                                        4112   -0.99    0.00  1.0000
   0  10   0    3006     281                                                        3387    2.53    0.00  1.0000
   2  10   0    3855     298                                                        4020   -0.99    0.01  1.0000
   4  10   0   46097     929                                                       45231   -1.52   -0.01  1.0000
   6  10   0  346250    6345                                                      347646    0.89   -0.01  1.0000
  -5  11   0       2     421                                                        -444    1.07    0.00  1.0000
  -3  11   0  235215    4268                                                      233087   -1.65   -0.01  1.0000
  -1  11   0    8773     488                                                        8994    0.88    0.00  1.0000
   1  11   0    8757     448                                                        8980    0.89    0.00  1.0000
   3  11   0  240251    3954                                                      238098   -1.66    0.00  1.0000
   5  11   0       2     328                                                         -75    1.06    0.01  1.0000
  -4  12   0   18108     912                                                       17870    0.67   -0.01  1.0000
  -2  12   0   19074     771                                                       18850   -0.61    0.00  1.0000
   0  12   0  347972    6578                                                      348459    0.31   -0.01  1.0000
   2  12   0   17934     740                                                       17715   -0.62   -0.01  1.0000
   4  12   0   16971     756                                                       16744    0.66    0.01  1.0000
  -1   2   1    1179      65                                                        2080   10.05  -19.76  1.0000
   1   2   1    1144      63                                                        2019   10.06   19.76  1.0000
  -2   3   1  268035    2531                                                      259508  -14.89    3.20  1.0000
   0   3   1  197105    2144                                                      231457   27.94   -0.02  1.0000
   2   3   1  268410    2540                                                      259865  -14.90   -3.20  1.0000
  -3   4   1  238156    2838                                                      243734   -1.80   -4.58  1.0000
  -1   4   1  278859    2406                                                      258504    0.79   14.76  1.0000
   1   4   1  275770    2413                                                      255496    0.79  -14.79  1.0000
   3   4   1  239251    2628                                                      244807   -1.81    4.55  1.0000
  -4   5   1  148127    1574                                                      146499    1.42   -4.66  1.0000
  -2   5   1  516424    4780                                                      526764    6.99    3.68  1.0000
   0   5   1     968      53                                                         271  -11.03   -0.01  1.0000
   2   5   1  513832    4903                                                      524206    6.99   -3.71  1.0000
   4   5   1  147182    1509                                                      145550    1.40    4.64  1.0000
  -5   6   1   20729     349                                                       19900   -5.61    1.71  1.0000
  -3   6   1   78704     782                                                       77024    6.26    1.30  1.0000
  -1   6   1  163635    1694                                                      162032   -1.92   -5.72  1.0000
   1   6   1  164746    1608                                                      163127   -1.93    5.70  1.0000
   3   6   1   78816     803                                                       77134    6.27   -1.30  1.0000
   5   6   1   20949     342                                                       20110   -5.60   -1.73  1.0000
  -6   7   1   59514     768                                                       58222    0.73   -3.09  1.0000
  -4   7   1   86541     916                                                       87296   -0.19    4.88  1.0000
  -2   7   1  153212    1617                                                      157458   -2.05   -4.58  1.0000
   0   7   1    8435     199                                                        7582    3.59    0.00  1.0000
   2   7   1  151812    1497                                                      156047   -2.04    4.58  1.0000
   4   7   1   86287     973                                                       87052   -0.17   -4.88  1.0000
   6   7   1   58217     780                                                       56949    0.73    3.07  1.0000
  -7   8   1   16110     493                                                       15968   -0.63   -0.31  1.0000
  -5   8   1   76590     918                                                       78168    4.04   -0.74  1.0000
  -3   8   1  236827    2375                                                      236117   -4.78    0.13  1.0000
  -1   8   1  246037    2562                                                      246513    1.77   -0.04  1.0000
   1   8   1  247141    2521                                                      247595    1.78    0.07  1.0000
   3   8   1  238698    2236                                                      237993   -4.77   -0.13  1.0000
   5   8   1   75923     935                                                       77504    4.05    0.75  1.0000
   7   8   1   14688     457                                                       14557   -0.61    0.30  1.0000
  -8   9   1    9116     446                                                        8902   -0.66    0.54  1.0000
  -6   9   1   37874     729                                                       38475    0.58    1.07  1.0000
  -4   9   1     284     141                                                         444    1.44   -2.82  1.0000
  -2   9   1  309397    3171                                                      305308   -2.19    2.19  1.0000
   0   9   1   93196    1117                                                       94810    1.98    0.00  1.0000
   2   9   1  316311    2953                                                      312182   -2.19   -2.18  1.0000
   4   9   1     318     133                                                         486    1.44    2.83  1.0000
   6   9   1   36154     658                                                       36739    0.59   -1.06  1.0000
   8   9   1    9134     454                                                        8920   -0.67   -0.53  1.0000
  -7  10   1   12450     551                                                       12791    0.49    1.07  1.0000
  -5  10   1   86860    1310                                                       86465   -0.54    0.20  1.0000
  -3  10   1   42644     742                                                       43667    1.90   -1.47  1.0000
  -1  10   1   50627     755                                                       51848   -1.20    1.65  1.0000
   1  10   1   50118     721                                                       51342   -1.21   -1.66  1.0000
   3  10   1   43411     623                                                       44438    1.90    1.48  1.0000
   5  10   1   85691    1159                                                       85293   -0.55   -0.20  1.0000
   7  10   1   13127     588                                                       13467    0.47   -1.05  1.0000
  -6  11   1   16131     587                                                       16262    0.50    0.53  1.0000
  -4  11   1   39180     786                                                       39404   -0.65    0.27  1.0000
  -2  11   1   42113     791                                                       42069    1.74   -1.06  1.0000
   0  11   1   89948    1208                                                       87870   -2.62    0.00  1.0000
   2  11   1   42555     677                                                       42508    1.73    1.06  1.0000
   4  11   1   40816     722                                                       41046   -0.66   -0.27  1.0000
   6  11   1   15576     675                                                       15702    0.49   -0.51  1.0000
  -3  12   1   88615    1477                                                       88540   -0.09    0.05  1.0000
  -1  12   1   46646     855                                                       47096    0.12   -0.79  1.0000
   1  12   1   46141     816                                                       46600    0.13    0.80  1.0000
   3  12   1   89978    1348                                                       89909   -0.09   -0.04  1.0000
   1   1   2  326779    3082                                                      270095    1.72  -44.14  1.0000
   0   2   2    4045     102                                                        6851  -14.43   -0.01  1.0000
   2   2   2  435983    4857                                                      475652    7.18  -21.66  1.0000
  -1   3   2  358798    4013                                                      375653   -3.20  -12.08  1.0000
   1   3   2  354009    3526                                                      370752   -3.22   12.06  1.0000
   3   3   2    7133     193                                                        6245    2.93   -6.69  1.0000
  -2   4   2    9822     124                                                        6151   -3.17  -15.57  1.0000
   0   4   2  207138    1997                                                      212069    4.05    0.00  1.0000
   2   4   2    9815     118                                                        6145   -3.17   15.57  1.0000
   4   4   2  419368    4066                                                      398914    3.05  -14.70  1.0000
  -3   5   2  168409    1700                                                      167631   -0.09   -0.83  1.0000
  -1   5   2  179108    1781                                                      177716    0.07   -3.89  1.0000
   1   5   2  179875    1681                                                      178448    0.10    3.91  1.0000
   3   5   2  167789    1725                                                      167022   -0.09    0.83  1.0000
   5   5   2   32569     470                                                       34448    0.23   -4.88  1.0000
  -4   6   2   37853     576                                                       40197   -2.22   -4.85  1.0000
  -2   6   2  169307    1627                                                      163845    2.53    5.36  1.0000
   0   6   2     918      81                                                        1266   -3.98    0.01  1.0000
   2   6   2  171407    1610                                                      165914    2.54   -5.34  1.0000
   4   6   2   37615     528                                                       39951   -2.21    4.86  1.0000
   6   6   2  142141    1544                                                      146120    3.76   -1.20  1.0000
  -5   7   2  128430    1414                                                      130014    1.30   -4.13  1.0000
  -3   7   2   23146     350                                                       23223   -0.26   -0.77  1.0000
  -1   7   2   20649     336                                                       23182    0.10    6.44  1.0000
   1   7   2   20391     317                                                       22906    0.09   -6.44  1.0000
   3   7   2   22894     327                                                       22976   -0.26    0.79  1.0000
   5   7   2  127591    1432                                                      129168    1.31    4.14  1.0000
   7   7   2  183553    2107                                                      185218    0.13   -5.58  1.0000
  -6   8   2   13885     347                                                       14547   -0.53    2.34  1.0000
  -4   8   2  186724    1991                                                      185155    0.69   -1.23  1.0000
  -2   8   2   11538     269                                                       11387    0.43    0.67  1.0000
   0   8   2     178     106                                                         164    0.40    0.00  1.0000
   2   8   2   11668     251                                                       11518    0.42   -0.66  1.0000
   4   8   2  187916    2000                                                      186342    0.67    1.24  1.0000
   6   8   2   13850     332                                                       14501   -0.55   -2.31  1.0000
   8   8   2  213724    3122                                                      215279   -0.59    1.21  1.0000
  -7   9   2   63436    1064                                                       61827   -0.65   -2.47  1.0000
  -5   9   2   92345    1334                                                       90550   -0.53    2.20  1.0000
  -3   9   2   37687     546                                                       36965    0.97    1.09  1.0000
  -1   9   2   31619     503                                                       30478    0.06   -4.20  1.0000
   1   9   2   31305     440                                                       30169    0.06    4.20  1.0000
   3   9   2   37854     527                                                       37133    0.96   -1.09  1.0000
   5   9   2   91206    1116                                                       89429   -0.54   -2.18  1.0000
   7   9   2   62157    1081                                                       60559   -0.65    2.49  1.0000
  -6  10   2  155453    2396                                                      155916   -0.77   -2.20  1.0000
  -4  10   2   13032     407                                                       13389   -0.01    2.75  1.0000
  -2  10   2   36516     647                                                       37314    0.32   -1.56  1.0000
   0  10   2     626     172                                                         642    0.24    0.00  1.0000
   2  10   2   36703     566                                                       37510    0.32    1.58  1.0000
   4  10   2   12929     385                                                       13279    0.00   -2.73  1.0000
   6  10   2  152553    2116                                                      153005   -0.76    2.20  1.0000
  -5  11   2    7005     369                                                        6888   -0.22   -0.83  1.0000
  -3  11   2  123600    1902                                                      124361   -0.32    0.88  1.0000
  -1  11   2   28534     596                                                       28847    0.49    0.77  1.0000
   1  11   2   29167     586                                                       29477    0.50   -0.76  1.0000
   3  11   2  127482    1624                                                      128241   -0.30   -0.88  1.0000
   5  11   2    7159     388                                                        7043   -0.20    0.83  1.0000
  -4  12   2   57395    1255                                                       57656   -0.14   -0.60  1.0000
  -2  12   2    5086     327                                                        4965   -0.45    1.02  1.0000
   0  12   2   90201    1289                                                       89572    0.79    0.00  1.0000
   2  12   2    4695     305                                                        4578   -0.45   -1.03  1.0000
   4  12   2   57929    1148                                                       58188   -0.14    0.60  1.0000
   0   1   3  250017    2521                                                      241006    6.84    0.00  1.0000
  -1   2   3    6145      74                                                        2799   -2.21  -23.97  1.0000
   1   2   3    6157      69                                                        2805   -2.20   23.98  1.0000
  -2   3   3  232515    2259                                                      220550    8.51    4.48  1.0000
   0   3   3  420502    4628                                                      443195  -12.99    0.01  1.0000
   2   3   3  232652    2214                                                      220688    8.51   -4.45  1.0000
  -3   4   3   30352     399                                                       29106    0.69   -2.63  1.0000
  -1   4   3  100029    1143                                                      113536   -1.24   16.74  1.0000
   1   4   3   99568    1103                                                      113026   -1.24  -16.72  1.0000
   3   4   3   30297     392                                                       29038    0.70    2.66  1.0000
  -4   5   3  333095    3442                                                      334381   -0.38   -5.17  1.0000
  -2   5   3  164363    1721                                                      166651   -6.21    5.48  1.0000
   0   5   3   63361     718                                                       70276   10.07    0.01  1.0000
   2   5   3  165600    1681                                                      167901   -6.21   -5.47  1.0000
   4   5   3  328029    3218                                                      329313   -0.39    5.18  1.0000
  -5   6   3    7218     228                                                        7950    1.80    2.86  1.0000
  -3   6   3   66062     725                                                       63820   -4.67    1.44  1.0000
  -1   6   3  813182    7770                                                      805750    3.38   -5.41  1.0000
   1   6   3  821720    7032                                                      814262    3.37    5.40  1.0000
   3   6   3   66137     735                                                       63886   -4.69   -1.44  1.0000
   5   6   3    7356     225                                                        8091    1.79   -2.84  1.0000
  -6   7   3   78807     951                                                       80941   -2.29   -2.61  1.0000
  -4   7   3  374126    3949                                                      372890    0.32    6.33  1.0000
  -2   7   3   15159     278                                                       14256    0.88   -5.18  1.0000
   0   7   3  182172    1734                                                      180557   -1.43   -0.01  1.0000
   2   7   3   15770     250                                                       14853    0.87    5.18  1.0000
   4   7   3  373151    3911                                                      371922    0.32   -6.34  1.0000
   6   7   3   78285     936                                                       80417   -2.30    2.60  1.0000
  -7   8   3   41000     678                                                       40815    0.32   -0.44  1.0000
  -5   8   3   37086     592                                                       38110   -2.41    0.03  1.0000
  -3   8   3   43333     555                                                       42290    2.95    0.54  1.0000
  -1   8   3  131290    1431                                                      133141   -2.17   -0.31  1.0000
   1   8   3  131808    1374                                                      133661   -2.16    0.32  1.0000
   3   8   3   43475     555                                                       42423    2.96   -0.55  1.0000
   5   8   3   35107     547                                                       36105   -2.41   -0.04  1.0000
   7   8   3   40176     651                                                       39986    0.33    0.43  1.0000
  -8   9   3   14176     568                                                       13528    2.04   -0.44  1.0000
  -6   9   3    6110     266                                                        5831   -0.50    1.30  1.0000
  -4   9   3    5375     225                                                        5125   -0.18   -2.88  1.0000
  -2   9   3  111941    1291                                                      113660   -0.18    3.07  1.0000
   0   9   3  260988    2637                                                      261781   -0.58    0.01  1.0000
   2   9   3  111901    1188                                                      113616   -0.17   -3.08  1.0000
   4   9   3    5166     231                                                        4923   -0.17    2.87  1.0000
   6   9   3    6100     267                                                        5818   -0.48   -1.32  1.0000
   8   9   3   12897     510                                                       12279    2.04    0.41  1.0000
  -7  10   3   19933     555                                                       19346    1.49    0.65  1.0000
  -5  10   3  182655    2571                                                      182264    0.35   -0.01  1.0000
  -3  10   3  214688    2569                                                      216287   -1.38   -1.65  1.0000
  -1  10   3   82235    1173                                                       81898    0.50    3.26  1.0000
   1  10   3   83108     991                                                       82764    0.50   -3.28  1.0000
   3  10   3  220486    2389                                                      222113   -1.38    1.64  1.0000
   5  10   3  180327    2280                                                      179934    0.35   -0.01  1.0000
   7  10   3   18065     574                                                       17507    1.48   -0.68  1.0000
  -6  11   3   52912    1090                                                       52095    1.34   -0.13  1.0000
  -4  11   3   29502     701                                                       29423   -0.19    0.00  1.0000
  -2  11   3   19499     529                                                       19734   -0.41   -0.67  1.0000
   0  11   3  345998    4009                                                      345703    0.19   -0.01  1.0000
   2  11   3   20200     475                                                       20439   -0.42    0.65  1.0000
   4  11   3   29415     640                                                       29326   -0.20   -0.03  1.0000
   6  11   3   54900    1081                                                       54078    1.33    0.11  1.0000
  -3  12   3  133562    1948                                                      133319    0.34    0.47  1.0000
  -1  12   3   21219     574                                                       21006   -0.38   -1.42  1.0000
   1  12   3   21235     571                                                       21026   -0.38    1.41  1.0000
   3  12   3  134875    1828                                                      134636    0.34   -0.48  1.0000
   0   0   4   77501    2724                                                       99404  -27.76    0.00  1.0000
   1   1   4  289441    3008                                                      314771   -5.51  -16.62  1.0000
   0   2   4   38326     362                                                       30482   15.94    0.01  1.0000
   2   2   4  749690    7324                                                      736084   -9.59   -7.27  1.0000
  -1   3   4  303333    3021                                                      292081   10.13   -3.19  1.0000
   1   3   4  301288    2645                                                      290068   10.14    3.19  1.0000
   3   3   4  186241    2196                                                      202559  -17.89    0.12  1.0000
  -2   4   4   95378    1023                                                       97322   -1.85   -4.65  1.0000
   0   4   4    5989     126                                                        5066    4.67   -0.02  1.0000
   2   4   4   96275    1005                                                       98240   -1.86    4.64  1.0000
   4   4   4  374969    3776                                                      377622   -0.01   -1.70  1.0000
  -3   5   4  250079    2473                                                      246942   10.53   -1.49  1.0000
  -1   5   4   54264     616                                                       57104   -6.10   -0.50  1.0000
   1   5   4   53683     599                                                       56499   -6.10    0.48  1.0000
   3   5   4  247824    2602                                                      244684   10.52    1.48  1.0000
   5   5   4   92013    1025                                                       92736   -5.57   -1.92  1.0000
  -4   6   4   36858     503                                                       36459    0.61   -0.50  1.0000
  -2   6   4  119501    1351                                                      116725    5.72    0.07  1.0000
   0   6   4   28206     412                                                       33869  -12.10    0.00  1.0000
   2   6   4  121109    1180                                                      118321    5.72   -0.08  1.0000
   4   6   4   36065     495                                                       35674    0.61    0.48  1.0000
   6   6   4   45204     601                                                       46232   -1.64    0.85  1.0000
  -5   7   4  166344    1791                                                      163840    1.05   -2.07  1.0000
  -3   7   4   19884     324                                                       20491   -2.23   -0.18  1.0000
  -1   7   4   56083     687                                                       55475    0.63    0.74  1.0000
   1   7   4   55288     602                                                       54681    0.64   -0.74  1.0000
   3   7   4   20219     318                                                       20831   -2.22    0.17  1.0000
   5   7   4  166500    1761                                                      163998    1.07    2.05  1.0000
   7   7   4   56206     784                                                       55118    2.08   -0.62  1.0000
  -6   8   4   36300     596                                                       35135    3.56   -0.29  1.0000
  -4   8   4  287053    3135                                                      289637   -1.37   -1.53  1.0000
  -2   8   4   36747     545                                                       38547   -3.65    0.60  1.0000
   0   8   4   44091     501                                                       40177    7.17   -0.01  1.0000
   2   8   4   36942     482                                                       38746   -3.65   -0.61  1.0000
   4   8   4  291597    3342                                                      294186   -1.37    1.52  1.0000
   6   8   4   35661     565                                                       34503    3.55    0.28  1.0000
   8   8   4  356623    4414                                                      359910   -3.42   -1.32  1.0000
  -7   9   4   93613    1333                                                       93676   -1.97    0.58  1.0000
  -5   9   4  187202    2323                                                      185809    2.05   -0.75  1.0000
  -3   9   4   63385     908                                                       64507   -1.91    0.43  1.0000
  -1   9   4   53283     669                                                       53542    1.09   -1.81  1.0000
   1   9   4   53821     652                                                       54079    1.08    1.79  1.0000
   3   9   4   63804     794                                                       64935   -1.91   -0.44  1.0000
   5   9   4  186210    2302                                                      184831    2.03    0.75  1.0000
   7   9   4   91567    1358                                                       91638   -1.98   -0.57  1.0000
  -6  10   4   26341     586                                                       26984   -1.64   -0.01  1.0000
  -4  10   4   22926     528                                                       22524    0.65    0.89  1.0000
  -2  10   4   71950     951                                                       70657    1.47   -1.39  1.0000
   0  10   4   12280     355                                                       13098   -2.73    0.00  1.0000
   2  10   4   71829     920                                                       70537    1.47    1.40  1.0000
   4  10   4   23226     471                                                       22823    0.64   -0.89  1.0000
   6  10   4   26157     629                                                       26803   -1.64    0.02  1.0000
  -5  11   4   20512     733                                                       20960   -1.83    0.89  1.0000
  -3  11   4   89906    1322                                                       89363    1.72    0.02  1.0000
  -1  11   4   44089     774                                                       44417   -0.66   -0.29  1.0000
   1  11   4   44001     761                                                       44338   -0.65    0.31  1.0000
   3  11   4   91599    1267                                                       91058    1.72   -0.01  1.0000
   5  11   4   19089     625                                                       19523   -1.83   -0.86  1.0000
  -2  12   4   19832     564                                                       19966    0.08    0.48  1.0000
   0  12   4   26057     661                                                       25821    0.55    0.02  1.0000
   2  12   4   19276     613                                                       19399    0.08   -0.46  1.0000
   0   1   5   69261     842                                                       76645   10.29   -0.01  1.0000
  -1   2   5  101692    1111                                                      108306   -7.08    3.25  1.0000
   1   2   5   99188    1144                                                      105739   -7.09   -3.28  1.0000
  -2   3   5   30533     430                                                       35225   11.04   -1.69  1.0000
   0   3   5  104126     887                                                       86176  -21.92   -0.02  1.0000
   2   3   5   30283     404                                                       34945   11.03    1.67  1.0000
  -3   4   5  105426    1215                                                      105878    2.80    3.55  1.0000
  -1   4   5   27687     415                                                       24391   -2.23   -7.73  1.0000
   1   4   5   32547     354                                                       28970   -2.22    7.72  1.0000
   3   4   5  104017    1132                                                      104472    2.80   -3.56  1.0000
  -4   5   5  111093    1199                                                      109659   -1.42    0.82  1.0000
  -2   5   5  148265    1459                                                      146583   -6.09   -1.77  1.0000
   0   5   5  211988    1920                                                      197136   12.36    0.01  1.0000
   2   5   5  147845    1454                                                      146175   -6.08    1.77  1.0000
   4   5   5  112144    1239                                                      110711   -1.41   -0.83  1.0000
  -5   6   5   64780     742                                                       62678    2.97   -1.04  1.0000
  -3   6   5  168689    1853                                                      175447   -6.29   -1.10  1.0000
  -1   6   5  307520    2979                                                      315694    5.20    3.87  1.0000
   1   6   5  306599    2973                                                      314766    5.20   -3.86  1.0000
   3   6   5  167971    1686                                                      174711   -6.28    1.11  1.0000
   5   6   5   64829     786                                                       62727    2.96    1.04  1.0000
  -6   7   5   14006     331                                                       13413   -1.38    1.37  1.0000
  -4   7   5  176380    1855                                                      177283    0.69   -1.57  1.0000
  -2   7   5   55065     689                                                       56796    1.65    2.73  1.0000
   0   7   5  337856    3160                                                      340027   -1.40    0.00  1.0000
   2   7   5   56194     657                                                       57938    1.64   -2.72  1.0000
   4   7   5  175729    1919                                                      176619    0.68    1.59  1.0000
   6   7   5   14050     342                                                       13457   -1.39   -1.36  1.0000
  -7   8   5    9189     350                                                        9335    0.44    0.38  1.0000
  -5   8   5    4433     235                                                        4828   -1.99    1.41  1.0000
  -3   8   5   54010     670                                                       52524    4.96    0.20  1.0000
  -1   8   5   47776     566                                                       47438   -2.98   -0.34  1.0000
   1   8   5   47992     581                                                       47661   -2.98    0.36  1.0000
   3   8   5   54379     633                                                       52895    4.95   -0.18  1.0000
   5   8   5    4521     216                                                        4917   -2.00   -1.38  1.0000
   7   8   5    8592     323                                                        8728    0.45   -0.35  1.0000
  -8   9   5    2344     278                                                        1943    1.30   -2.99  1.0000
  -6   9   5   35850     656                                                       36060   -1.10    0.87  1.0000
  -4   9   5   44878     721                                                       44044    1.18    1.63  1.0000
  -2   9   5   90465    1097                                                       89718    0.73   -1.28  1.0000
   0   9   5  126672    1310                                                      124732   -2.06    0.02  1.0000
   2   9   5   90597    1015                                                       89834    0.74    1.30  1.0000
   4   9   5   45878     704                                                       45035    1.19   -1.61  1.0000
   6   9   5   36290     711                                                       36505   -1.09   -0.84  1.0000
   8   9   5    2385     298                                                        1978    1.32    3.01  1.0000
  -7  10   5    5082     332                                                        5366   -0.07   -1.82  1.0000
  -5  10   5   94125    1613                                                       94867    0.68    0.81  1.0000
  -3  10   5   78938    1100                                                       78191   -1.04   -0.29  1.0000
  -1  10   5  171675    1971                                                      170672    0.84    0.63  1.0000
   1  10   5  170598    1936                                                      169596    0.85   -0.61  1.0000
   3  10   5   80552    1015                                                       79806   -1.04    0.32  1.0000
   5  10   5   94721    1359                                                       95477    0.70   -0.80  1.0000
   7  10   5    5062     357                                                        5346   -0.07    1.82  1.0000
  -4  11   5   69372    1195                                                       69419    0.09   -0.38  1.0000
  -2  11   5   11902     386                                                       11802   -1.38    0.58  1.0000
   0  11   5  180554    2375                                                      182855    2.03    0.00  1.0000
   2  11   5   11580     392                                                       11480   -1.37   -0.58  1.0000
   4  11   5   70341    1113                                                       70390    0.09    0.38  1.0000
  -3  12   5   74080    1355                                                       73975   -0.28    0.19  1.0000
  -1  12   5    6628     348                                                        6578   -0.22   -0.25  1.0000
   1  12   5    6434     343                                                        6387   -0.21    0.24  1.0000
   3  12   5   73062    1289                                                       72963   -0.29   -0.21  1.0000
   0   0   6  671125   11872                                                      655223   -7.35   -0.01  1.0000
   1   1   6   86675    1093                                                       94669   -2.02   13.55  1.0000
   0   2   6  106864    1170                                                      109553    3.08    0.00  1.0000
   2   2   6  437235    4190                                                      422687    1.02    8.79  1.0000
  -1   3   6  434836    4219                                                      441165    5.38    5.32  1.0000
   1   3   6  437359    4094                                                      443733    5.39   -5.29  1.0000
   3   3   6   43058     572                                                       43096   -7.76    2.11  1.0000
  -2   4   6   55558     621                                                       52749   -4.07   10.83  1.0000
   0   4   6  119459    1167                                                      113731    6.31    0.02  1.0000
   2   4   6   55844     597                                                       53029   -4.07  -10.81  1.0000
   4   4   6  471177    5107                                                      482851    1.43    9.14  1.0000
  -3   5   6  106885    1058                                                      105482    3.31   -0.15  1.0000
  -1   5   6  193181    1881                                                      191561   -2.82    5.95  1.0000
   1   5   6  193878    1948                                                      192247   -2.83   -5.94  1.0000
   3   5   6  106915    1124                                                      105510    3.29    0.16  1.0000
   5   5   6   70507     885                                                       69964   -0.84    0.28  1.0000
  -4   6   6   74941     884                                                       74304   -0.11    4.42  1.0000
  -2   6   6  195260    2006                                                      200677    2.96   -4.40  1.0000
   0   6   6   13225     216                                                       11020   -7.54    0.00  1.0000
   2   6   6  198634    2022                                                      204092    2.95    4.41  1.0000
   4   6   6   74494     924                                                       73859   -0.11   -4.42  1.0000
   6   6   6  178695    1981                                                      177911    0.69    0.12  1.0000
  -5   7   6  274951    2955                                                      273909    0.33    2.22  1.0000
  -3   7   6    4532     171                                                        4480   -0.21    0.30  1.0000
  -1   7   6   19459     311                                                       17696   -0.40   -6.08  1.0000
   1   7   6   19293     289                                                       17535   -0.40    6.08  1.0000
   3   7   6    4794     177                                                        4743   -0.20   -0.29  1.0000
   5   7   6  275489    3020                                                      274463    0.35   -2.21  1.0000
   7   7   6  273152    3292                                                      270384   -1.14    3.00  1.0000
  -6   8   6    7645     283                                                        7168   -0.65   -1.98  1.0000
  -4   8   6  127962    1525                                                      127544   -0.31   -0.32  1.0000
  -2   8   6   54945     712                                                       53854   -1.82    0.08  1.0000
   0   8   6   11386     285                                                       12609    4.20    0.01  1.0000
   2   8   6   55154     661                                                       54071   -1.81   -0.09  1.0000
   4   8   6  132102    1523                                                      131680   -0.31    0.32  1.0000
   6   8   6    7953     303                                                        7470   -0.63    1.97  1.0000
   8   8   6  124121    1758                                                      121461   -0.86   -2.72  1.0000
  -7   9   6   35054     795                                                       36312    0.59    2.67  1.0000
  -5   9   6   86644    1312                                                       89100   -0.23   -3.11  1.0000
  -3   9   6   49216     724                                                       48250   -1.61    0.45  1.0000
  -1   9   6   85066     986                                                       86772    1.27    2.69  1.0000
   1   9   6   84149     958                                                       85855    1.27   -2.71  1.0000
   3   9   6   49707     651                                                       48730   -1.61   -0.48  1.0000
   5   9   6   86007    1230                                                       88441   -0.23    3.09  1.0000
   7   9   6   35492     768                                                       36767    0.59   -2.69  1.0000
  -6  10   6  255042    3653                                                      256451    0.99    1.36  1.0000
  -4  10   6   23730     559                                                       23000   -1.40   -1.64  1.0000
  -2  10   6   21426     481                                                       20862    1.15    1.36  1.0000
   0  10   6    8455     292                                                        8108   -1.43   -0.02  1.0000
   2  10   6   21103     433                                                       20539    1.13   -1.38  1.0000
   4  10   6   23512     591                                                       22792   -1.39    1.61  1.0000
   6  10   6  250801    3484                                                      252176    0.97   -1.38  1.0000
  -5  11   6    4095     365                                                        4205   -0.98    0.89  1.0000
  -3  11   6  112914    1490                                                      113660    0.95    0.02  1.0000
  -1  11   6   18060     565                                                       17795   -0.33   -0.71  1.0000
   1  11   6   17713     498                                                       17454   -0.34    0.69  1.0000
   3  11   6  115307    1651                                                      116061    0.94   -0.03  1.0000
   5  11   6    2844     390                                                        2937   -0.99   -0.91  1.0000
  -2  12   6   14039     630                                                       14182    0.31   -0.34  1.0000
   0  12   6  171539    2591                                                      171787    0.23    0.00  1.0000
   2  12   6   14459     568                                                       14602    0.32    0.32  1.0000
   0   1   7   10749     226                                                       10713   -0.13    0.02  1.0000
  -1   2   7  178426    1669                                                      172850    1.13   11.36  1.0000
   1   2   7  181798    1680                                                      176192    1.13  -11.33  1.0000
  -2   3   7  225727    2169                                                      220634   -2.31   -3.34  1.0000
   0   3   7    1269      87                                                        1489    2.23   -0.01  1.0000
   2   3   7  228739    2235                                                      223599   -2.32    3.34  1.0000
  -3   4   7  231548    2237                                                      229766    1.15    2.69  1.0000
  -1   4   7  334614    3542                                                      353014   -0.83  -14.03  1.0000
   1   4   7  333217    3346                                                      351543   -0.84   14.01  1.0000
   3   4   7  228543    2260                                                      226768    1.14   -2.69  1.0000
  -4   5   7   79420     963                                                       80584   -0.42    1.95  1.0000
  -2   5   7  364310    3534                                                      357381    2.42   -5.21  1.0000
   0   5   7  129742    1293                                                      127421   -2.44    0.00  1.0000
   2   5   7  363904    3364                                                      357007    2.42    5.20  1.0000
   4   5   7   79528     962                                                       80698   -0.43   -1.96  1.0000
  -5   6   7   72914     857                                                       72256   -2.49   -1.64  1.0000
  -3   6   7   84670     974                                                       85752    0.60   -1.45  1.0000
  -1   6   7    6035     165                                                        5101    0.78    5.54  1.0000
   1   6   7    6257     166                                                        5304    0.79   -5.55  1.0000
   3   6   7   85980     986                                                       87066    0.61    1.43  1.0000
   5   6   7   73848     914                                                       73175   -2.49    1.62  1.0000
  -6   7   7   44540     701                                                       45294    1.49    0.38  1.0000
  -4   7   7   11006     302                                                       10253   -1.53   -2.52  1.0000
  -2   7   7  182739    1850                                                      177291   -0.52    5.35  1.0000
   0   7   7  142530    1518                                                      144230    1.69   -0.01  1.0000
   2   7   7  188277    1918                                                      182730   -0.53   -5.37  1.0000
   4   7   7   10807     287                                                       10066   -1.52    2.50  1.0000
   6   7   7   45425     757                                                       46197    1.49   -0.41  1.0000
  -7   8   7   29402     663                                                       29880    1.62    0.26  1.0000
  -5   8   7   57822     871                                                       58489    1.57    0.06  1.0000
  -3   8   7  195831    2175                                                      196142   -1.72    1.11  1.0000
  -1   8   7  294332    3023                                                      293698    0.01   -0.48  1.0000
   1   8   7  292165    2850                                                      291553    0.00    0.46  1.0000
   3   8   7  200432    2096                                                      200763   -1.73   -1.13  1.0000
   5   8   7   58601     904                                                       59264    1.57   -0.07  1.0000
   7   8   7   30103     687                                                       30580    1.62   -0.27  1.0000
  -8   9   7   18129     644                                                       17963   -1.51   -1.86  1.0000
  -6   9   7   76889    1366                                                       76850   -0.29    0.18  1.0000
  -4   9   7   67585    1097                                                       68750    1.60    1.64  1.0000
  -2   9   7  328620    3855                                                      332337   -0.87   -2.65  1.0000
   0   9   7      15     155                                                          11   -0.45    0.00  1.0000
   2   9   7  332785    3826                                                      336508   -0.87    2.64  1.0000
   4   9   7   68101    1032                                                       69256    1.58   -1.64  1.0000
   6   9   7   77266    1244                                                       77219   -0.28   -0.16  1.0000
   8   9   7   17643     625                                                       17480   -1.51    1.86  1.0000
  -7  10   7    9393    3497                                                        8515   -2.71   -2.21  1.0000
  -5  10   7   42619     878                                                       41827    0.00    1.53  1.0000
  -3  10   7    5218     264                                                        5440    1.36   -0.83  1.0000
  -1  10   7  101377    1338                                                      100545   -0.72   -0.81  1.0000
   1  10   7  103206    1301                                                      102366   -0.72    0.81  1.0000
   3  10   7    5351     256                                                        5575    1.36    0.85  1.0000
   5  10   7   42635     818                                                       41845    0.01   -1.52  1.0000
   7  10   7   16166    4011                                                       15004   -2.71    2.22  1.0000
  -4  11   7   90770    1565                                                       90887    0.20    0.02  1.0000
  -2  11   7   52358     918                                                       52348   -0.20    0.11  1.0000
   0  11   7     322     251                                                         334   -0.24    0.01  1.0000
   2  11   7   50557     847                                                       50535   -0.20   -0.09  1.0000
   4  11   7   89454    1411                                                       89571    0.22    0.00  1.0000
  -1  12   7   52164    1110                                                       51846   -0.20    0.50  1.0000
   1  12   7   52439    1145                                                       52141   -0.19   -0.47  1.0000
   0   0   8 1047781   18088                                                      999900   17.80    0.00  1.0000
   1   1   8  498369    4448                                                      500580    0.78    3.67  1.0000
   0   2   8   33161     544                                                       40757  -14.88   -0.01  1.0000
   2   2   8   50956     674                                                       55421   10.17    6.02  1.0000
  -1   3   8  228958    2359                                                      234188   -4.01   -0.88  1.0000
   1   3   8  225027    2453                                                      230210   -4.01    0.86  1.0000
   3   3   8   26706     393                                                       29313    7.57   -1.41  1.0000
  -2   4   8   31509     419                                                       30764   -3.93    6.58  1.0000
   0   4   8  591360    5840                                                      600479    4.44   -0.01  1.0000
   2   4   8   31681     421                                                       30934   -3.93   -6.59  1.0000
   4   4   8  128416    1281                                                      125347    3.10    4.13  1.0000
  -3   5   8  170260    1689                                                      164419   -5.27   -1.02  1.0000
  -1   5   8   28028     390                                                       27299    2.62    6.06  1.0000
   1   5   8   28113     386                                                       27378    2.63   -6.06  1.0000
   3   5   8  169980    1638                                                      164143   -5.28    1.01  1.0000
   5   5   8    5081     198                                                        5179    3.88   -0.50  1.0000
  -4   6   8   12687     298                                                       13023   -1.39    1.07  1.0000
  -2   6   8   60314     705                                                       60676   -0.14   -2.40  1.0000
   0   6   8    7563     213                                                        7699    0.59    0.01  1.0000
   2   6   8   61012     732                                                       61371   -0.13    2.39  1.0000
   4   6   8   13054     327                                                       13399   -1.41   -1.07  1.0000
   6   6   8  451253    4484                                                      457779    3.63    0.47  1.0000
  -5   7   8   88038    1085                                                       87738    0.42   -0.36  1.0000
  -3   7   8   67244     777                                                       69077    2.61   -0.97  1.0000
  -1   7   8   45870     595                                                       45472   -1.50   -4.61  1.0000
   1   7   8   45922     572                                                       45517   -1.51    4.61  1.0000
   3   7   8   68225     837                                                       70074    2.61    0.99  1.0000
   5   7   8   88144    1090                                                       87846    0.41    0.37  1.0000
   7   7   8  123901    1678                                                      127104   -3.39   -0.94  1.0000
  -6   8   8   23373     566                                                       21849   -3.76    1.01  1.0000
  -4   8   8    8241     307                                                        7991    2.34   -0.87  1.0000
  -2   8   8    2799     163                                                        2846    0.99   -1.10  1.0000
   0   8   8    5494     200                                                        5100   -2.04    0.00  1.0000
   2   8   8    2632     182                                                        2680    0.99    1.12  1.0000
   4   8   8    8043     302                                                        7791    2.35    0.89  1.0000
   6   8   8   23751     554                                                       22215   -3.76   -0.99  1.0000
   8   8   8    9628     432                                                        9805    1.08    0.10  1.0000
  -7   9   8   46777     960                                                       47925    1.91    0.77  1.0000
  -5   9   8   59908    1090                                                       59021   -1.35    0.26  1.0000
  -3   9   8    1833     215                                                        1813    0.16   -0.21  1.0000
  -1   9   8   13908     382                                                       13798    0.27    1.63  1.0000
   1   9   8   14111     381                                                       13994    0.29   -1.60  1.0000
   3   9   8    1911     177                                                        1891    0.16    0.22  1.0000
   5   9   8   59828    1021                                                       58943   -1.35   -0.23  1.0000
   7   9   8   47317     973                                                       48481    1.92   -0.77  1.0000
  -6  10   8  188369    2710                                                      185670    2.39    0.35  1.0000
  -4  10   8    3987     367                                                        3671   -1.96   -0.41  1.0000
  -2  10   8   57754     930                                                       57772    0.13    0.86  1.0000
   0  10   8    6222     295                                                        6392    0.81    0.01  1.0000
   2  10   8   57826     900                                                       57848    0.13   -0.85  1.0000
   4  10   8    4406     300                                                        4074   -1.96    0.42  1.0000
   6  10   8  192346    2781                                                      189614    2.39   -0.35  1.0000
  -3  11   8   45498     890                                                       45914   -0.67    0.53  1.0000
  -1  11   8    4536     314                                                        4580    0.55   -0.59  1.0000
   1  11   8    4636     301                                                        4678    0.53    0.58  1.0000
   3  11   8   44946     821                                                       45354   -0.67   -0.51  1.0000
   0  12   8  113255    1936                                                      112884    0.41   -0.01  1.0000
   0   1   9   52014     723                                                       55515   -5.68   -0.01  1.0000
  -1   2   9    5506     164                                                        5499    4.09   -0.09  1.0000
   1   2   9    5237     188                                                        5227    4.11    0.10  1.0000
  -2   3   9  245266    2534                                                      251700   -7.39    0.75  1.0000
   0   3   9  199580    1980                                                      185342   12.21    0.01  1.0000
   2   3   9  248532    2618                                                      255009   -7.37   -0.73  1.0000
  -3   4   9  133848    1385                                                      133611   -0.48   -0.29  1.0000
  -1   4   9  193047    1936                                                      191852    0.09   -1.03  1.0000
   1   4   9  189386    1848                                                      188192    0.08    1.04  1.0000
   3   4   9  134486    1343                                                      134222   -0.48    0.32  1.0000
  -4   5   9  140929    1423                                                      141413    0.32   -1.17  1.0000
  -2   5   9  267576    2659                                                      266429    4.79   -1.41  1.0000
   0   5   9   13105     243                                                       10698   -8.31    0.01  1.0000
   2   5   9  267077    2601                                                      265960    4.78    1.42  1.0000
   4   5   9  142617    1468                                                      143117    0.32    1.20  1.0000
  -5   6   9   18091     392                                                       18958   -2.29    2.66  1.0000
  -3   6   9   44656     560                                                       45305    2.88    0.16  1.0000
  -1   6   9  132957    1376                                                      134397   -1.55   -0.03  1.0000
   1   6   9  136845    1484                                                      138289   -1.54    0.04  1.0000
   3   6   9   44564     566                                                       45211    2.88   -0.16  1.0000
   5   6   9   17682     396                                                       18530   -2.30   -2.63  1.0000
  -6   7   9   50526     787                                                       50786    1.33   -2.23  1.0000
  -4   7   9  114065    1304                                                      114780   -1.22    3.61  1.0000
  -2   7   9  108354    1169                                                      109963   -1.55    1.33  1.0000
   0   7   9   57902     731                                                       60134    3.46    0.01  1.0000
   2   7   9  108378    1224                                                      109983   -1.55   -1.32  1.0000
   4   7   9  113279    1385                                                      113987   -1.21   -3.61  1.0000
   6   7   9   49543     791                                                       49799    1.33    2.23  1.0000
  -7   8   9   16754     543                                                       16451    0.89   -0.28  1.0000
  -5   8   9   42182     801                                                       40976    1.24   -1.92  1.0000
  -3   8   9  128043    1457                                                      126029   -2.99    2.80  1.0000
  -1   8   9  251547    2515                                                      250027    1.89    0.35  1.0000
   1   8   9  251747    2432                                                      250229    1.88   -0.36  1.0000
   3   8   9  130163    1516                                                      128140   -2.98   -2.79  1.0000
   5   8   9   42524     751                                                       41320    1.26    1.90  1.0000
   7   8   9   16699     563                                                       16402    0.88    0.27  1.0000
  -6   9   9   27604     735                                                       27844   -0.11   -0.53  1.0000
  -4   9   9    1045     207                                                         981    0.59   -1.74  1.0000
  -2   9   9  220964    2820                                                      222488   -0.10    1.25  1.0000
   0   9   9  113489    1397                                                      113202    0.32    0.00  1.0000
   2   9   9  219669    2475                                                      221200   -0.09   -1.26  1.0000
   4   9   9     671     229                                                         620    0.58    1.73  1.0000
   6   9   9   28638     724                                                       28881   -0.11    0.53  1.0000
  -5  10   9   87605    1469                                                       88353   -0.46    0.96  1.0000
  -3  10   9   41336     823                                                       40516    1.70   -1.25  1.0000
  -1  10   9   23801     580                                                       23278   -0.77    1.03  1.0000
   1  10   9   22863     524                                                       22347   -0.76   -1.05  1.0000
   3  10   9   41412     784                                                       40596    1.68    1.23  1.0000
   5  10   9   89893    1453                                                       90659   -0.48   -0.96  1.0000
  -4  11   9   39072    1056                                                       38568    0.03    1.02  1.0000
  -2  11   9   22022     640                                                       22113    0.38   -0.42  1.0000
   0  11   9   98438    1350                                                       99021   -0.70   -0.01  1.0000
   2  11   9   22928     597                                                       23021    0.36    0.41  1.0000
   4  11   9   39862    1023                                                       39349    0.04   -1.03  1.0000
   0   0  10  230623    4744                                                      246980   12.59    0.02  1.0000
   1   1  10  427257    4242                                                      435079    2.10  -13.75  1.0000
   0   2  10   28249     482                                                       31732   -7.57    0.01  1.0000
   2   2  10  626520    6005                                                      614081    5.42   -3.71  1.0000
  -1   3  10  154852    1549                                                      147312   -3.09   -6.99  1.0000
   1   3  10  156035    1533                                                      148462   -3.07    6.99  1.0000
   3   3  10  114505    1281                                                      112874    5.82   -4.21  1.0000
  -2   4  10   75995     900                                                       77131   -0.94   -3.19  1.0000
   0   4  10  408911    3969                                                      407126    1.05   -0.01  1.0000
   2   4  10   77409     896                                                       78559   -0.94    3.20  1.0000
   4   4  10   89909    1044                                                       93855    1.46   -4.96  1.0000
  -3   5  10  263015    2682                                                      267109   -2.93   -1.14  1.0000
  -1   5  10   11419     252                                                       10327    2.29    3.23  1.0000
   1   5  10   11289     248                                                       10202    2.28   -3.24  1.0000
   3   5  10  263706    2594                                                      267806   -2.93    1.15  1.0000
   5   5  10   98400    1075                                                       96882    0.51   -1.88  1.0000
  -4   6  10   16466     339                                                       16148   -1.50   -3.20  1.0000
  -2   6  10   59405     734                                                       60979   -0.06    2.42  1.0000
   0   6  10   71636     813                                                       70340    1.83    0.00  1.0000
   2   6  10   59004     729                                                       60587   -0.05   -2.44  1.0000
   4   6  10   16890     328                                                       16572   -1.50    3.18  1.0000
   6   6  10  244383    2847                                                      244013    0.30    0.12  1.0000
  -5   7  10   61686     936                                                       59972   -0.39   -2.63  1.0000
  -3   7  10  104043    1121                                                      102931    1.01   -1.37  1.0000
  -1   7  10   71888     854                                                       72574   -0.87   -0.50  1.0000
   1   7  10   72791     883                                                       73473   -0.86    0.49  1.0000
   3   7  10  106760    1211                                                      105637    1.01    1.35  1.0000
   5   7  10   61884     938                                                       60171   -0.39    2.63  1.0000
   7   7  10   20152     563                                                       18877   -0.35   -3.66  1.0000
  -6   8  10   48486     921                                                       48344   -0.36    2.50  1.0000
  -4   8  10  172584    2030                                                      172452    0.81   -0.17  1.0000
  -2   8  10   15415     394                                                       15179   -0.07   -2.64  1.0000
   0   8  10   35186     568                                                       36091   -1.80   -0.02  1.0000
   2   8  10   16266     403                                                       16029   -0.08    2.63  1.0000
   4   8  10  173540    2206                                                      173395    0.81    0.16  1.0000
   6   8  10   48978     901                                                       48841   -0.37   -2.52  1.0000
   8   8  10  196402    2977                                                      194102    0.52    1.89  1.0000
  -7   9  10   96922    1782                                                       97213    0.43   -1.03  1.0000
  -5   9  10  158351    2170                                                      160180    0.17    2.63  1.0000
  -3   9  10   27655     606                                                       27710   -0.59   -0.57  1.0000
  -1   9  10   13010     417                                                       13321   -0.17   -1.24  1.0000
   1   9  10   12829     415                                                       13136   -0.18    1.22  1.0000
   3   9  10   27614     561                                                       27674   -0.59    0.56  1.0000
   5   9  10  158808    2334                                                      160651    0.16   -2.64  1.0000
   7   9  10   92813    1613                                                       93100    0.42    1.03  1.0000
  -4  10  10   21983     674                                                       22069   -0.62    0.46  1.0000
  -2  10  10  100095    1561                                                      100105   -0.07   -0.08  1.0000
   0  10  10   32306     661                                                       32158    0.31    0.01  1.0000
   2  10  10  102216    1523                                                      102220   -0.05    0.07  1.0000
   4  10  10   24013     718                                                       24107   -0.63   -0.46  1.0000
  -3  11  10   40756     900                                                       40531   -0.17    0.41  1.0000
  -1  11  10   42298     812                                                       42361    0.02   -0.21  1.0000
   1  11  10   41217     814                                                       41281    0.03    0.22  1.0000
   3  11  10   41252     949                                                       41034   -0.16   -0.40  1.0000
   0   1  11    1549     143                                                        1673   -1.16   -0.02  1.0000
  -1   2  11  128450    1444                                                      128481    0.15   -7.38  1.0000
   1   2  11  129012    1488                                                      129050    0.15    7.36  1.0000
  -2   3  11   24137     407                                                       24257   -0.36    1.61  1.0000
   0   3  11  125796    1350                                                      126774    1.04    0.00  1.0000
   2   3  11   23996     394                                                       24122   -0.35   -1.63  1.0000
  -3   4  11  120417    1344                                                      121608   -0.63   -1.69  1.0000
  -1   4  11   50641     653                                                       49588    0.10    5.28  1.0000
   1   4  11   51299     630                                                       50235    0.11   -5.29  1.0000
   3   4  11  118863    1273                                                      120035   -0.62    1.66  1.0000
  -4   5  11   42543     594                                                       42268    0.36   -2.80  1.0000
  -2   5  11   28290     461                                                       28410   -0.78    0.19  1.0000
   0   5  11  275268    2785                                                      276057   -0.56   -0.01  1.0000
   2   5  11   29064     470                                                       29184   -0.79   -0.18  1.0000
   4   5  11   41192     566                                                       40930    0.38    2.79  1.0000
  -5   6  11  110561    1271                                                      107816    2.78    2.59  1.0000
  -3   6  11  153267    1662                                                      153634   -0.36    0.05  1.0000
  -1   6  11  150022    1567                                                      149419   -0.88   -3.34  1.0000
   1   6  11  151118    1580                                                      150509   -0.89    3.33  1.0000
   3   6  11  155949    1599                                                      156323   -0.37   -0.05  1.0000
   5   6  11  111349    1303                                                      108602    2.77   -2.60  1.0000
  -6   7  11    2667     271                                                        2323   -1.10   -2.82  1.0000
  -4   7  11   87520    1136                                                       88659    1.11    3.59  1.0000
  -2   7  11   20731     396                                                       20767    0.16   -0.67  1.0000
   0   7  11  573769    5684                                                      575084   -0.65    0.01  1.0000
   2   7  11   20550     415                                                       20584    0.16    0.66  1.0000
   4   7  11   85311    1106                                                       86419    1.09   -3.60  1.0000
   6   7  11    3025     279                                                        2656   -1.10    2.84  1.0000
  -7   8  11    2687     354                                                        2695   -0.16    0.24  1.0000
  -5   8  11   12745     468                                                       13624   -1.74   -2.66  1.0000
  -3   8  11   20499     496                                                       20547    1.20    2.18  1.0000
  -1   8  11   11157     354                                                       11592    0.26    1.59  1.0000
   1   8  11   11555     360                                                       11994    0.26   -1.58  1.0000
   3   8  11   21214     505                                                       21260    1.20   -2.17  1.0000
   5   8  11   13128     498                                                       14019   -1.74    2.66  1.0000
   7   8  11    2213     364                                                        2222   -0.17   -0.23  1.0000
  -6   9  11   26884     772                                                       26929   -0.07    0.17  1.0000
  -4   9  11   73618    1248                                                       73888   -0.42   -2.43  1.0000
  -2   9  11   10336     347                                                        9758    0.20    2.16  1.0000
   0   9  11   96271    1280                                                       96721    0.54    0.01  1.0000
   2   9  11   10859     376                                                       10274    0.21   -2.13  1.0000
   4   9  11   74394    1282                                                       74650   -0.40    2.45  1.0000
   6   9  11   27597     767                                                       27642   -0.07   -0.17  1.0000
  -5  10  11   40362    1089                                                       40403    0.44    1.23  1.0000
  -3  10  11   19322     570                                                       19056   -0.47   -1.39  1.0000
  -1  10  11  179709    2282                                                      179792   -0.03    0.64  1.0000
   1  10  11  180331    2405                                                      180401   -0.02   -0.62  1.0000
   3  10  11   18945     575                                                       18681   -0.47    1.40  1.0000
   5  10  11   39527    1025                                                       39568    0.44   -1.20  1.0000
  -2  11  11   11074     527                                                       11019    0.06   -0.99  1.0000
   0  11  11  114338    1875                                                      114118   -0.25    0.00  1.0000
   2  11  11   10941     518                                                       10887    0.06    0.99  1.0000
   0   0  12   43400    1124                                                       39506   -7.20    0.00  1.0000
   1   1  12  148461    1607                                                      138913   -1.23   -9.40  1.0000
   0   2  12    3921     196                                                        4714    4.54   -0.01  1.0000
   2   2  12  490980    5006                                                      497764   -3.69   -4.09  1.0000
  -1   3  12  235671    2411                                                      240151    1.63   -3.05  1.0000
   1   3  12  234259    2441                                                      238732    1.64    3.05  1.0000
   3   3  12   49732     714                                                       47489   -3.84   -1.57  1.0000
  -2   4  12    2668     172                                                        2591    1.13   -2.41  1.0000
   0   4  12     201     120                                                         258   -1.41    0.01  1.0000
   2   4  12    2441     167                                                        2367    1.13    2.41  1.0000
   4   4  12  160584    1650                                                      158404   -0.05   -2.24  1.0000
  -3   5  12  121099    1360                                                      120902    3.76   -0.56  1.0000
  -1   5  12   12770     308                                                       13030   -0.94    1.77  1.0000
   1   5  12   13573     332                                                       13838   -0.96   -1.76  1.0000
   3   5  12  123476    1335                                                      123267    3.76    0.57  1.0000
   5   5  12   75124     918                                                       74891   -4.68   -1.53  1.0000
  -4   6  12   18219     414                                                       17995   -1.47   -0.69  1.0000
  -2   6  12   84322     981                                                       83764    1.30    1.69  1.0000
   0   6  12   17833     380                                                       18026    0.54    0.00  1.0000
   2   6  12   83531     966                                                       82984    1.30   -1.68  1.0000
   4   6  12   18112     393                                                       17896   -1.46    0.71  1.0000
   6   6  12    7752     353                                                        7860   -1.70   -0.09  1.0000
  -5   7  12   93745    1366                                                       94270    0.74   -0.40  1.0000
  -3   7  12    7464     298                                                        7265   -2.50   -0.46  1.0000
  -1   7  12   17501     394                                                       17425    1.52   -0.64  1.0000
   1   7  12   16524     388                                                       16442    1.54    0.67  1.0000
   3   7  12    7330     276                                                        7136   -2.50    0.47  1.0000
   5   7  12   93060    1360                                                       93598    0.75    0.42  1.0000
   7   7  12   21166     677                                                       21850    1.31   -1.18  1.0000
  -6   8  12    9743     477                                                       10355    2.17    1.09  1.0000
  -4   8  12  211443    2535                                                      212134    0.26    0.53  1.0000
  -2   8  12    7400     303                                                        7287   -1.22   -2.37  1.0000
   0   8  12   14272     410                                                       14467    0.61    0.01  1.0000
   2   8  12    7492     311                                                        7380   -1.21    2.38  1.0000
   4   8  12  208121    2717                                                      208795    0.26   -0.52  1.0000
   6   8  12    9716     520                                                       10327    2.18   -1.08  1.0000
  -5   9  12  102169    1705                                                      101629    0.94    0.82  1.0000
  -3   9  12   30986     662                                                       31339    0.97   -0.28  1.0000
  -1   9  12   24668     558                                                       24182   -0.90   -0.75  1.0000
   1   9  12   24857     585                                                       24366   -0.92    0.74  1.0000
   3   9  12   31550     712                                                       31908    0.97    0.28  1.0000
   5   9  12  104508    1829                                                      103954    0.94   -0.82  1.0000
  -4  10  12    9284     464                                                        9300    0.62   -0.17  1.0000
  -2  10  12   45786     871                                                       45338    0.78    0.83  1.0000
   0  10  12    2991     341                                                        2887   -0.72   -0.01  1.0000
   2  10  12   46072     837                                                       45617    0.78   -0.83  1.0000
   4  10  12    8012     476                                                        8028    0.61    0.16  1.0000
  -1  11  12   25846     943                                                       25810    0.32   -0.20  1.0000
   1  11  12   24525     840                                                       24494    0.33    0.19  1.0000
   0   1  13   42510     623                                                       44577    3.73    0.01  1.0000
  -1   2  13  113214    1269                                                      112073   -1.30   -0.26  1.0000
   1   2  13  113070    1390                                                      111918   -1.31    0.27  1.0000
  -2   3  13   24020     430                                                       23947    3.30   -0.96  1.0000
   0   3  13    3987     217                                                        4905   -5.18    0.00  1.0000
   2   3  13   23966     452                                                       23887    3.29    0.98  1.0000
  -3   4  13  155522    1715                                                      154288   -0.01    3.05  1.0000
  -1   4  13  123428    1502                                                      125288    0.03   -2.76  1.0000
   1   4  13  122968    1428                                                      124843    0.04    2.77  1.0000
   3   4  13  155770    1714                                                      154537   -0.01   -3.04  1.0000
  -4   5  13   23811     497                                                       23387    0.07   -1.15  1.0000
  -2   5  13   52929     764                                                       52072   -2.78    0.09  1.0000
   0   5  13  252144    2604                                                      256895    3.54    0.01  1.0000
   2   5  13   54772     713                                                       53897   -2.77   -0.08  1.0000
   4   5  13   24519     454                                                       24083    0.08    1.17  1.0000
  -5   6  13  154274    1987                                                      157844    3.45    0.36  1.0000
  -3   6  13  266552    2838                                                      265783   -0.96   -2.08  1.0000
  -1   6  13   36393     586                                                       36519   -0.66    1.83  1.0000
   1   6  13   36998     576                                                       37129   -0.67   -1.83  1.0000
   3   6  13  261450    2700                                                      260700   -0.95    2.08  1.0000
   5   6  13  155534    1910                                                      159129    3.46   -0.38  1.0000
  -6   7  13   12173     518                                                       11609   -2.24    0.06  1.0000
  -4   7  13   29858     609                                                       29091    1.68   -0.25  1.0000
  -2   7  13   73225    1066                                                       73274    1.22    0.81  1.0000
   0   7  13  381576    4053                                                      376004   -3.41   -0.01  1.0000
   2   7  13   73525    1035                                                       73561    1.21   -0.83  1.0000
   4   7  13   29137     585                                                       28383    1.67    0.23  1.0000
   6   7  13   11432     482                                                       10883   -2.25   -0.07  1.0000
  -7   8  13   11724     594                                                       11800    0.48    0.42  1.0000
  -5   8  13   35046     879                                                       34311   -2.89   -1.05  1.0000
  -3   8  13  113744    1555                                                      115972    1.35    2.11  1.0000
  -1   8  13   75174    1092                                                       74880    0.17   -0.53  1.0000
   1   8  13   75564    1095                                                       75288    0.17    0.50  1.0000
   3   8  13  116462    1679                                                      118728    1.34   -2.14  1.0000
   5   8  13   35692    1001                                                       34942   -2.91    1.04  1.0000
   7   8  13   12070     567                                                       12144    0.48   -0.44  1.0000
  -4   9  13   82377    1287                                                       80770   -2.12    0.03  1.0000
  -2   9  13   61147    1077                                                       60578   -0.41    0.78  1.0000
   0   9  13   20143     559                                                       19064    2.90   -0.01  1.0000
   2   9  13   62245    1104                                                       61661   -0.41   -0.79  1.0000
   4   9  13   80329    1410                                                       78745   -2.12   -0.05  1.0000
  -3  10  13    1883     369                                                        2123   -1.65   -1.53  1.0000
  -1  10  13  189703    2493                                                      190822    0.73    1.52  1.0000
   1  10  13  192982    2571                                                      194107    0.73   -1.52  1.0000
   3  10  13    1642     349                                                        1866   -1.65    1.53  1.0000
   0   0  14  297435    5829                                                      301802   -3.00    0.00  1.0000
   1   1  14  284820    2788                                                      281351   -1.19    3.61  1.0000
   0   2  14   11010     328                                                       11184    0.62    0.00  1.0000
   2   2  14  113789    1360                                                      115311    0.08    1.91  1.0000
  -1   3  14   74661     922                                                       75676    1.31    2.69  1.0000
   1   3  14   73774     969                                                       74782    1.31   -2.69  1.0000
   3   3  14   48265     705                                                       46921   -1.95    2.67  1.0000
  -2   4  14   14533     355                                                       14266   -0.51    2.64  1.0000
   0   4  14  277371    2895                                                      277806    0.31    0.00  1.0000
   2   4  14   14372     371                                                       14106   -0.51   -2.66  1.0000
   4   4  14   72790     918                                                       70129    0.43    4.81  1.0000
  -3   5  14  193024    2166                                                      194421    1.03   -0.61  1.0000
  -1   5  14    5631     266                                                        5420   -0.46    1.14  1.0000
   1   5  14    6335     260                                                        6105   -0.46   -1.17  1.0000
   3   5  14  189044    1989                                                      190402    1.02    0.58  1.0000
   5   5  14   16018     444                                                       15373   -1.45   -1.42  1.0000
  -4   6  14    6799     361                                                        7080   -1.45    3.52  1.0000
  -2   6  14   23521     530                                                       22875    0.51   -1.65  1.0000
   0   6  14   43220     647                                                       43990    1.39   -0.02  1.0000
   2   6  14   23924     506                                                       23283    0.50    1.62  1.0000
   4   6  14    6587     302                                                        6863   -1.47   -3.54  1.0000
   6   6  14  313589    3891                                                      313447   -0.31    2.07  1.0000
  -5   7  14   50261    1002                                                       50092    0.10   -0.31  1.0000
  -3   7  14   64442     966                                                       63382   -1.80    1.01  1.0000
  -1   7  14   38801     724                                                       39760    1.56   -1.22  1.0000
   1   7  14   39047     744                                                       40006    1.55    1.22  1.0000
   3   7  14   63208     946                                                       62159   -1.80   -1.01  1.0000
   5   7  14   48224     916                                                       48062    0.10    0.30  1.0000
   7   7  14   57678    1203                                                       57476    0.60    1.55  1.0000
  -6   8  14   43104    1053                                                       43509    0.66   -0.40  1.0000
  -4   8  14   70135    1120                                                       71143    1.00   -1.15  1.0000
  -2   8  14    3053     279                                                        2964   -0.78    0.30  1.0000
   0   8  14    8082     380                                                        7971   -0.47    0.02  1.0000
   2   8  14    3483     302                                                        3390   -0.77   -0.29  1.0000
   4   8  14   69097    1213                                                       70105    1.01    1.16  1.0000
   6   8  14   42117    1086                                                       42524    0.67    0.40  1.0000
  -5   9  14   61600    1462                                                       61774    0.85   -0.72  1.0000
  -3   9  14   10137     431                                                       10183    1.83   -0.77  1.0000
  -1   9  14    2026     307                                                        2180   -2.16   -0.21  1.0000
   1   9  14    2569     334                                                        2744   -2.15    0.24  1.0000
   3   9  14   10376     477                                                       10420    1.83    0.79  1.0000
   5   9  14   61751    1567                                                       61922    0.86    0.74  1.0000
  -2  10  14   74726    1503                                                       74545    0.12   -0.92  1.0000
   0  10  14   18385     635                                                       17810   -1.61    0.00  1.0000
   2  10  14   75594    1440                                                       75403    0.12    0.94  1.0000
   0   1  15     645     174                                                         716   -1.02    0.00  1.0000
  -1   2  15   11375     341                                                       11732    0.88    2.56  1.0000
   1   2  15   11069     347                                                       11423    0.88   -2.57  1.0000
  -2   3  15   52452     739                                                       53226   -3.46   -1.25  1.0000
   0   3  15    2051     197                                                        1662    3.40   -0.01  1.0000
   2   3  15   51260     764                                                       52015   -3.47    1.24  1.0000
  -3   4  15   84680    1136                                                       87322    1.92    3.72  1.0000
  -1   4  15  128484    1454                                                      123686   -0.40   -5.15  1.0000
   1   4  15  126437    1381                                                      121693   -0.41    5.13  1.0000
   3   4  15   84503    1134                                                       87144    1.92   -3.72  1.0000
  -4   5  15   44901     813                                                       45528   -2.05   -1.09  1.0000
  -2   5  15  181259    2091                                                      180629    3.35    0.02  1.0000
   0   5  15   16671     468                                                       17902   -3.52    0.01  1.0000
   2   5  15  181657    1882                                                      181038    3.35   -0.01  1.0000
   4   5  15   45235     767                                                       45872   -2.04    1.11  1.0000
  -5   6  15   13900     465                                                       13679    1.00   -0.27  1.0000
  -3   6  15   23525     657                                                       22456    0.37   -2.78  1.0000
  -1   6  15    3883     300                                                        4155   -1.18    3.20  1.0000
   1   6  15    4066     282                                                        4341   -1.16   -3.16  1.0000
   3   6  15   21438     534                                                       20410    0.39    2.80  1.0000
   5   6  15   13261     439                                                       13036    1.01    0.30  1.0000
  -6   7  15    9834     489                                                        9416   -0.34    1.76  1.0000
  -4   7  15    1280     287                                                        1191    1.98   -0.81  1.0000
  -2   7  15  118901    1680                                                      118505   -1.53   -0.66  1.0000
   0   7  15   15336     504                                                       15548   -0.64    0.01  1.0000
   2   7  15  120375    1611                                                      119950   -1.52    0.68  1.0000
   4   7  15    1510     299                                                        1414    1.99    0.82  1.0000
   6   7  15    9336     527                                                        8931   -0.34   -1.75  1.0000
  -5   8  15   33652     928                                                       33977   -0.43    0.63  1.0000
  -3   8  15  140575    1913                                                      139586    0.04    0.99  1.0000
  -1   8  15  132011    1978                                                      134760    0.20   -2.85  1.0000
   1   8  15  133292    1988                                                      136062    0.19    2.86  1.0000
   3   8  15  139213    2010                                                      138244    0.04   -0.98  1.0000
   5   8  15   33552     881                                                       33873   -0.43   -0.62  1.0000
  -4   9  15    4368     440                                                        4625   -1.86    0.71  1.0000
  -2   9  15  174626    2434                                                      175056    1.16    0.44  1.0000
   0   9  15    2546     392                                                        2711    1.21    0.00  1.0000
   2   9  15  177525    2593                                                      177963    1.15   -0.45  1.0000
   4   9  15    3639     423                                                        3876   -1.87   -0.70  1.0000
  -1  10  15   10671    3598                                                        9756    1.31    3.38  1.0000
   1  10  15   19045    4224                                                       17815    1.31   -3.38  1.0000
   0   0  16  330319    6612                                                      342795    8.09    0.00  1.0000
   1   1  16  288276    2880                                                      288342    0.47   -2.52  1.0000
   0   2  16   27304     569                                                       30403   -6.86    0.00  1.0000
   2   2  16  100137    1330                                                       95911    6.37   -0.28  1.0000
  -1   3  16   32537     603                                                       32030   -1.07   -0.25  1.0000
   1   3  16   34261     600                                                       33738   -1.06    0.29  1.0000
   3   3  16   38685     660                                                       37161    2.93    0.56  1.0000
  -2   4  16   32076     601                                                       33357   -2.70    0.11  1.0000
   0   4  16  373204    4028                                                      370045    1.95    0.02  1.0000
   2   4  16   32891     632                                                       34183   -2.68   -0.07  1.0000
   4   4  16   31090     671                                                       31644    1.48    0.65  1.0000
  -3   5  16  194608    2469                                                      197854   -2.69   -0.68  1.0000
  -1   5  16     656     252                                                         712    0.67    0.75  1.0000
   1   5  16     724     254                                                         782    0.66   -0.74  1.0000
   3   5  16  194054    2444                                                      197288   -2.68    0.70  1.0000
   5   5  16   20205     615                                                       18774    3.45   -1.77  1.0000
  -4   6  16    5333     344                                                        5340    0.24    1.04  1.0000
  -2   6  16    9341     440                                                        9268   -0.26   -0.13  1.0000
   0   6  16   45668     822                                                       44565    1.95   -0.01  1.0000
   2   6  16    9091     394                                                        9021   -0.27    0.11  1.0000
   4   6  16    5007     331                                                        5017    0.23   -1.04  1.0000
   6   6  16  305733    4261                                                      306492   -0.53    0.41  1.0000
  -5   7  16   15821     539                                                       15201   -1.65   -0.92  1.0000
  -3   7  16   97416    1477                                                       96913    0.60    1.39  1.0000
  -1   7  16   62152    1220                                                       61292    1.23    0.47  1.0000
   1   7  16   63744    1055                                                       62873    1.22   -0.49  1.0000
   3   7  16   90637    1446                                                       90159    0.59   -1.42  1.0000
   5   7  16   15371     541                                                       14757   -1.66    0.91  1.0000
  -4   8  16   11577     512                                                       11691   -0.22   -0.38  1.0000
  -2   8  16    5011     414                                                        4879    0.14    1.84  1.0000
   0   8  16   16442     613                                                       16152    0.86   -0.02  1.0000
   2   8  16    4575     424                                                        4449    0.13   -1.85  1.0000
   4   8  16   11037     529                                                       11144   -0.22    0.36  1.0000
  -3   9  16    4818     493                                                        4814   -0.03   -0.10  1.0000
  -1   9  16    1365     434                                                        1340   -0.45    0.21  1.0000
   1   9  16    2272     407                                                        2238   -0.45   -0.22  1.0000
   3   9  16    4784     518                                                        4781   -0.03    0.08  1.0000
   0   1  17   10335     342                                                       10467   -0.49    0.01  1.0000
  -1   2  17   62641     869                                                       63231    0.85   -4.05  1.0000
   1   2  17   62648     887                                                       63244    0.85    4.07  1.0000
  -2   3  17   33391     654                                                       34475   -3.77    1.25  1.0000
   0   3  17    1608     245                                                        2053    3.92    0.00  1.0000
   2   3  17   34100     710                                                       35203   -3.76   -1.27  1.0000
  -3   4  17   88170    1308                                                       87255    2.32   -0.82  1.0000
  -1   4  17  100169    1374                                                       98597   -0.05    2.39  1.0000
   1   4  17  106506    1509                                                      104862   -0.05   -2.43  1.0000
   3   4  17   88925    1371                                                       87999    2.31    0.79  1.0000
  -4   5  17   20314     647                                                       19967   -3.26   -0.24  1.0000
  -2   5  17  108214    1685                                                      107981    4.32    0.59  1.0000
   0   5  17  102757    1490                                                      105738   -3.47   -0.03  1.0000
   2   5  17  112357    1622                                                      112140    4.30   -0.61  1.0000
   4   5  17   19888     550                                                       19553   -3.26    0.21  1.0000
  -5   6  17   67052    1428                                                       66903    0.28   -0.13  1.0000
  -3   6  17  119802    1773                                                      120178   -0.75    0.92  1.0000
  -1   6  17   20487     744                                                       20457   -0.20   -0.54  1.0000
   1   6  17   21241     648                                                       21211   -0.19    0.52  1.0000
   3   6  17  116816    1716                                                      117187   -0.76   -0.94  1.0000
   5   6  17   63262    1272                                                       63115    0.28    0.12  1.0000
  -4   7  17   13147     603                                                       13570    1.24    0.62  1.0000
  -2   7  17   86657    1621                                                       88211   -2.05   -1.01  1.0000
   0   7  17  169286    2577                                                      169125    0.15    0.01  1.0000
   2   7  17   86155    1457                                                       87692   -2.03    1.00  1.0000
   4   7  17   13158     620                                                       13580    1.23   -0.63  1.0000
  -3   8  17   85438    1516                                                       84787    0.58   -0.63  1.0000
  -1   8  17   60925    1247                                                       59962   -1.10   -1.61  1.0000
   1   8  17   62620    1247                                                       61635   -1.10    1.62  1.0000
   3   8  17   85385    1585                                                       84724    0.59    0.64  1.0000
   0   9  17       7     462                                                         -43   -1.99    0.00  1.0000
   0   0  18  163300    3764                                                      165173   -1.74    0.00  1.0000
   1   1  18  138449    1597                                                      131046   -1.18   -8.77  1.0000
   0   2  18    3293     288                                                        3536   -1.56   -0.03  1.0000
   2   2  18  257959    3144                                                      261374    3.08   -2.43  1.0000
  -1   3  18   90612    1407                                                       92640    1.36   -3.53  1.0000
   1   3  18   89497    1317                                                       91500    1.35    3.51  1.0000
   3   3  18   24270     724                                                       23482   -1.34   -2.41  1.0000
  -2   4  18    5555     347                                                        5075   -2.04   -1.67  1.0000
   0   4  18   47927     950                                                       48798    1.49    0.02  1.0000
   2   4  18    5873     392                                                        5382   -2.03    1.66  1.0000
   4   4  18   81015    1297                                                       79316    0.67   -2.22  1.0000
  -3   5  18   61804    1138                                                       61200    0.35   -1.19  1.0000
  -1   5  18    4321     420                                                        4516   -1.03    0.41  1.0000
   1   5  18    4792     412                                                        4995   -1.03   -0.39  1.0000
   3   5  18   65593    1198                                                       64965    0.37    1.21  1.0000
   5   5  18   31052     878                                                       31077    0.62   -0.11  1.0000
  -4   6  18    6018     442                                                        6387    0.98   -2.03  1.0000
  -2   6  18   42274    1168                                                       42546   -0.36   -0.38  1.0000
   0   6  18     292     357                                                         290    0.05    0.01  1.0000
   2   6  18   40411     980                                                       40689   -0.36    0.41  1.0000
   4   6  18    5760     423                                                        6125    1.00    2.05  1.0000
   6   6  18   40694    1213                                                       40303   -0.96   -1.36  1.0000
  -5   7  18   40702    6984                                                       40626    0.10    0.11  1.0000
  -3   7  18   11252     591                                                       11276   -0.30   -0.67  1.0000
  -1   7  18    9034     563                                                        9130    0.59    0.10  1.0000
   1   7  18    9074     536                                                        9168    0.60   -0.08  1.0000
   3   7  18   10033     522                                                       10055   -0.31    0.68  1.0000
   5   7  18   41586    6699                                                       41522    0.09   -0.08  1.0000
  -2   8  18    1340     497                                                        1386   -0.17    0.83  1.0000
   0   8  18     773     473                                                         701    1.00    0.00  1.0000
   2   8  18     695     477                                                         728   -0.18   -0.82  1.0000
   0   1  19     469     277                                                         693    3.51    0.01  1.0000
  -1   2  19   99738    1537                                                       98287   -1.53   -2.24  1.0000
   1   2  19  101921    1467                                                      100451   -1.53    2.27  1.0000
  -2   3  19    2977     362                                                        2897    0.15    1.11  1.0000
   0   3  19   29934     771                                                       31379   -3.11    0.01  1.0000
   2   3  19    3011     365                                                        2932    0.16   -1.07  1.0000
  -3   4  19   48127    1112                                                       48956    1.53   -2.45  1.0000
  -1   4  19   61416    1153                                                       61261   -0.57    1.89  1.0000
   1   4  19   63434    1216                                                       63289   -0.55   -1.87  1.0000
   3   4  19   50584    1165                                                       51432    1.53    2.46  1.0000
  -4   5  19    9293     603                                                        9452   -0.91    0.93  1.0000
  -2   5  19    2214     349                                                        2302    0.88   -0.36  1.0000
   0   5  19  144302    2142                                                      144390    0.09    0.00  1.0000
   2   5  19    2489     358                                                        2582    0.87    0.36  1.0000
   4   5  19    9636     484                                                        9801   -0.92   -0.93  1.0000
  -5   6  19   66313    1575                                                       66963    0.95   -0.14  1.0000
  -3   6  19  145207    2503                                                      144600   -0.77    2.01  1.0000
  -1   6  19   61462    1275                                                       61109    0.53   -0.08  1.0000
   1   6  19   63869    1276                                                       63526    0.51    0.07  1.0000
   3   6  19  148725    2349                                                      148107   -0.77   -2.00  1.0000
   5   6  19   69238    1533                                                       69902    0.95    0.12  1.0000
  -2   7  19   25687     941                                                       25856    0.27    0.85  1.0000
   0   7  19  218780    3342                                                      218680   -0.08    0.00  1.0000
   2   7  19   26969     920                                                       27142    0.27   -0.87  1.0000
   0   0  20    8435     917                                                        9923   -5.85    0.00  1.0000
   1   1  20  117123    1655                                                      119027   -1.55   -3.83  1.0000
   0   2  20   16091     580                                                       16485    1.16    0.01  1.0000
   2   2  20  254480    3559                                                      257322    0.88    1.92  1.0000
  -1   3  20   72142    1257                                                       69985    1.92   -3.56  1.0000
   1   3  20   72584    1270                                                       70428    1.89    3.54  1.0000
   3   3  20   44667    1104                                                       45294   -1.84   -2.94  1.0000
  -2   4  20   18834     752                                                       18373   -0.68    1.79  1.0000
   0   4  20   50053    1051                                                       50942    1.49   -0.01  1.0000
   2   4  20   21471     730                                                       20974   -0.68   -1.81  1.0000
   4   4  20   63769    1360                                                       63935   -0.26   -0.32  1.0000
  -3   5  20   81744    1665                                                       82057    0.63   -0.04  1.0000
  -1   5  20    8725     598                                                        8523   -0.03    1.37  1.0000
   1   5  20   10051     543                                                        9836   -0.02   -1.38  1.0000
   3   5  20   89354    1497                                                       89663    0.63    0.02  1.0000
   5   5  20   33851    1113                                                       33573   -1.71    0.27  1.0000
  -4   6  20   11180     945                                                       11092   -0.41    0.06  1.0000
  -2   6  20   29424    1046                                                       28897   -0.06   -1.18  1.0000
   0   6  20    6961     575                                                        7088    0.57   -0.01  1.0000
   2   6  20   31640     967                                                       31091   -0.06    1.18  1.0000
   4   6  20   11262     969                                                       11179   -0.39   -0.07  1.0000
  -1   7  20   29204    1189                                                       29241    0.00   -0.22  1.0000
   1   7  20   29505    1028                                                       29541   -0.01    0.22  1.0000
   0   1  21   10304     499                                                       10873    2.08   -0.01  1.0000
  -1   2  21    8462     504                                                        8714   -0.41    1.24  1.0000
   1   2  21    8463     461                                                        8714   -0.39   -1.25  1.0000
  -2   3  21   35772     993                                                       35228   -0.06    1.55  1.0000
   0   3  21   34555     964                                                       34291   -0.53   -0.02  1.0000
   2   3  21   35685     973                                                       35140   -0.07   -1.54  1.0000
  -3   4  21   18304     759                                                       17539    0.09   -2.24  1.0000
  -1   4  21   24069     857                                                       24294   -0.21    0.52  1.0000
   1   4  21   24904     821                                                       25134   -0.21   -0.53  1.0000
   3   4  21   19317     752                                                       18531    0.09    2.24  1.0000
  -4   5  21   31411    2112                                                       31544    0.41    0.26  1.0000
  -2   5  21   43344    1230                                                       44022    0.09   -1.31  1.0000
   0   5  21   26076    1010                                                       26750   -1.56    0.02  1.0000
   2   5  21   43704    1153                                                       44384    0.10    1.30  1.0000
   4   5  21   30146    2206                                                       30272    0.40   -0.27  1.0000
  -1   6  21   65143    1583                                                       64538   -0.89    0.28  1.0000
   1   6  21   70509    1561                                                       69878   -0.89   -0.28  1.0000
   0   0  22  183177    6055                                                      178563   -4.08   -0.02  1.0000
   1   1  22  100214    1838                                                       99305   -0.29   -4.04  1.0000
   0   2  22    3762     436                                                        3475    1.79    0.02  1.0000
   2   2  22   53197    1185                                                       52658   -1.52    2.34  1.0000
  -1   3  22   20073     814                                                       21037   -0.75   -4.68  1.0000
   1   3  22   22044     805                                                       23058   -0.75    4.69  1.0000
   3   3  22   16568     726                                                       16029    0.75   -2.11  1.0000
  -2   4  22    7906     651                                                        7770    0.59    0.17  1.0000
   0   4  22  145613    2610                                                      147025   -1.39    0.00  1.0000
   2   4  22    9190     607                                                        9044    0.58   -0.14  1.0000
  -1   5  22    1122     560                                                        1226    0.82    0.93  1.0000
   1   5  22    2124     538                                                        2267    0.83   -0.91  1.0000
   0   1  23    8886     622                                                        8758    0.51    0.00  1.0000
  -1   2  23   20681     871                                                       20987   -0.81   -0.16  1.0000
   1   2  23   19888     793                                                       20186   -0.79    0.18  1.0000
  -2   3  23   38382    1245                                                       38736    1.52    1.75  1.0000
   0   3  23    9967     668                                                       10117   -0.56    0.00  1.0000
   2   3  23   40837    1168                                                       41204    1.52   -1.76  1.0000
  -1   4  23   72466    3191                                                       70720    1.18    2.15  1.0000
   1   4  23   38719    5898                                                       37444    1.16   -2.17  1.0000
   0   0  24  222031    8074                                                      230044   -6.34    0.01  1.0000
   1   1  24   19221     919                                                       19252    0.73   -1.03  1.0000
   0   2  24    1827     831                                                        1207    6.02   -0.01  1.0000
   0   0   0      64       0                                                           0    6.02   -0.01  1.0000

;
_shelx_hkl_checksum              94777
loop_
_space_group_symop_operation_xyz
'x, y, z'
'-x, -y, z'
'y, -x, -z'
'-y, x, -z'
'-x, y, -z'
'x, -y, -z'
'-y, -x, z'
'y, x, z'
'x+1/2, y+1/2, z+1/2'
'-x+1/2, -y+1/2, z+1/2'
'y+1/2, -x+1/2, -z+1/2'
'-y+1/2, x+1/2, -z+1/2'
'-x+1/2, y+1/2, -z+1/2'
'x+1/2, -y+1/2, -z+1/2'
'-y+1/2, -x+1/2, z+1/2'
'y+1/2, x+1/2, z+1/2'
loop_
_atom_site_label
_atom_site_type_symbol
_atom_site_fract_x
_atom_site_fract_y
_atom_site_fract_z
_atom_site_U_iso_or_equiv
_atom_site_adp_type
_atom_site_occupancy
_atom_site_site_symmetry_order
_atom_site_calc_flag
_atom_site_refinement_flags_posn
_atom_site_refinement_flags_adp
_atom_site_refinement_flags_occupancy
Dy2 Dy 0.5000 0.5000 0.34746(4) 0.0124(2) Uani 1 4 d S T P
Dy1 Dy 0.15230(4) 0.41124(4) 0.31499(2) 0.01073(15) Uani 1 1 d . . .
O4 O -0.0603(6) 0.3887(6) 0.2984(4) 0.0148(15) Uani 1 1 d . . .
O2 O 0.3452(6) 0.3452(6) 0.3636(5) 0.0139(19) Uani 1 2 d S T P
O5 O 0.3209(7) 0.5352(6) 0.2794(4) 0.0221(17) Uani 1 1 d . . .
C3 C 0.3516(11) 0.6484(11) 0.2642(7) 0.019(3) Uani 1 2 d S T P
O3 O 0.1506(9) 0.4992(11) 0.4199(4) 0.039(2) Uani 1 1 d . . .
O1 O 0.0908(9) 0.2440(9) 0.3841(5) 0.044(2) Uani 1 1 d . . .
C1 C 0.0684(12) 0.4980(16) 0.4638(6) 0.035(3) Uani 1 1 d . . .
O6 O 0.2769(6) 0.7231(6) 0.2383(6) 0.021(2) Uani 1 2 d S T P
C2 C 0.1426(14) 0.1426(14) 0.4043(11) 0.044(2) Uani 1 2 d S T P
H2 H 0.1004 0.1004 0.4387 0.053 Uiso 1 2 calc R U P
O7 O 0.6102(15) 0.3898(15) 0.4236(12) 0.096(9) Uani 1 2 d S T P
H7 H 0.6001 0.3129 0.4172 0.144 Uiso 0.5 1 calc R U P
loop_
_atom_site_aniso_label
_atom_site_aniso_U_11
_atom_site_aniso_U_22
_atom_site_aniso_U_33
_atom_site_aniso_U_23
_atom_site_aniso_U_13
_atom_site_aniso_U_12
Dy2 0.0088(3) 0.0088(3) 0.0198(4) 0.000 0.000 -0.0008(3)
Dy1 0.0079(2) 0.0088(2) 0.0154(2) 0.00011(17) -0.00053(19) 0.00146(15)
O4 0.009(3) 0.015(3) 0.021(4) 0.003(3) 0.001(3) 0.006(3)
O2 0.011(3) 0.011(3) 0.020(5) -0.002(3) -0.002(3) 0.005(4)
O5 0.016(4) 0.015(4) 0.035(4) 0.010(3) -0.008(3) -0.004(3)
C3 0.019(4) 0.019(4) 0.019(7) 0.000(5) 0.000(5) -0.009(6)
O3 0.042(5) 0.055(5) 0.019(4) -0.005(4) 0.003(4) 0.013(5)
O1 0.034(5) 0.041(5) 0.058(6) 0.025(5) 0.011(4) 0.005(4)
C1 0.040(7) 0.042(7) 0.024(6) -0.002(6) 0.008(5) 0.003(7)
O6 0.014(3) 0.014(3) 0.035(6) 0.011(3) -0.011(3) -0.004(4)
C2 0.034(5) 0.041(5) 0.058(6) 0.025(5) 0.011(4) 0.005(4)
O7 0.080(10) 0.080(10) 0.129(18) 0.063(11) -0.063(11) -0.047(12)
loop_
_atom_type_symbol
_atom_type_description
_atom_type_scat_dispersion_real
_atom_type_scat_dispersion_imag
_atom_type_scat_source
C C 0.0033 0.0016 'International Tables Vol C Tables 4.2.6.8 and 6.1.1.4'
H H 0.0000 0.0000 'International Tables Vol C Tables 4.2.6.8 and 6.1.1.4'
O O 0.0106 0.0060 'International Tables Vol C Tables 4.2.6.8 and 6.1.1.4'
Dy Dy -0.1892 4.4098 'International Tables Vol C Tables 4.2.6.8 and 6.1.1.4'
loop_
_geom_angle_atom_site_label_1
_geom_angle_atom_site_label_2
_geom_angle_atom_site_label_3
_geom_angle
_geom_angle_site_symmetry_1
_geom_angle_site_symmetry_3
O7 Dy2 O7 94.0(14) . 2_665
O7 Dy2 O2 84.6(5) . 2_665
O7 Dy2 O2 84.6(5) 2_665 2_665
O7 Dy2 O2 84.6(5) . .
O7 Dy2 O2 84.6(5) 2_665 .
O2 Dy2 O2 164.0(5) 2_665 .
O7 Dy2 O5 152.9(4) . .
O7 Dy2 O5 84.3(6) 2_665 .
O2 Dy2 O5 122.1(2) 2_665 .
O2 Dy2 O5 68.3(2) . .
O7 Dy2 O5 84.3(6) . 8
O7 Dy2 O5 152.9(4) 2_665 8
O2 Dy2 O5 122.1(2) 2_665 8
O2 Dy2 O5 68.3(2) . 8
O5 Dy2 O5 85.2(4) . 8
O7 Dy2 O5 152.9(4) . 7_665
O7 Dy2 O5 84.3(6) 2_665 7_665
O2 Dy2 O5 68.3(2) 2_665 7_665
O2 Dy2 O5 122.1(2) . 7_665
O5 Dy2 O5 54.1(3) . 7_665
O5 Dy2 O5 109.2(4) 8 7_665
O7 Dy2 O5 84.3(6) . 2_665
O7 Dy2 O5 152.87(18) 2_665 2_665
O2 Dy2 O5 68.3(2) 2_665 2_665
O2 Dy2 O5 122.1(2) . 2_665
O5 Dy2 O5 109.2(4) . 2_665
O5 Dy2 O5 54.1(3) 8 2_665
O5 Dy2 O5 85.2(4) 7_665 2_665
O7 Dy2 C3 80.1(8) . 2_665
O7 Dy2 C3 174.1(8) 2_665 2_665
O2 Dy2 C3 94.8(3) 2_665 2_665
O2 Dy2 C3 94.8(3) . 2_665
O5 Dy2 C3 100.9(3) . 2_665
O5 Dy2 C3 27.23(16) 8 2_665
O5 Dy2 C3 100.9(3) 7_665 2_665
O5 Dy2 C3 27.23(16) 2_665 2_665
O7 Dy2 C3 174.1(8) . .
O7 Dy2 C3 80.1(8) 2_665 .
O2 Dy2 C3 94.8(3) 2_665 .
O2 Dy2 C3 94.8(3) . .
O5 Dy2 C3 27.23(16) . .
O5 Dy2 C3 100.9(3) 8 .
O5 Dy2 C3 27.23(17) 7_665 .
O5 Dy2 C3 100.9(3) 2_665 .
C3 Dy2 C3 105.7(6) 2_665 .
O7 Dy2 Dy1 75.4(3) . 8
O7 Dy2 Dy1 118.93(18) 2_665 8
O2 Dy2 Dy1 149.65(2) 2_665 8
O2 Dy2 Dy1 35.36(11) . 8
O5 Dy2 Dy1 81.75(17) . 8
O5 Dy2 Dy1 34.52(17) 8 8
O5 Dy2 Dy1 128.82(18) 7_665 8
O5 Dy2 Dy1 86.92(16) 2_665 8
C3 Dy2 Dy1 59.77(6) 2_665 8
C3 Dy2 Dy1 107.35(14) . 8
O7 Dy2 Dy1 118.93(18) . 7_665
O7 Dy2 Dy1 75.4(3) 2_665 7_665
O2 Dy2 Dy1 35.36(11) 2_665 7_665
O2 Dy2 Dy1 149.65(2) . 7_665
O5 Dy2 Dy1 86.92(16) . 7_665
O5 Dy2 Dy1 128.82(18) 8 7_665
O5 Dy2 Dy1 34.52(17) 7_665 7_665
O5 Dy2 Dy1 81.76(17) 2_665 7_665
C3 Dy2 Dy1 107.35(14) 2_665 7_665
C3 Dy2 Dy1 59.77(6) . 7_665
Dy1 Dy2 Dy1 160.41(3) 8 7_665
O4 Dy1 O3 99.7(3) . .
O4 Dy1 O5 140.2(2) . .
O3 Dy1 O5 93.5(3) . .
O4 Dy1 O1 74.6(3) . .
O3 Dy1 O1 75.9(4) . .
O5 Dy1 O1 145.2(3) . .
O4 Dy1 O4 71.9(3) . 12
O3 Dy1 O4 147.1(3) . 12
O5 Dy1 O4 76.6(2) . 12
O1 Dy1 O4 128.7(3) . 12
O4 Dy1 O4 70.5(3) . 2_565
O3 Dy1 O4 76.4(3) . 2_565
O5 Dy1 O4 76.5(3) . 2_565
O1 Dy1 O4 130.4(3) . 2_565
O4 Dy1 O4 70.8(3) 12 2_565
O4 Dy1 O2 151.3(3) . .
O3 Dy1 O2 75.3(3) . .
O5 Dy1 O2 68.5(3) . .
O1 Dy1 O2 76.7(3) . .
O4 Dy1 O2 126.9(3) 12 .
O4 Dy1 O2 132.8(3) 2_565 .
O4 Dy1 O6 99.0(2) . 11_455
O3 Dy1 O6 138.7(3) . 11_455
O5 Dy1 O6 95.2(3) . 11_455
O1 Dy1 O6 74.0(4) . 11_455
O4 Dy1 O6 74.1(3) 12 11_455
O4 Dy1 O6 144.8(3) 2_565 11_455
O2 Dy1 O6 70.7(3) . 11_455
O4 Dy1 Dy1 77.93(17) . 12
O3 Dy1 Dy1 111.6(3) . 12
O5 Dy1 Dy1 62.28(17) . 12
O1 Dy1 Dy1 152.5(2) . 12
O4 Dy1 Dy1 36.08(17) 12 12
O4 Dy1 Dy1 37.68(17) 2_565 12
O2 Dy1 Dy1 130.5(2) . 12
O6 Dy1 Dy1 108.1(3) 11_455 12
O4 Dy1 Dy1 37.21(18) . 11_455
O3 Dy1 Dy1 135.5(2) . 11_455
O5 Dy1 Dy1 114.21(18) . 11_455
O1 Dy1 Dy1 95.3(3) . 11_455
O4 Dy1 Dy1 37.77(15) 12 11_455
O4 Dy1 Dy1 77.24(18) 2_565 11_455
O2 Dy1 Dy1 146.02(18) . 11_455
O6 Dy1 Dy1 75.30(19) 11_455 11_455
Dy1 Dy1 Dy1 60.189(16) 12 11_455
O4 Dy1 Dy1 37.12(17) . 2_565
O3 Dy1 Dy1 77.9(2) . 2_565
O5 Dy1 Dy1 112.24(17) . 2_565
O1 Dy1 Dy1 98.1(2) . 2_565
O4 Dy1 Dy1 77.06(18) 12 2_565
O4 Dy1 Dy1 35.90(18) 2_565 2_565
O2 Dy1 Dy1 153.18(19) . 2_565
O6 Dy1 Dy1 133.79(18) 11_455 2_565
Dy1 Dy1 Dy1 59.905(8) 12 2_565
Dy1 Dy1 Dy1 59.905(8) 11_455 2_565
O4 Dy1 Dy1 128.45(17) . 8
O3 Dy1 Dy1 106.9(2) . 8
O5 Dy1 Dy1 81.75(17) . 8
O1 Dy1 Dy1 70.3(2) . 8
O4 Dy1 Dy1 102.77(18) 12 8
O4 Dy1 Dy1 158.17(18) 2_565 8
O2 Dy1 Dy1 35.18(18) . 8
O6 Dy1 Dy1 35.63(19) 11_455 8
Dy1 Dy1 Dy1 127.783(12) 12 8
Dy1 Dy1 Dy1 110.920(9) 11_455 8
Dy1 Dy1 Dy1 165.233(12) 2_565 8
Dy1 O4 Dy1 106.7(3) . 11_455
Dy1 O4 Dy1 107.0(3) . 2_565
Dy1 O4 Dy1 104.6(3) 11_455 2_565
Dy2 O2 Dy1 109.8(3) . .
Dy2 O2 Dy1 109.8(3) . 8
Dy1 O2 Dy1 109.6(4) . 8
C3 O5 Dy1 142.8(8) . .
C3 O5 Dy2 94.8(7) . .
Dy1 O5 Dy2 110.2(3) . .
O6 C3 O5 122.6(7) . 7_665
O6 C3 O5 122.6(7) . .
O5 C3 O5 114.7(14) 7_665 .
O6 C3 Dy2 167.9(11) . .
O5 C3 Dy2 58.0(7) 7_665 .
O5 C3 Dy2 58.0(7) . .
C1 O3 Dy1 130.8(10) . .
C2 O1 Dy1 135.0(10) . .
O3 C1 C1 134.5(7) . 2_565
O3 C1 C1 135.4(7) . 6_566
C1 C1 C1 89.95(8) 2_565 6_566
C3 O6 Dy1 121.7(3) . 12
C3 O6 Dy1 121.7(3) . 13
Dy1 O6 Dy1 108.7(4) 12 13
O1 C2 O1 128.7(18) . 8
O1 C2 H2 115.6 . .
O1 C2 H2 115.6 8 .
Dy2 O7 H7 109.5 . .
loop_
_geom_bond_atom_site_label_1
_geom_bond_atom_site_label_2
_geom_bond_distance
_geom_bond_site_symmetry_2
Dy2 O7 2.280(16) .
Dy2 O7 2.280(16) 2_665
Dy2 O2 2.365(10) 2_665
Dy2 O2 2.365(10) .
Dy2 O5 2.396(7) .
Dy2 O5 2.396(7) 8
Dy2 O5 2.396(7) 7_665
Dy2 O5 2.396(7) 2_665
Dy2 C3 2.816(16) 2_665
Dy2 C3 2.816(16) .
Dy2 Dy1 3.8970(7) 8
Dy2 Dy1 3.8970(7) 7_665
Dy1 O4 2.313(7) .
Dy1 O3 2.338(8) .
Dy1 O5 2.354(7) .
Dy1 O1 2.372(9) .
Dy1 O4 2.376(7) 12
Dy1 O4 2.380(6) 2_565
Dy1 O2 2.397(5) .
Dy1 O6 2.411(6) 11_455
Dy1 Dy1 3.7619(9) 12
Dy1 Dy1 3.7619(9) 11_455
Dy1 Dy1 3.7727(10) 2_565
Dy1 Dy1 3.9188(10) 8
O4 Dy1 2.375(7) 11_455
O4 Dy1 2.380(6) 2_565
O2 Dy1 2.397(5) 8
O5 C3 1.293(11) .
C3 O6 1.247(18) .
C3 O5 1.293(11) 7_665
O3 C1 1.256(15) .
O1 C2 1.285(12) .
C1 C1 1.46(3) 2_565
C1 C1 1.48(2) 6_566
O6 Dy1 2.411(6) 12
O6 Dy1 2.411(6) 13
C2 O1 1.285(12) 8
C2 H2 0.9500 .
O7 H7 0.8400 .
