#------------------------------------------------------------------------------
#$Date: 2019-11-23 01:06:35 +0200 (Sat, 23 Nov 2019) $
#$Revision: 231729 $
#$URL: file:///home/coder/svn-repositories/cod/cif/4/34/63/4346331.cif $
#------------------------------------------------------------------------------
#
# This file is available in the Crystallography Open Database (COD),
# http://www.crystallography.net/
#
# All data on this site have been placed in the public domain by the
# contributors.
#
data_4346331
loop_
_publ_author_name
'Aulakh, Darpandeep'
'Varghese, Juby R.'
'Wriedt, Mario'
_publ_section_title
;
 The Importance of Polymorphism in Metal-Organic Framework Studies.
;
_journal_issue                   17
_journal_name_full               'Inorganic chemistry'
_journal_page_first              8679
_journal_page_last               8684
_journal_paper_doi               10.1021/acs.inorgchem.5b01311
_journal_volume                  54
_journal_year                    2015
_chemical_formula_moiety         'C14 H18 Eu N3 O9'
_chemical_formula_sum            'C14 H18 Eu N3 O9'
_chemical_formula_weight         524.27
_space_group_crystal_system      monoclinic
_space_group_IT_number           15
_space_group_name_Hall           '-C 2yc'
_space_group_name_H-M_alt        'C 1 2/c 1'
_atom_sites_solution_hydrogens   geom
_audit_creation_method           SHELXL-2014/6
_cell_angle_alpha                90
_cell_angle_beta                 96.136(15)
_cell_angle_gamma                90
_cell_formula_units_Z            4
_cell_length_a                   17.200(7)
_cell_length_b                   10.737(4)
_cell_length_c                   10.684(4)
_cell_measurement_temperature    296(2)
_cell_volume                     1961.8(13)
_computing_cell_refinement       'APEX2 (Bruker, 2013)'
_computing_data_collection       'APEX2 (Bruker, 2013)'
_computing_data_reduction        'APEX2 (Bruker, 2013)'
_computing_molecular_graphics    'SHELXP-2014/6 (Sheldrick, 2014)'
_computing_structure_refinement  'SHELXL-2014/6 (Sheldrick, 2014)'
_computing_structure_solution    'SHELXT-2014/6 (Sheldrick, 2014)'
_diffrn_ambient_temperature      296(2)
_diffrn_measured_fraction_theta_full 1.000
_diffrn_measured_fraction_theta_max 0.994
_diffrn_measurement_device_type  'Bruker APEX II CCD area detector'
_diffrn_measurement_method       'omega scans'
_diffrn_radiation_type           MoK\a
_diffrn_radiation_wavelength     0.71073
_diffrn_reflns_av_R_equivalents  0.0553
_diffrn_reflns_av_unetI/netI     0.0457
_diffrn_reflns_Laue_measured_fraction_full 1.000
_diffrn_reflns_Laue_measured_fraction_max 0.994
_diffrn_reflns_limit_h_max       22
_diffrn_reflns_limit_h_min       -22
_diffrn_reflns_limit_k_max       14
_diffrn_reflns_limit_k_min       -14
_diffrn_reflns_limit_l_max       14
_diffrn_reflns_limit_l_min       -14
_diffrn_reflns_number            14145
_diffrn_reflns_point_group_measured_fraction_full 1.000
_diffrn_reflns_point_group_measured_fraction_max 0.994
_diffrn_reflns_theta_full        25.242
_diffrn_reflns_theta_max         28.342
_diffrn_reflns_theta_min         2.240
_diffrn_source                   'fine-focus sealed tube'
_exptl_absorpt_coefficient_mu    3.247
_exptl_absorpt_correction_T_max  0.774
_exptl_absorpt_correction_T_min  0.581
_exptl_absorpt_correction_type   multi-scan
_exptl_absorpt_process_details   'SADABS (Sheldrick 2014)'
_exptl_crystal_colour            white
_exptl_crystal_density_diffrn    1.775
_exptl_crystal_description       block
_exptl_crystal_F_000             1032
_exptl_crystal_size_max          0.19
_exptl_crystal_size_mid          0.14
_exptl_crystal_size_min          0.08
_refine_diff_density_max         1.241
_refine_diff_density_min         -0.714
_refine_diff_density_rms         0.125
_refine_ls_extinction_method     none
_refine_ls_goodness_of_fit_ref   1.021
_refine_ls_hydrogen_treatment    constr
_refine_ls_matrix_type           full
_refine_ls_number_parameters     137
_refine_ls_number_reflns         2451
_refine_ls_number_restraints     6
_refine_ls_restrained_S_all      1.023
_refine_ls_R_factor_all          0.0514
_refine_ls_R_factor_gt           0.0340
_refine_ls_shift/su_max          0.015
_refine_ls_shift/su_mean         0.001
_refine_ls_structure_factor_coef Fsqd
_refine_ls_weighting_details
'w=1/[\s^2^(Fo^2^)+(0.0441P)^2^] where P=(Fo^2^+2Fc^2^)/3'
_refine_ls_weighting_scheme      calc
_refine_ls_wR_factor_gt          0.0730
_refine_ls_wR_factor_ref         0.0792
_reflns_Friedel_coverage         0.000
_reflns_number_gt                2012
_reflns_number_total             2451
_reflns_threshold_expression     'I > 2\s(I)'
_cod_data_source_file            ic5b01311_si_003.cif
_cod_data_source_block           jv356_290k
_cod_original_cell_volume        1961.7(13)
_cod_original_sg_symbol_H-M      'C 2/c'
_cod_database_code               4346331
_shelx_space_group_comment
;
The symmetry employed for this shelxl refinement is uniquely defined
by the following loop, which should always be used as a source of
symmetry information in preference to the above space-group names.
They are only intended as comments.
;
_shelxl_version_number           2014/6
_shelx_res_file
;
TITL [Eu(bdc)(NO3)(DMF)2]n in C2/c at 290 K (jv356_290k)
CELL 0.71073 17.1997 10.7369 10.6836 90 96.136 90
ZERR 4 0.0067 0.004 0.0037 0 0.015 0
LATT 7
SYMM -X,+Y,0.5-Z
SFAC C H N O Eu
UNIT 56 72 12 36 4

EADP N21' N21

L.S. 10
PLAN  20
TEMP 23
ACTA

WGHT    0.044100
FVAR       0.25197
EU1   5    0.500000    0.543198    0.250000    10.50000    0.03186    0.03462 =
         0.02795    0.00000    0.00604    0.00000
O1    4    0.415210    0.580105    0.397482    11.00000    0.05836    0.09842 =
         0.04642    0.00988    0.02509    0.04192
O2    4    0.404267    0.524423    0.592958    11.00000    0.04642    0.06178 =
         0.04499    0.01072    0.00342    0.02296
O11   4    0.457505    0.328570    0.315874    11.00000    0.09764    0.06141 =
         0.08485    0.02407    0.00900   -0.02441
O12   4    0.500000    0.153990    0.250000    10.50000    0.31094    0.03408 =
         0.24316    0.00000   -0.01318    0.00000
O21   4    0.432052    0.728844    0.162752    11.00000    0.08247    0.05493 =
         0.05738    0.01498   -0.01912    0.00644
N11   3    0.500000    0.268006    0.250000    10.50000    0.14862    0.03231 =
         0.10125    0.00000   -0.02063    0.00000
C1    1    0.383611    0.585588    0.496663    11.00000    0.03252    0.04335 =
         0.03886   -0.00584    0.00657    0.00651
C2    1    0.314445    0.671553    0.498520    11.00000    0.03033    0.03747 =
         0.03530    0.00145    0.00699    0.00701
C3    1    0.280166    0.689182    0.608789    11.00000    0.04429    0.05396 =
         0.02659    0.00902    0.00649    0.01489
AFIX  43
H3    2    0.300350    0.648585    0.682042    11.00000   -1.20000
AFIX   0
C4    1    0.215773    0.767200    0.610589    11.00000    0.04098    0.05857 =
         0.03004    0.00311    0.01195    0.01822
AFIX  43
H4    2    0.192914    0.778409    0.684832    11.00000   -1.20000
AFIX   0
PART 1
N21'  3    0.364058    0.864491    0.038591    10.65000    0.10775    0.10020 =
         0.06761    0.03067    0.02756    0.06087
C21'  1    0.400324    0.757293    0.066447    10.65000    0.10218    0.06856 =
         0.04209    0.00333    0.00633    0.05419
AFIX  43
H21'  2    0.400116    0.699293    0.001759    10.65000   -1.20000
AFIX   0
C22'  1    0.351677    0.958748    0.125624    10.65000    0.11255
AFIX 137
H22A  2    0.308819    0.935935    0.171563    10.65000   -1.50000
H22B  2    0.339709    1.035474    0.081592    10.65000   -1.50000
H22C  2    0.398048    0.969200    0.183148    10.65000   -1.50000
AFIX   0
C23'  1    0.319349    0.880760   -0.091051    10.65000    0.13862
AFIX 137
H23A  2    0.347593    0.936278   -0.140203    10.65000   -1.50000
H23B  2    0.268609    0.914915   -0.082477    10.65000   -1.50000
H23C  2    0.313620    0.801356   -0.132315    10.65000   -1.50000
AFIX   0
SAME 0.02 0.04 N21' C21' C22' C23'
PART 0
PART 2
N21   3    0.410018    0.906077    0.042580    10.35000    0.10775    0.10020 =
         0.06761    0.03067    0.02756    0.06087
C21   1    0.452685    0.821123    0.107892    10.35000    0.09052    0.06286 =
         0.07415    0.01723   -0.02722    0.00678
AFIX  43
H21   2    0.506453    0.833377    0.112860    10.35000   -1.20000
AFIX   0
C22   1    0.428167    1.017615   -0.007085    10.35000    0.14890
AFIX 137
H22D  2    0.409263    1.083774    0.041986    10.35000   -1.50000
H22E  2    0.404171    1.023389   -0.092240    10.35000   -1.50000
H22F  2    0.483884    1.024437   -0.006068    10.35000   -1.50000
AFIX   0
C23   1    0.322519    0.867316    0.032808    10.35000   10.15000
AFIX 137
H23D  2    0.294251    0.924890    0.079701    10.35000   -1.50000
H23E  2    0.318266    0.785033    0.066568    10.35000   -1.50000
H23F  2    0.300994    0.868083   -0.053881    10.35000   -1.50000
AFIX   0
HKLF 4

REM  [Eu(bdc)(NO3)(DMF)2]n in C2/c at 290 K (jv356_290k)
REM R1 =  0.0340 for    2012 Fo > 4sig(Fo)  and  0.0514 for all    2451 data
REM    137 parameters refined using      6 restraints

END

WGHT      0.0446      0.0000

REM Highest difference peak  1.241,  deepest hole -0.714,  1-sigma level  0.125
Q1    1   0.5002  0.5410  0.4157  11.00000  0.05    1.24
Q2    1   0.4988  0.5477  0.5793  11.00000  0.05    0.98
Q3    1   0.5000  0.4552  0.2500  10.50000  0.05    0.97
Q4    1   0.5000  0.3597  0.2500  10.50000  0.05    0.71
Q5    1   0.3639  0.9402 -0.0992  11.00000  0.05    0.70
Q6    1   0.3270  0.9370  0.1320  11.00000  0.05    0.68
Q7    1   0.2895  0.8466 -0.0789  11.00000  0.05    0.65
Q8    1   0.3852  0.9700  0.0874  11.00000  0.05    0.62
Q9    1   0.4130  0.6782  0.1505  11.00000  0.05    0.46
Q10   1   0.4596  0.6570  0.2080  11.00000  0.05    0.46
Q11   1   0.5083  0.6622  0.2135  11.00000  0.05    0.45
Q12   1   0.5374  0.5085  0.2443  11.00000  0.05    0.45
Q13   1   0.4173  0.9508 -0.0719  11.00000  0.05    0.45
Q14   1   0.3800  0.5476  0.4404  11.00000  0.05    0.44
Q15   1   0.4895  0.7409  0.1658  11.00000  0.05    0.42
Q16   1   0.4301  0.5232  0.4082  11.00000  0.05    0.42
Q17   1   0.4571  0.4306  0.2126  11.00000  0.05    0.41
Q18   1   0.4217  0.4667  0.6881  11.00000  0.05    0.39
Q19   1   0.4684  0.5790  0.3511  11.00000  0.05    0.39
Q20   1   0.4489  0.7144  0.2242  11.00000  0.05    0.37
;
_shelx_res_checksum              81831
_shelx_hkl_file
;
  -2   0   0 6408.83 158.742   3
   2   0   0 6275.15 155.142   3
   2   0   0 6726.56 160.283   6
  -2   0   0 6598.13 160.194   6
   2   0   0 6661.53 159.474   5
  -2   0   0 6698.81 157.581   5
   4   0   0 1417.56 37.6558   5
   4   0   0 1415.35 40.2361   3
  -4   0   0 1486.11 40.4323   6
  -4   0   0 1416.10 37.4303   5
  -4   0   0 1368.67 39.9418   3
   6   0   0 769.582 25.6002   5
   6   0   0 774.343 29.2327   3
  -6   0   0 739.713 29.2673   6
  -6   0   0 752.420 25.5696   5
  -6   0   0 777.378 24.3700   7
  -6   0   0 726.546 28.2573   3
  -8   0   0 975.643 37.3414   6
  -8   0   0 981.481 32.6132   5
  -8   0   0 999.759 31.1141   7
  -8   0   0 1006.17 36.9919   3
  -8   0   0 999.059 33.7122   2
   8   0   0 999.186 37.0380   3
 -10   0   0 2828.14 77.2145   2
 -10   0   0 2879.52 80.8396   3
 -10   0   0 2688.62 80.4100   6
 -10   0   0 2758.74 74.5499   5
  10   0   0 2922.79 81.3868   3
 -10   0   0 2753.12 72.5904   7
 -12   0   0 1002.85 34.4193   7
  12   0   0 1042.67 43.4567   3
 -12   0   0 976.633 42.2902   6
 -12   0   0 1048.57 36.8058   5
 -14   0   0 758.879 29.9910   7
 -14   0   0 664.204 37.9617   6
  14   0   0 697.711 38.9330   3
 -14   0   0 820.204 36.9400   5
 -16   0   0 363.603 22.5337   7
  16   0   0 316.993 32.2757   3
 -16   0   0 367.236 34.4753   6
  18   0   0 323.911 34.1567   3
 -18   0   0 353.031 36.7547   6
 -18   0   0 310.274 33.2906   1
 -20   0   0 147.233 27.9513   1
 -20   0   0 122.750 28.3466   6
  20   0   0 176.802 29.6015   3
 -22   0   0 151.386 31.7467   1
 -22   0   0 131.829 31.9681   6
  22   0   0 154.187 30.3468   3
  -1  -1   0 5654.25 147.268   4
   1  -1   0 5824.10 142.100   4
  -1  -1   0 5756.47 137.292   6
  -1  -1   0 5591.07 139.660   3
  -1  -1   0 5507.68 137.578   1
   1   1   0 6012.72 137.548   1
  -1   1   0 6050.32 147.297   4
   1   1   0 5874.12 137.349   6
  -1   1   0 5883.07 138.272   1
   1   1   0 5721.07 133.523   2
   1   1   0 5361.16 132.207   3
  -3  -1   0 3584.93 84.5352   1
  -3  -1   0 3476.44 85.9414   3
  -3  -1   0 3568.76 81.1109   2
   3  -1   0 3481.34 80.8755   3
  -3  -1   0 3450.04 82.9076   5
  -3  -1   0 3492.88 82.6312   6
   3  -1   0 3497.95 82.3261   7
   3   1   0 3367.81 82.5307   6
   3   1   0 3460.17 83.9618   1
  -3   1   0 3414.24 80.9670   3
   3   1   0 3412.72 85.9110   3
   3   1   0 3403.16 81.1120   2
   3   1   0 3422.15 83.0010   5
  -3   1   0 3578.79 82.4316   7
   5  -1   0 1056.84 29.8247   7
  -5  -1   0 988.465 30.8419   5
  -5  -1   0 967.240 29.6277   2
  -5  -1   0 1030.65 34.6881   3
  -5  -1   0 998.332 32.2144   6
   5  -1   0 1037.58 30.7320   3
  -5  -1   0 975.243 33.2653   1
   5   1   0 1024.32 31.9353   6
  -5   1   0 1052.26 29.7087   7
   5   1   0 1043.79 36.2269   3
   5   1   0 1000.75 31.2422   5
  -5   1   0 993.539 33.6006   6
  -5   1   0 1039.40 30.8489   3
  -7  -1   0 628.248 28.7873   1
  -7  -1   0 698.582 25.6185   5
  -7  -1   0 685.522 25.1837   2
  -7  -1   0 681.031 30.2983   3
   7  -1   0 669.224 26.4114   3
  -7  -1   0 645.854 26.9043   6
   7   1   0 680.067 25.7599   5
  -7   1   0 653.898 29.9900   6
  -7   1   0 712.447 26.6421   3
   7   1   0 649.741 30.0036   3
  -7   1   0 677.209 24.4942   5
  -7   1   0 661.418 23.5529   7
  -9  -1   0 2420.56 68.7704   6
  -9  -1   0 2418.63 65.4695   2
  -9  -1   0 2338.07 64.8138   5
  -9  -1   0 2521.69 71.9159   3
   9  -1   0 2387.99 66.9500   3
   9   1   0 2316.22 65.3835   5
  -9   1   0 2372.48 70.4542   6
   9   1   0 2274.93 71.1098   3
  -9   1   0 2314.68 62.3228   7
  -9   1   0 2384.78 64.2738   5
  -9   1   0 2379.65 67.0912   3
 -11  -1   0 1589.74 56.4601   1
 -11  -1   0 1681.57 51.6297   2
 -11  -1   0 1697.20 51.2953   5
 -11  -1   0 1690.50 55.9394   6
  11  -1   0 1551.44 53.1203   3
 -11   1   0 1678.21 54.1807   3
 -11   1   0 1662.94 48.4126   7
 -11   1   0 1629.89 56.5648   6
  11   1   0 1645.07 51.5598   5
  11   1   0 1684.65 58.7864   3
 -11   1   0 1678.30 50.3036   5
  13  -1   0 709.554 34.6847   3
 -13  -1   0 646.700 28.1748   7
 -13  -1   0 616.920 34.8307   6
 -13  -1   0 734.726 31.2303   5
 -13  -1   0 683.591 38.3696   1
  13   1   0 689.154 39.6056   3
 -13   1   0 726.960 39.3965   6
  13   1   0 662.193 30.8287   5
 -13   1   0 696.573 28.3768   7
 -13   1   0 694.662 30.2780   5
 -15  -1   0 440.905 34.8702   1
 -15  -1   0 378.717 31.1106   6
 -15  -1   0 420.081 23.5865   7
  15  -1   0 366.928 29.2057   3
 -15   1   0 413.033 35.1748   6
 -15   1   0 381.333 23.4211   7
  15   1   0 425.583 35.2391   3
 -17  -1   0 317.489 34.8335   6
 -17  -1   0 341.472 22.9855   7
  17  -1   0 341.660 31.7292   3
 -17  -1   0 363.985 36.9450   1
 -17   1   0 383.023 37.7208   6
  17   1   0 313.946 33.7488   3
 -19  -1   0 202.599 31.9862   1
 -19  -1   0 199.819 31.5557   6
  19  -1   0 225.109 29.7459   3
  19   1   0 261.853 34.8192   3
 -19   1   0 245.542 34.6348   6
  21  -1   0 154.558 28.8383   3
 -21  -1   0 132.313 30.3587   1
 -21  -1   0 124.774 29.1514   6
  21   1   0 142.688 30.5961   3
 -21   1   0 125.131 27.6481   1
 -21   1   0 205.190 34.7068   6
   0  -2   0 741.219 22.8494   3
   0  -2   0 696.099 25.0970   1
   0  -2   0 632.769 24.2433   4
   0   2   0 696.608 24.9292   4
   0   2   0 671.811 21.4902   3
   0   2   0 678.562 23.7135   1
   2  -2   0 3013.61 75.4650   4
  -2  -2   0 2780.73 73.1148   1
  -2  -2   0 2899.85 77.2580   4
  -2  -2   0 2953.17 69.4977   6
  -2  -2   0 2910.23 74.7969   3
  -2   2   0 3126.81 75.1572   4
   2   2   0 2944.22 68.0669   2
   2   2   0 2985.89 73.4107   1
   2   2   0 3031.73 69.5551   6
   2   2   0 2794.36 74.1908   3
  -2   2   0 2854.47 73.7860   1
  -4  -2   0 96.7105 7.87043   2
  -4  -2   0 84.1327 13.3645   1
  -4  -2   0 107.720 15.0370   3
  -4  -2   0 121.660 10.9465   6
   4  -2   0 117.877 12.4597   7
  -4   2   0 101.095 7.25718   3
   4   2   0 112.621 8.66702   2
  -4   2   0 86.5884 13.7395   4
   4   2   0 88.2304 12.1303   5
   4   2   0 111.407 10.4164   6
   4   2   0 82.3658 12.4531   1
   4   2   0 104.674 14.9654   3
  -6  -2   0 1028.52 33.7105   5
  -6  -2   0 1017.54 37.3804   3
   6  -2   0 989.526 29.3560   3
   6  -2   0 985.375 31.8703   7
  -6  -2   0 1012.70 29.8278   2
  -6  -2   0 982.344 32.9679   6
  -6  -2   0 1002.05 35.2480   1
   6   2   0 953.291 37.7258   3
  -6   2   0 989.929 29.5614   3
   6   2   0 1036.26 32.8405   6
  -6   2   0 1005.69 38.8529   4
   6   2   0 1022.69 34.0123   5
  -8  -2   0 2308.54 69.3344   1
  -8  -2   0 2420.09 65.5881   5
   8  -2   0 2363.97 62.7877   3
   8  -2   0 2412.89 63.2112   7
  -8  -2   0 2320.73 65.9235   6
  -8  -2   0 2286.74 70.1871   3
  -8  -2   0 2458.77 62.6438   2
   8   2   0 2461.11 66.2044   6
  -8   2   0 2434.19 63.4375   3
   8   2   0 2337.36 72.5335   3
  -8   2   0 2304.25 69.0703   6
   8   2   0 2275.50 65.2111   5
 -10  -2   0 1254.47 44.9777   6
 -10  -2   0 1226.88 42.4423   5
 -10  -2   0 1322.87 41.1930   2
  10  -2   0 1324.42 42.0872   3
 -10  -2   0 1320.73 47.8781   1
 -10   2   0 1290.31 47.8158   6
  10   2   0 1234.97 42.9599   5
 -10   2   0 1309.02 42.6000   3
  10   2   0 1283.77 49.9576   3
 -10   2   0 1295.70 41.8197   5
 -12  -2   0 1162.87 41.2515   5
 -12  -2   0 1085.18 46.1938   1
 -12  -2   0 1103.16 44.4571   6
 -12  -2   0 1060.08 39.2181   2
  12  -2   0 1096.82 40.6570   3
 -12   2   0 1075.05 47.2876   6
 -12   2   0 1130.81 39.4245   5
 -12   2   0 1093.22 42.5565   3
  12   2   0 1169.66 50.4710   3
  12   2   0 1113.64 41.1359   5
 -14  -2   0 297.779 28.0868   6
  14  -2   0 287.055 24.3078   3
 -14  -2   0 265.235 29.7132   1
  14   2   0 319.462 34.4735   3
 -14   2   0 287.078 31.9050   6
  14   2   0 286.570 23.8710   5
 -16  -2   0 283.113 22.2955   7
  16  -2   0 295.579 27.4556   3
 -16  -2   0 263.265 31.0456   1
 -16  -2   0 245.558 29.6272   6
 -16   2   0 232.682 30.2149   6
  16   2   0 277.466 32.6336   3
  16   2   0 274.876 24.8157   5
 -18  -2   0 178.604 27.4154   1
 -18  -2   0 148.442 25.8119   6
  18  -2   0 174.552 23.8553   3
  18   2   0 188.289 30.8006   3
 -18   2   0 157.665 29.5520   6
 -20  -2   0 126.424 27.7264   6
  20  -2   0 178.270 25.2092   3
 -20  -2   0 137.727 28.5501   1
  20   2   0 124.350 30.0018   3
 -20   2   0 147.447 31.1585   6
 -22  -2   0 85.8913 26.0569   1
 -22  -2   0 102.551 29.3127   6
 -22   2   0 89.4398 28.2064   6
  22   2   0 104.910 30.0718   3
  -1  -3   0 876.498 34.2399   4
  -1  -3   0 979.410 31.9253   3
   1  -3   0 905.518 32.7075   1
   1  -3   0 956.175 34.7692   4
  -1  -3   0 972.360 32.6461   1
   1   3   0 960.656 34.9097   4
  -1   3   0 976.818 33.5477   1
  -1   3   0 978.939 27.6403   3
   1   3   0 904.163 26.5452   6
  -1   3   0 996.098 34.2957   4
   1   3   0 963.614 31.9972   1
   1   3   0 927.912 31.5961   3
   3  -3   0 1367.57 44.9952   4
  -3  -3   0 1320.69 47.0710   4
  -3  -3   0 1415.52 44.1552   3
  -3  -3   0 1384.01 43.3077   1
  -3  -3   0 1426.18 37.2053   6
  -3   3   0 1398.88 43.9616   1
  -3   3   0 1369.66 44.5727   4
   3   3   0 1384.86 36.8799   6
   3   3   0 1380.04 34.8622   2
   3   3   0 1394.59 42.0867   1
   3   3   0 1408.25 45.3842   3
  -5  -3   0 263.436 15.4965   6
   5  -3   0 221.287 18.7202   7
  -5  -3   0 268.358 23.2205   3
  -5  -3   0 241.281 12.0132   2
  -5  -3   0 238.335 19.6859   1
   5  -3   0 227.489 22.6233   4
   5   3   0 214.529 11.9566   2
  -5   3   0 258.019 8.75533   3
   5   3   0 251.733 19.8666   1
  -5   3   0 231.917 23.2399   4
   5   3   0 231.122 19.2451   5
   5   3   0 234.308 21.8295   3
   5   3   0 241.473 15.3029   6
  -7  -3   0 1761.64 46.8489   2
   7  -3   0 1774.08 51.7287   7
  -7  -3   0 1652.93 54.9973   1
  -7  -3   0 1725.80 50.9064   6
  -7  -3   0 1686.47 57.8466   3
   7   3   0 1806.50 55.3469   1
   7   3   0 1837.17 54.2406   5
  -7   3   0 1810.27 45.7059   3
   7   3   0 1727.57 58.7004   3
   7   3   0 1857.23 51.1511   6
  -7   3   0 1796.22 59.5566   4
  -9  -3   0 929.871 37.1306   5
   9  -3   0 989.292 35.1733   7
   9  -3   0 997.915 31.2485   3
  -9  -3   0 1036.59 32.3330   2
  -9  -3   0 976.125 40.1982   1
  -9  -3   0 1017.85 36.4056   6
   9   3   0 905.174 43.9909   3
  -9   3   0 966.277 40.2639   6
   9   3   0 1003.14 36.4823   6
   9   3   0 987.355 37.5410   5
  -9   3   0 1044.02 32.6715   3
  -9   3   0 995.983 43.7989   4
 -11  -3   0 807.189 29.9964   2
  11  -3   0 833.177 31.9201   7
 -11  -3   0 730.265 38.9102   1
  11  -3   0 755.598 29.7385   3
 -11  -3   0 778.882 34.4754   5
 -11  -3   0 812.463 35.4114   6
 -11   3   0 829.873 32.3470   3
 -11   3   0 749.994 38.1404   6
  11   3   0 774.579 34.7266   5
  11   3   0 877.216 43.7275   3
 -13  -3   0 387.518 22.7100   2
  13  -3   0 365.120 22.7299   3
 -13  -3   0 362.998 32.2539   1
 -13  -3   0 342.160 27.9148   6
  13   3   0 425.049 36.3290   3
 -13   3   0 370.559 33.2281   6
  13   3   0 369.328 25.9555   5
 -15  -3   0 138.488 23.4754   1
  15  -3   0 142.217 18.2966   3
 -15  -3   0 160.197 24.4033   6
  15   3   0 156.903 27.7970   3
 -15   3   0 130.710 23.8714   6
  15   3   0 167.969 21.6139   5
  17  -3   0 98.2182 17.0302   3
 -17  -3   0 86.0839 22.5009   1
 -17  -3   0 99.2656 23.6701   6
  17   3   0 105.676 26.3179   3
 -17   3   0 68.4669 23.3183   6
  17   3   0 117.702 20.3300   5
 -19  -3   0 148.468 27.1848   6
 -19  -3   0 106.565 25.8374   1
 -19   3   0 96.7016 28.2660   6
  19   3   0 168.211 31.8450   3
 -21  -3   0 75.1730 26.6711   6
 -21  -3   0 82.1101 27.3936   1
 -21   3   0 72.6176 25.8639   6
  21   3   0 57.8992 27.6542   3
   0  -4   0 843.423 35.6748   4
   0  -4   0 855.991 34.6354   1
   0   4   0 864.209 34.8548   4
   0   4   0 899.456 32.8507   1
   0   4   0 842.871 29.8275   3
  -2  -4   0 772.843 36.4730   4
  -2  -4   0 765.270 31.8273   3
  -2  -4   0 718.332 30.6550   1
   2  -4   0 718.165 32.5449   1
   2  -4   0 774.380 34.1422   4
  -2   4   0 809.882 32.6938   4
   2   4   0 785.308 31.6617   1
   2   4   0 739.766 24.1123   6
  -2   4   0 736.464 23.2007   3
   2   4   0 773.915 34.3809   4
  -2   4   0 739.166 31.1778   1
   2   4   0 753.363 31.2206   3
  -4  -4   0 470.331 19.3825   6
   4  -4   0 461.385 29.6122   4
  -4  -4   0 440.679 26.7984   3
  -4  -4   0 473.833 27.2911   1
  -4  -4   0 442.342 29.5797   4
   4   4   0 473.634 15.9460   2
  -4   4   0 435.060 25.8472   1
   4   4   0 484.890 25.7595   5
   4   4   0 480.980 19.2006   6
   4   4   0 439.339 28.3701   3
  -4   4   0 473.659 27.6815   4
  -6  -4   0 73.3594 15.7610   1
  -6  -4   0 61.8532 18.3779   4
  -6  -4   0 81.2504 11.2004   6
   6  -4   0 87.1964 15.5073   7
   6  -4   0 46.5494 15.9324   4
  -6  -4   0 84.5234 19.6443   3
   6   4   0 45.6205 15.8623   3
   6   4   0 67.4566 8.26658   2
   6   4   0 96.8077 12.0816   6
   6   4   0 73.9954 13.9374   1
  -6   4   0 89.9594 17.0514   1
   6   4   0 54.3863 13.6164   5
  -6   4   0 78.3319 17.6840   4
  -8  -4   0 307.175 15.1273   2
  -8  -4   0 293.429 24.1137   1
  -8  -4   0 314.886 20.3139   6
   8  -4   0 316.490 21.5900   7
  -8   4   0 321.163 30.2726   4
   8   4   0 320.967 23.7976   5
   8   4   0 270.292 27.3878   3
   8   4   0 325.145 19.9837   6
 -10  -4   0 429.250 29.5096   1
 -10  -4   0 408.992 19.3061   2
  10  -4   0 401.696 23.9356   7
 -10  -4   0 446.812 25.0346   6
  10   4   0 418.946 34.6029   3
 -10   4   0 389.953 28.4492   6
  10   4   0 426.711 27.1991   5
  10   4   0 457.311 25.5034   6
 -12  -4   0 189.865 16.4757   2
 -12  -4   0 184.817 23.8960   1
  12  -4   0 199.615 19.1418   7
 -12  -4   0 207.545 21.9159   6
 -12   4   0 187.358 25.9410   6
  12   4   0 239.512 24.3625   5
  12   4   0 175.084 26.9555   3
 -14  -4   0 141.767 24.2448   1
 -14  -4   0 178.074 24.0338   6
  14   4   0 203.416 23.6818   5
 -14   4   0 150.077 26.6008   6
  14   4   0 151.314 27.9948   3
 -16  -4   0 32.6972 20.8650   1
 -16  -4   0 29.8421 18.1974   6
  16   4   0 29.4636 15.5365   5
  16   4   0 19.7148 21.2405   3
 -16   4   0 38.3134 22.2575   6
 -18  -4   0 21.8298 20.8409   6
 -18  -4   0 80.3975 24.8423   1
 -18   4   0 50.5275 24.9452   6
  18   4   0 63.0664 19.8534   5
  18   4   0 55.1194 24.7875   3
 -20  -4   0 35.7774 23.2641   1
 -20  -4   0 24.4526 21.6893   6
  20   4   0 33.3914 24.8451   3
 -20   4   0 34.4809 25.5763   6
  -1  -5   0 342.898 28.6559   4
   1  -5   0 371.048 28.5028   4
  -1  -5   0 393.212 25.1487   3
  -1  -5   0 384.646 25.5429   1
   1  -5   0 360.644 27.9857   1
  -1   5   0 366.961 18.9645   3
   1   5   0 363.790 17.5676   6
   1   5   0 364.977 26.3751   4
   1   5   0 368.115 22.8446   3
  -1   5   0 413.613 26.5815   4
  -1   5   0 367.870 26.4181   1
   1   5   0 405.119 24.4641   1
  -3  -5   0 19.1907 8.33443   6
   3  -5   0 1.24011 13.8119   1
  -3  -5   0 31.9909 15.9846   3
  -3  -5   0 21.3590 13.3520   1
  -3  -5   0 26.9225 16.8928   4
   3  -5   0 32.7132 17.2671   4
   3   5   0 22.1812 14.0346   3
  -3   5   0 6.97434 5.99619   3
  -3   5   0 14.9568 12.5013   4
  -3   5   0 38.9617 14.6101   1
   3   5   0 31.4899 13.3084   1
   3   5   0 10.3902 7.80936   6
   5  -5   0 380.968 29.8242   4
  -5  -5   0 328.973 25.0111   1
  -5  -5   0 364.518 27.7129   3
  -5  -5   0 346.522 29.8509   4
  -5  -5   0 366.971 18.9070   6
   5   5   0 381.966 28.6200   1
  -5   5   0 381.043 28.8983   4
   5   5   0 379.096 18.1793   6
   5   5   0 344.830 14.2854   2
   5   5   0 346.586 25.2510   5
   5   5   0 299.474 27.1126   3
  -7  -5   0 13.5480 14.9019   4
  -7  -5   0 6.50502 12.1549   1
   7  -5   0 13.9403 15.2854   4
   7  -5   0 -13.916 11.5387   7
  -7  -5   0 5.31401 9.30550   6
   7   5   0 6.57721 8.29927   6
   7   5   0 -2.8522 5.56159   2
   7   5   0 5.15057 17.0350   3
  -7   5   0 7.05807 14.4592   4
   7   5   0 11.2171 14.0672   5
   9  -5   0 82.2627 16.3283   7
  -9  -5   0 63.3984 19.4774   4
  -9  -5   0 114.965 15.3539   6
  -9  -5   0 81.7360 17.4122   1
  -9   5   0 103.789 22.6884   4
   9   5   0 66.4452 16.1533   5
   9   5   0 89.5874 13.5891   6
   9   5   0 56.0157 19.2364   3
 -11  -5   0 37.0954 9.66716   2
 -11  -5   0 24.4339 13.2598   6
 -11  -5   0 28.4739 20.5150   4
 -11  -5   0 30.5629 15.7681   1
 -11   5   0 34.0141 16.0913   6
  11   5   0 29.4138 18.6296   3
  11   5   0 21.7895 15.5601   5
 -13  -5   0 30.0609 19.1308   1
 -13  -5   0 10.5790 18.9170   4
 -13  -5   0 29.0502 15.0444   6
 -13  -5   0 28.2267 9.95215   2
 -13   5   0 30.2864 18.4323   6
  13   5   0 38.7463 16.8851   5
  13   5   0 11.7033 20.0588   3
 -15  -5   0 12.3356 16.1694   6
 -15  -5   0 -20.012 20.4264   4
 -15  -5   0 1.22204 18.5093   1
  15   5   0 22.8575 15.7229   5
 -15   5   0 21.1379 18.4871   6
  15   5   0 18.3647 21.0262   3
 -17  -5   0 6.60123 22.9251   4
 -17  -5   0 -20.174 19.6949   1
 -17  -5   0 7.63068 17.9708   6
 -17   5   0 3.90058 22.4106   6
  17   5   0 3.79935 15.9582   5
  17   5   0 3.68928 24.2659   3
 -19  -5   0 4.13393 22.3944   1
 -19  -5   0 20.3595 26.2805   4
 -19  -5   0 -32.491 18.1354   6
 -19   5   0 18.7715 24.9559   6
  19   5   0 35.0962 26.9679   3
  19   5   0 -4.9541 16.7409   5
 -21  -5   0 -7.1131 21.1877   6
 -21  -5   0 17.1177 26.0431   4
 -21  -5   0 18.6134 24.4844   1
 -21   5   0 21.9714 25.8052   6
  21   5   0 16.4886 26.0141   3
   0  -6   0 4.57665 13.5909   1
   0  -6   0 3.55243 13.6587   4
   0   6   0 1.84276 8.77907   6
   0   6   0 -6.5857 11.1780   4
   0   6   0 -0.7923 10.1100   3
  -2  -6   0 20.8581 14.8144   1
   2  -6   0 28.2225 16.3278   4
   2  -6   0 14.2744 14.0709   1
  -2  -6   0 3.99050 14.4446   4
  -2   6   0 15.1234 8.49113   3
   2   6   0 20.6167 13.2602   3
  -2   6   0 10.1922 12.8057   4
   2   6   0 22.9693 8.68352   6
   2   6   0 21.0015 14.0484   4
   4  -6   0 37.6658 18.2874   4
  -4  -6   0 43.2393 18.2495   4
  -4  -6   0 24.8599 15.2122   1
  -4  -6   0 44.0230 19.0072   3
   4   6   0 62.9750 17.6897   3
   4   6   0 47.9457 8.10784   2
   4   6   0 40.6161 9.53575   6
  -4   6   0 57.0324 15.8770   4
  -4   6   0 48.8256 6.21077   3
  -6  -6   0 67.3859 21.7703   4
   6  -6   0 52.4699 18.8721   4
  -6  -6   0 66.7592 11.4413   6
  -6  -6   0 10.0710 14.4022   1
   6   6   0 50.8843 16.7230   5
   6   6   0 55.2313 18.5135   3
   6   6   0 48.3282 10.5743   6
  -6   6   0 52.0639 17.4949   4
   6   6   0 50.0801 7.19146   2
  -8  -6   0 5.10971 11.0516   6
  -8  -6   0 20.5191 17.4214   4
   8  -6   0 16.3075 16.2464   4
  -8  -6   0 22.1532 17.4079   1
   8   6   0 26.4956 10.4960   6
   8   6   0 21.6676 17.0209   3
   8   6   0 14.7648 14.3627   5
   8   6   0 14.9524 6.03735   2
 -10  -6   0 46.7157 13.5134   6
 -10  -6   0 29.3718 16.6972   1
 -10  -6   0 17.9270 20.1153   4
  10   6   0 10.1930 10.9120   6
  10   6   0 32.9264 16.0408   5
  10   6   0 15.5585 18.6413   3
 -12  -6   0 22.4946 21.5524   4
 -12  -6   0 9.89910 16.8351   1
 -12  -6   0 19.2626 13.5875   6
  12   6   0 28.5774 21.3637   3
  12   6   0 14.0460 16.2812   5
 -12   6   0 34.2728 19.0061   6
 -14  -6   0 -15.279 21.2534   4
 -14  -6   0 -4.2145 18.1326   1
 -14  -6   0 35.6235 16.3691   6
  14   6   0 1.24712 15.1636   5
 -14   6   0 6.40617 19.0148   6
  14   6   0 13.8727 21.3151   3
 -16  -6   0 2.66622 16.2161   6
 -16  -6   0 -19.779 17.6875   1
 -16  -6   0 17.2881 22.5366   4
  16   6   0 -8.2405 15.7790   5
 -16   6   0 -0.3356 18.3599   6
  16   6   0 -11.964 21.2506   3
 -18  -6   0 50.0690 28.6910   4
 -18  -6   0 -1.7633 17.3639   6
 -18  -6   0 -6.4055 21.3236   1
 -18   6   0 10.7393 19.7971   6
  18   6   0 -1.2695 16.2179   5
  18   6   0 8.79200 24.3611   3
 -20  -6   0 -3.5261 25.2281   4
 -20  -6   0 -11.107 23.1802   1
 -20  -6   0 -2.3515 19.8144   6
 -20   6   0 24.7480 22.8034   6
  20   6   0 -17.580 25.2536   3
   1  -7   0 395.943 33.6248   4
  -1  -7   0 463.592 35.0650   4
  -1  -7   0 478.991 32.0646   1
   1  -7   0 372.574 32.6536   1
   1   7   0 446.405 20.6154   6
   1   7   0 390.258 25.0856   3
  -1   7   0 433.880 22.7671   3
  -1   7   0 482.816 32.1541   4
  -3  -7   0 98.5184 18.9648   1
   3  -7   0 60.9536 18.0070   1
   3  -7   0 127.553 23.9251   4
  -3  -7   0 84.4590 21.1283   4
  -3   7   0 109.975 20.4175   4
   3   7   0 121.489 19.9066   3
   3   7   0 140.856 13.0959   6
  -3   7   0 141.146 12.3886   3
   5  -7   0 93.7176 23.8003   4
  -5  -7   0 97.5669 22.5361   4
  -5  -7   0 99.5129 22.2900   1
   5   7   0 134.218 24.4655   5
   5   7   0 122.255 10.2302   2
  -5   7   0 115.807 20.3414   4
   5   7   0 121.315 21.3160   3
   5   7   0 116.236 12.6289   6
  -7  -7   0 69.7901 13.0016   6
   7  -7   0 52.3462 19.7312   4
  -7  -7   0 51.0359 22.3302   4
  -7  -7   0 62.6348 20.6726   1
   7   7   0 71.0485 7.81799   2
   7   7   0 52.1977 19.5690   5
   7   7   0 62.7599 19.7023   3
   7   7   0 88.1795 12.1339   6
  -9  -7   0 135.559 16.8443   6
  -9  -7   0 163.735 30.0213   4
  -9  -7   0 120.718 24.5279   1
   9   7   0 147.310 28.2353   3
   9   7   0 152.497 26.0095   5
   9   7   0 180.274 17.1149   6
 -11  -7   0 39.3607 22.0366   4
 -11  -7   0 11.5623 19.2552   1
 -11  -7   0 19.0133 13.6554   6
  11   7   0 44.9047 17.9213   5
 -11   7   0 45.7029 18.9239   6
  11   7   0 15.9622 21.1704   3
 -13  -7   0 76.4544 17.9607   6
 -13  -7   0 38.4487 19.8964   1
 -13  -7   0 52.8425 25.1096   4
  13   7   0 46.8201 22.9514   3
  13   7   0 51.2017 20.2570   5
 -13   7   0 61.8572 21.4538   6
 -15  -7   0 18.8604 20.5864   1
 -15  -7   0 47.6027 27.0742   4
 -15  -7   0 55.1645 18.4873   6
  15   7   0 3.79866 23.1191   3
  15   7   0 34.3565 19.6025   5
 -15   7   0 30.5126 20.0156   6
 -17  -7   0 28.0997 25.8646   4
 -17  -7   0 0.02901 22.9241   1
 -17  -7   0 19.7407 18.6909   6
  17   7   0 22.8739 23.9985   3
  17   7   0 24.8309 19.7666   5
 -17   7   0 25.0287 22.1037   6
 -19  -7   0 -2.4508 24.1534   1
 -19  -7   0 11.2581 25.5374   4
  19   7   0 28.0886 27.6816   3
 -19   7   0 0.30998 23.4085   6
  19   7   0 1.00919 18.7874   5
   0  -8   0 337.418 34.5375   4
   0  -8   0 336.962 31.4462   1
   0   8   0 331.789 23.0892   3
   0   8   0 313.703 20.3375   6
   2  -8   0 161.043 24.2453   1
   2  -8   0 228.988 29.1582   4
  -2  -8   0 169.311 25.7177   1
  -2  -8   0 140.063 23.8196   4
   2   8   0 212.252 17.1823   6
  -2   8   0 195.233 16.9503   3
   2   8   0 220.920 23.8002   3
   4  -8   0 214.521 26.6889   1
  -4  -8   0 295.987 34.6235   4
   4  -8   0 309.304 33.7006   4
  -4  -8   0 367.728 32.5315   1
   4   8   0 315.011 18.4905   6
   4   8   0 252.317 26.2918   3
  -4   8   0 309.077 15.2164   3
   6  -8   0 248.609 31.8733   4
  -6  -8   0 237.909 32.9290   4
  -6  -8   0 193.752 27.2789   1
   6   8   0 242.856 17.2658   6
   6   8   0 217.510 12.3508   2
   6   8   0 247.725 29.7801   5
   6   8   0 216.317 26.9237   3
   8  -8   0 110.273 24.8069   4
  -8  -8   0 154.911 16.5585   6
  -8  -8   0 142.747 29.9865   4
  -8  -8   0 130.071 25.5335   1
   8   8   0 101.572 23.1482   5
   8   8   0 119.812 25.7895   3
   8   8   0 144.241 15.0583   6
   8   8   0 120.369 8.74530   2
 -10  -8   0 119.654 30.0828   4
 -10  -8   0 107.581 16.6830   6
 -10  -8   0 86.7269 22.4634   1
  10   8   0 50.0839 21.3640   5
  10   8   0 89.8163 26.0556   3
 -12  -8   0 86.3800 24.2028   1
 -12  -8   0 92.8154 31.1510   4
 -12  -8   0 134.328 19.3065   6
  12   8   0 105.752 24.6758   5
 -12   8   0 85.5061 22.6024   6
  12   8   0 151.378 30.3305   3
 -14  -8   0 38.8783 17.2160   6
 -14  -8   0 81.7884 26.9172   1
 -14  -8   0 35.2997 27.5946   4
  14   8   0 69.1306 22.1840   5
  14   8   0 39.4774 26.3666   3
 -14   8   0 56.5739 20.7945   6
 -16  -8   0 87.5884 30.5643   4
 -16  -8   0 42.5383 24.8170   1
 -16   8   0 36.6298 22.1402   6
  16   8   0 48.3291 22.4718   5
  16   8   0 53.5568 27.1297   3
 -18  -8   0 24.0672 27.5546   4
 -18  -8   0 21.3316 26.6141   1
  18   8   0 39.6234 27.5882   3
 -18   8   0 28.6274 24.7099   6
  18   8   0 68.7643 24.4743   5
   1  -9   0 277.220 34.7255   4
  -1  -9   0 250.802 31.6492   1
   1  -9   0 235.284 30.5987   1
  -1  -9   0 287.123 35.1918   4
   1   9   0 280.913 19.2923   6
  -1   9   0 255.239 21.8209   3
   1   9   0 266.741 23.8434   3
  -1   9   0 248.020 20.4399   6
  -3  -9   0 236.508 33.4476   4
  -3  -9   0 339.324 35.5326   1
   3  -9   0 254.504 34.1619   4
   3  -9   0 234.233 28.7909   1
  -3   9   0 258.707 18.0136   3
   3   9   0 278.523 18.6498   6
   3   9   0 251.460 27.9096   3
  -5  -9   0 303.308 32.3508   1
  -5  -9   0 317.312 38.1495   4
   5  -9   0 284.022 35.7295   4
   5   9   0 323.865 35.6752   5
   5   9   0 327.093 16.2392   2
   5   9   0 299.590 31.5409   3
   5   9   0 300.842 18.7625   6
   7  -9   0 221.729 31.6961   4
  -7  -9   0 248.934 37.5568   4
  -7  -9   0 294.269 34.3135   1
   7   9   0 228.701 30.7275   5
   7   9   0 277.609 33.0581   3
   7   9   0 253.052 11.9021   2
  -9  -9   0 205.740 19.3721   6
   9  -9   0 192.899 30.4449   4
  -9  -9   0 200.742 31.8710   1
  -9  -9   0 185.921 36.0006   4
   9   9   0 151.605 26.6482   5
   9   9   0 173.300 32.1111   3
 -11  -9   0 252.843 23.3479   6
 -11  -9   0 175.405 35.3820   4
 -11  -9   0 201.756 32.9645   1
  11   9   0 216.599 34.8693   3
  11   9   0 258.486 33.6974   5
 -11   9   0 170.388 25.6044   6
 -13  -9   0 103.544 26.6438   1
 -13  -9   0 63.7403 27.7330   4
  13   9   0 67.6950 26.4443   3
  13   9   0 91.5278 24.7847   5
 -13   9   0 96.4982 24.2671   6
 -15  -9   0 49.5057 31.5185   4
 -15  -9   0 99.2498 29.6939   1
  15   9   0 64.8646 28.1789   3
 -15   9   0 40.2922 21.3161   6
  15   9   0 84.5311 24.0496   5
 -17  -9   0 117.006 31.4473   1
 -17  -9   0 56.6452 30.2165   4
  17   9   0 42.2658 29.8999   3
  17   9   0 104.797 27.4813   5
 -17   9   0 49.9749 23.4479   6
   0 -10   0 460.256 42.5034   1
   0 -10   0 517.415 48.1144   4
   0  10   0 452.119 29.6904   3
  -2 -10   0 402.406 39.8719   1
   2 -10   0 372.227 38.3574   1
  -2 -10   0 389.683 43.0594   4
   2 -10   0 450.527 45.2415   4
   2  10   0 416.601 31.8771   3
  -2  10   0 387.646 23.7943   3
  -4 -10   0 350.631 41.9534   4
  -4 -10   0 391.435 39.9362   1
   4 -10   0 334.597 40.7512   4
   4  10   0 339.507 19.7661   2
  -4  10   0 378.631 20.1727   3
   4  10   0 402.066 33.3134   3
  -6 -10   0 389.272 45.0559   4
   6 -10   0 408.148 42.3600   4
  -6 -10   0 293.239 35.4630   1
   6  10   0 396.757 36.8604   3
   6  10   0 394.050 41.7517   5
   8 -10   0 219.167 31.8021   4
  -8 -10   0 260.065 40.2928   4
  -8 -10   0 226.830 32.7031   1
   8  10   0 254.282 35.2057   3
   8  10   0 207.045 30.9868   5
 -10 -10   0 178.282 32.6550   1
 -10 -10   0 151.655 36.0510   4
  10  10   0 132.884 28.8855   5
  10  10   0 172.730 32.1490   3
 -10  10   0 192.024 26.1666   6
 -12 -10   0 173.693 33.9632   1
 -12 -10   0 141.115 35.4430   4
 -12  10   0 147.406 27.2574   6
  12  10   0 131.811 33.5431   3
  12  10   0 123.667 26.5643   5
 -14 -10   0 152.478 39.4340   4
 -14 -10   0 104.561 28.9868   1
  14  10   0 111.279 31.8895   3
 -14  10   0 119.904 27.9049   6
  14  10   0 167.871 30.3220   5
 -16 -10   0 48.4238 31.7517   4
 -16 -10   0 74.0800 28.8919   1
  16  10   0 56.6003 29.9908   3
 -16  10   0 87.9107 28.4792   6
  16  10   0 127.604 29.2504   5
  -1 -11   0 273.762 39.7841   4
   1 -11   0 273.892 41.1567   4
  -1 -11   0 182.391 31.5586   1
   1 -11   0 240.377 33.7809   1
   1  11   0 312.854 27.3730   3
  -1  11   0 291.466 24.4713   3
   3 -11   0 368.935 38.0927   1
  -3 -11   0 316.002 37.3758   1
   3 -11   0 420.912 46.6508   4
  -3 -11   0 375.215 44.0963   4
   3  11   0 402.542 34.0983   3
   5 -11   0 255.558 39.3107   4
  -5 -11   0 246.275 37.3269   1
  -5 -11   0 247.165 38.7538   4
   5  11   0 163.187 30.8133   5
   5  11   0 208.396 29.0207   3
  -7 -11   0 154.740 33.6644   1
   7 -11   0 166.454 33.3805   4
  -7 -11   0 172.913 36.6712   4
   7  11   0 125.860 27.2962   3
   7  11   0 173.346 31.1597   5
  -9 -11   0 121.119 32.9277   4
   9 -11   0 213.095 33.6498   4
  -9 -11   0 169.335 32.7965   1
   9  11   0 172.153 30.6664   3
   9  11   0 134.309 29.5360   5
 -11 -11   0 165.569 39.4564   4
 -11 -11   0 158.671 35.2476   1
  11  11   0 121.042 30.3374   5
 -11  11   0 124.285 24.7906   6
  11  11   0 132.557 29.4402   3
 -13 -11   0 157.728 35.5774   1
 -13 -11   0 90.8336 33.8955   4
  13  11   0 146.766 30.8478   5
  13  11   0 140.044 33.4208   3
 -13  11   0 202.373 30.9073   6
   0 -12   0 112.833 30.8049   1
   0 -12   0 40.8009 31.2357   4
   2 -12   0 147.878 38.6568   4
   2 -12   0 230.111 36.2216   1
  -2 -12   0 163.064 32.7980   1
  -2 -12   0 140.288 35.2269   4
   2  12   0 160.964 24.7921   3
  -4 -12   0 155.458 34.0758   1
  -4 -12   0 160.684 36.6178   4
   4 -12   0 155.126 38.5549   4
   4  12   0 140.701 26.1198   3
   4  12   0 142.669 32.0893   5
   6 -12   0 141.372 35.7848   4
  -6 -12   0 77.6079 32.0574   1
  -6 -12   0 110.830 32.2221   4
   6  12   0 189.588 30.1730   3
   6  12   0 214.085 34.6351   5
  -8 -12   0 132.266 33.6416   1
   8 -12   0 170.222 32.3899   4
  -8 -12   0 110.360 38.0202   4
   8  12   0 119.676 31.4920   5
   8  12   0 187.959 31.8842   3
 -10 -12   0 116.189 37.4976   4
 -10 -12   0 53.9265 28.0671   1
 -10  12   0 86.5420 22.5340   6
  10  12   0 87.7014 29.4361   5
  10  12   0 86.5213 28.7551   3
 -12 -12   0 78.6661 32.5480   4
 -12 -12   0 55.6217 31.5494   1
 -12  12   0 94.9831 24.6545   6
  12  12   0 137.514 34.3980   3
  12  12   0 102.117 26.9447   5
  -1 -13   0 62.2314 35.0237   4
  -1 -13   0 100.409 32.0749   1
   1 -13   0 -35.338 32.6639   4
   1 -13   0 116.681 33.3033   1
  -3 -13   0 144.643 34.6676   1
   3 -13   0 30.5147 37.9294   4
  -3 -13   0 101.152 38.3209   4
   3  13   0 41.6753 29.5125   5
  -5 -13   0 98.8141 32.4460   1
   5 -13   0 42.5123 36.9140   4
  -5 -13   0 59.6622 35.0726   4
   5  13   0 66.2768 29.6155   5
   5  13   0 149.515 27.7874   3
  -7 -13   0 92.7508 32.6747   1
  -7 -13   0 35.3608 30.8387   4
   7  13   0 90.3933 25.2972   3
   7  13   0 150.564 33.0874   5
  -9 -13   0 -0.0549 29.5015   1
  -9 -13   0 44.0985 34.5068   4
   9  13   0 60.0204 27.1219   5
   9  13   0 55.6105 25.4195   3
   0 -14   0 -24.902 37.3195   4
   0 -14   0 101.197 33.0200   1
  -2 -14   0 77.5513 31.6952   1
  -2 -14   0 -59.995 32.0118   4
   2 -14   0 71.8359 29.7528   1
   2  14   0 29.4235 30.1819   5
  -4 -14   0 56.9568 32.7732   1
  -4 -14   0 -19.252 35.1276   4
   4  14   0 25.2489 30.6005   5
 -22   0   1 -16.710 22.4931   6
 -22   0   1 -1.1913 21.7477   1
  22   0  -1 -22.600 18.0799   3
  20   0  -1 1.99318 20.4254   3
 -20   0   1 -1.2948 21.0131   6
 -20   0   1 2.91367 17.8142   1
 -18   0   1 -6.8082 16.9746   1
 -18   0   1 10.1725 19.4609   6
  18   0  -1 -22.309 16.1316   3
 -18   0   1 14.0626 12.9600   7
 -16   0   1 -5.4653 10.9106   7
  16   0  -1 21.5485 17.5819   3
 -16   0   1 44.4035 19.0442   6
  14   0  -1 7.71754 16.4569   3
 -14   0   1 -6.6153 10.4967   7
 -14   0   1 26.5215 17.1359   6
 -12   0   1 11.3012 13.9361   6
  12   0  -1 -12.948 13.1837   3
 -12   0   1 7.18300 11.0072   5
 -12   0   1 4.32055 9.24182   7
 -10   0   1 -12.501 10.9361   3
 -10   0   1 2.79384 10.0783   5
 -10   0   1 5.34599 8.69888   2
  10   0  -1 -1.5214 12.0064   3
 -10   0   1 8.45070 13.3615   6
 -10   0   1 18.3652 9.57951   7
   8   0  -1 7.30447 12.1979   3
  -8   0   1 -7.8393 8.03746   2
  -8   0   1 11.6240 8.69196   7
  -8   0   1 -0.8059 11.2220   3
  -8   0   1 -5.5237 10.4595   6
  -8   0   1 0.09916 9.56637   5
   6   0  -1 -12.004 10.7107   3
  -6   0   1 12.0844 8.61197   5
   6   0  -1 6.48504 9.92243   5
  -6   0   1 10.9407 11.1015   3
  -6   0   1 21.6383 9.30647   2
  -4   0   1 -4.9071 8.01617   2
   4   0  -1 5.40184 9.70461   3
  -4   0   1 -2.9264 10.1260   3
   4   0  -1 -1.7076 8.73057   2
   4   0  -1 -6.2493 8.31176   5
  -4   0   1 6.20055 7.98240   5
   2   0  -1 3.72561 5.71438   2
  -2   0   1 -2.3299 5.79098   3
  -2   0   1 -2.4549 5.91522   5
  -2   0   1 5.60678 5.19189   4
   2   0  -1 1.88213 6.61436   5
  -2   0   1 -1.2638 6.00614   2
   0   0   1 -1.6386 1.33464   1
   0   0   1 1.29692 3.30897   5
   0   0  -1 3.93159 4.62776   4
   0   0  -1 1.00464 3.74813   6
   0   0  -1 -0.7318 1.85942   1
   0   0   1 4.79425 3.27950   4
   0   0  -1 -0.0365 2.34642   5
   0   0   1 -2.9256 3.51356   6
   2   0   1 8.05207 7.88201   6
  -2   0  -1 -0.6701 7.36291   6
  -4   0  -1 1.18888 2.80161   7
   4   0   1 1.25282 8.75437   6
  -4   0  -1 3.90107 4.63756   5
  -4   0  -1 -3.1257 10.1638   6
   4   0   1 12.6937 12.3494   3
   4   0   1 1.02258 4.84452   5
   6   0   1 -0.9984 10.2656   6
  -6   0  -1 1.09462 5.98236   5
  -6   0  -1 7.88287 10.9871   6
   6   0   1 -6.9874 11.8091   3
  -6   0  -1 -5.4181 4.16873   7
   8   0   1 -2.4409 11.1808   6
   8   0   1 -12.991 12.1861   3
  -8   0  -1 -5.7861 5.33764   7
  -8   0  -1 -3.7600 6.93729   5
  -8   0  -1 2.67673 11.9686   6
 -10   0  -1 10.3476 8.05870   5
 -10   0  -1 2.96231 5.79670   7
 -10   0  -1 -14.790 12.8945   6
  10   0   1 15.7419 12.9873   3
 -12   0  -1 6.16080 8.68203   5
  12   0   1 -0.6468 13.7863   3
 -12   0  -1 -3.7219 6.71610   7
 -12   0  -1 -1.0470 13.9205   6
 -14   0  -1 -16.279 16.2271   6
 -14   0  -1 -14.612 7.24334   7
 -14   0  -1 12.6268 9.97599   5
  14   0   1 3.96002 14.4220   3
 -16   0  -1 11.5214 19.7404   6
 -16   0  -1 -0.0976 15.0693   1
  16   0   1 -11.512 15.9942   3
 -16   0  -1 -21.738 8.39338   7
 -18   0  -1 -25.876 19.5330   6
 -18   0  -1 2.14795 18.5262   1
  18   0   1 -14.996 16.4874   3
 -20   0  -1 7.46084 22.5862   6
  20   0   1 -6.2997 18.2645   3
 -20   0  -1 -0.4812 20.0396   1
 -22   0  -1 -19.448 19.1145   1
 -22   0  -1 -14.260 22.9845   6
  22   0   1 21.9451 21.5517   3
 -21  -1   1 8.93446 21.8055   6
  21  -1  -1 11.1981 19.5032   3
 -21  -1   1 39.5026 21.6571   1
 -21   1   1 24.9245 23.6041   6
  21   1  -1 32.9418 23.6438   3
 -21   1   1 11.9833 19.1182   1
 -19  -1   1 0.17173 18.7533   1
 -19  -1   1 21.1952 18.8794   6
  19  -1  -1 27.2240 19.2406   3
 -19   1   1 1.54860 18.9687   6
  19   1  -1 -7.0531 18.9008   3
 -17  -1   1 6.94414 18.2306   1
  17  -1  -1 28.8939 18.4403   3
 -17  -1   1 25.9168 18.5299   6
 -17  -1   1 39.2414 13.9688   7
  17   1  -1 28.0107 20.8133   3
 -17   1   1 6.81145 12.7375   7
 -17   1   1 7.08770 18.4093   6
  15  -1  -1 70.6200 18.9808   3
 -15  -1   1 50.3195 19.7213   6
 -15  -1   1 40.3234 17.9321   1
 -15  -1   1 60.1250 14.5068   7
 -15   1   1 43.0648 13.3850   7
  15   1  -1 57.8233 20.9224   3
 -15   1   1 30.6414 18.1617   6
 -13  -1   1 89.2722 18.8088   1
  13  -1  -1 146.215 20.8006   3
 -13  -1   1 103.924 14.8995   7
 -13  -1   1 123.211 20.6013   6
  13   1  -1 136.722 21.4093   3
  13   1  -1 113.956 17.9283   5
 -13   1   1 100.370 19.5759   6
 -13   1   1 94.9897 15.2167   7
 -11  -1   1 19.4824 13.7810   1
 -11  -1   1 19.7513 11.6736   2
 -11  -1   1 44.9481 14.3454   6
  11  -1  -1 41.9576 14.1688   3
 -11  -1   1 25.2856 11.4935   5
 -11   1   1 34.8385 11.5918   5
 -11   1   1 23.7774 15.6071   6
 -11   1   1 32.6099 12.7110   3
  11   1  -1 25.5803 16.1434   3
  11   1  -1 32.4472 12.3614   5
 -11   1   1 9.80567 9.58632   7
  -9  -1   1 251.337 21.1839   3
  -9  -1   1 265.245 17.8064   2
  -9  -1   1 230.584 19.9319   6
  -9  -1   1 249.680 19.0381   5
   9  -1  -1 247.899 20.1195   3
  -9   1   1 261.335 18.1258   7
  -9   1   1 268.463 19.9527   2
  -9   1   1 238.765 17.9925   5
   9   1  -1 270.155 24.4169   3
  -9   1   1 279.476 20.8298   3
  -9   1   1 269.002 23.4004   6
   9   1  -1 309.963 21.2311   5
   7  -1  -1 8.99888 10.4179   3
  -7  -1   1 25.6918 10.2932   5
  -7  -1   1 9.97256 10.2761   1
  -7  -1   1 18.0553 11.3081   3
  -7  -1   1 30.0780 9.43782   2
  -7  -1   1 11.0086 9.15735   6
  -7   1   1 2.71069 7.82330   7
   7   1  -1 21.9131 11.2248   5
  -7   1   1 31.3262 10.5081   3
   7   1  -1 33.9997 15.1216   3
  -7   1   1 21.1837 10.0760   5
  -7   1   1 30.5602 11.6332   2
   5  -1  -1 20.2865 9.21854   3
  -5  -1   1 28.2754 10.3653   3
  -5  -1   1 29.5236 9.79591   1
  -5  -1   1 27.6267 8.00647   2
  -5  -1   1 6.99933 8.33266   6
  -5  -1   1 19.4687 9.26176   5
   5  -1  -1 26.0629 9.28179   7
   5   1  -1 42.7017 13.4016   3
   5   1  -1 34.0229 9.85103   2
  -5   1   1 26.7079 10.2207   2
  -5   1   1 24.6320 8.92338   3
   5   1  -1 17.8969 9.79307   5
  -5   1   1 24.1579 8.13814   7
  -3  -1   1 633.333 20.2527   2
   3  -1  -1 579.282 22.3599   7
  -3  -1   1 561.154 24.1579   4
  -3  -1   1 586.992 21.4829   5
  -3  -1   1 609.067 23.0221   3
  -3  -1   1 594.707 20.1651   1
   3   1  -1 609.116 20.6558   1
  -3   1   1 627.036 21.7784   2
   3   1  -1 585.462 22.0788   5
   3   1  -1 636.147 24.6649   3
   3   1  -1 623.424 20.5892   2
  -3   1   1 621.094 21.6676   7
   1  -1  -1 15.6557 5.33494   2
  -1  -1   1 8.38400 6.96229   3
   1  -1  -1 12.7615 6.61131   7
  -1  -1   1 16.9836 4.08573   1
   1  -1  -1 7.09431 6.79829   1
  -1  -1   1 9.51665 7.48611   4
  -1  -1   1 12.6480 7.04768   5
  -1  -1   1 9.70790 2.37246   6
  -1   1   1 11.8045 5.53411   2
   1   1  -1 15.6686 4.68532   1
   1   1  -1 15.2766 6.84297   3
  -1   1   1 5.17761 6.41876   7
   1   1  -1 6.75848 5.63383   2
   1   1  -1 16.2770 7.65520   4
   1   1  -1 11.6468 6.14957   5
  -1   1   1 19.3479 5.96161   1
  -1  -1  -1 464.248 16.3157   6
   1  -1   1 430.908 14.8020   6
   1  -1   1 465.163 21.0929   4
  -1  -1  -1 477.091 12.3926   2
  -1  -1  -1 492.932 16.3482   1
  -1   1  -1 469.317 15.3122   6
   1   1   1 489.873 16.8107   1
  -1   1  -1 490.646 21.0037   4
   1   1   1 442.308 16.2326   6
  -3  -1  -1 576.891 22.6702   6
   3  -1   1 501.739 20.3817   6
  -3  -1  -1 572.053 22.2464   1
   3   1   1 664.126 25.8848   3
   3   1   1 565.253 21.5405   1
   3   1   1 589.137 18.6112   5
  -3   1  -1 575.927 22.6110   6
  -3   1  -1 532.923 27.3407   4
   3   1   1 559.151 22.1213   6
   5  -1   1 33.5910 11.2773   6
   5  -1   1 17.3080 9.56904   3
  -5  -1  -1 26.0600 10.8648   1
  -5  -1  -1 37.8957 12.0138   6
   5  -1   1 28.2592 5.56051   7
  -5  -1  -1 31.8882 7.55466   5
   5   1   1 29.1165 11.1043   6
   5   1   1 21.2564 7.54570   5
  -5   1  -1 19.0810 11.7302   6
   5   1   1 19.3987 14.0163   3
  -7  -1  -1 -4.5618 7.31541   5
  -7  -1  -1 6.49920 11.2868   6
   7  -1   1 -4.2331 10.0309   3
  -7  -1  -1 7.90982 11.2594   1
   7   1   1 -0.7727 9.90270   6
  -7   1  -1 3.72545 6.57809   5
  -7   1  -1 13.4930 12.7523   6
   7   1   1 20.1144 8.17279   5
   7   1   1 8.02946 14.2991   3
   9  -1   1 4.24627 11.1145   3
  -9  -1  -1 6.19076 12.6273   1
  -9  -1  -1 5.43706 8.27295   5
  -9  -1  -1 -6.8812 13.4458   6
   9   1   1 16.1837 12.1924   6
  -9   1  -1 7.60026 7.17118   5
   9   1   1 -7.2762 7.47104   5
  -9   1  -1 10.7739 12.1266   6
   9   1   1 -7.4954 14.4276   3
 -11  -1  -1 294.582 25.7109   6
 -11  -1  -1 254.666 24.8009   1
  11  -1   1 261.675 23.0355   3
 -11  -1  -1 262.797 19.7897   2
 -11  -1  -1 293.293 18.7209   5
  11   1   1 279.011 18.2700   5
 -11   1  -1 232.667 24.4548   6
 -11   1  -1 260.341 17.0266   5
  11   1   1 312.741 27.3467   3
 -13  -1  -1 59.7657 17.4095   6
 -13  -1  -1 82.3865 19.4894   1
  13  -1   1 120.690 19.4453   3
 -13  -1  -1 112.343 14.9126   5
 -13  -1  -1 93.1592 11.3399   7
  13   1   1 93.7863 21.2414   3
 -13   1  -1 97.8682 13.4764   5
 -13   1  -1 59.9493 18.3933   6
 -15  -1  -1 92.1624 11.8593   7
  15  -1   1 105.180 20.2723   3
 -15  -1  -1 60.0174 21.2170   6
 -15  -1  -1 73.8580 21.4222   1
 -15  -1  -1 85.0265 15.1479   5
 -15   1  -1 110.895 25.1719   6
  15   1   1 74.1165 21.4416   3
 -15   1  -1 79.8209 14.3181   5
 -17  -1  -1 7.98790 19.2781   6
 -17  -1  -1 21.0197 17.8171   1
  17  -1   1 7.39467 16.5231   3
 -17   1  -1 23.4433 20.2514   6
  17   1   1 5.20613 18.9109   3
 -19  -1  -1 -23.600 21.3907   6
  19  -1   1 34.0014 19.5373   3
 -19  -1  -1 19.7816 19.2174   1
  19   1   1 27.1022 21.4106   3
 -19   1  -1 -2.9941 20.1056   6
  21  -1   1 -6.1972 17.9374   3
 -21  -1  -1 -2.8560 18.9632   1
 -21  -1  -1 23.1907 24.2415   6
 -21   1  -1 -21.686 22.3615   6
  21   1   1 -11.122 20.4512   3
 -21   1  -1 -9.4131 17.6989   1
 -22  -2   1 23.3756 24.0513   6
 -22  -2   1 36.2873 24.7658   1
  22   2  -1 5.07528 23.5814   3
 -22   2   1 34.0430 25.5906   6
 -20  -2   1 36.0253 22.4950   1
 -20  -2   1 50.0873 23.7030   6
  20   2  -1 51.5890 24.4809   3
 -20   2   1 69.5462 26.2775   6
  18  -2  -1 38.7304 16.9254   3
 -18  -2   1 50.2384 15.3613   7
 -18  -2   1 19.1973 21.0675   1
 -18  -2   1 49.8019 21.4477   6
 -18   2   1 28.7653 22.4700   6
  18   2  -1 21.9894 21.2944   3
  16  -2  -1 141.055 20.7621   3
 -16  -2   1 129.225 23.5824   1
 -16  -2   1 151.976 18.7969   7
 -16  -2   1 146.242 23.6156   6
 -16   2   1 116.618 18.6329   7
 -16   2   1 148.158 25.6177   6
  16   2  -1 152.747 22.3063   5
  16   2  -1 119.620 24.6286   3
 -14  -2   1 159.402 22.6326   1
 -14  -2   1 188.177 22.7099   6
  14  -2  -1 168.937 20.5640   3
  14   2  -1 173.312 21.2233   5
 -14   2   1 144.079 22.9401   6
 -14   2   1 204.889 20.0275   7
  14   2  -1 152.276 25.6269   3
 -12  -2   1 293.144 23.4019   6
 -12  -2   1 286.569 26.3682   1
  12  -2  -1 263.635 21.8084   3
 -12   2   1 266.434 21.8813   3
  12   2  -1 254.966 23.0538   5
 -12   2   1 247.909 20.7870   7
 -12   2   1 235.721 24.5644   6
  12   2  -1 303.546 30.0799   3
 -10  -2   1 540.589 27.1965   6
 -10  -2   1 563.322 26.8192   5
 -10  -2   1 524.008 24.4059   2
  10  -2  -1 512.776 25.4319   3
 -10  -2   1 538.140 30.7111   1
 -10   2   1 563.414 25.9439   7
 -10   2   1 538.787 26.1795   5
  10   2  -1 507.349 27.7742   5
  10   2  -1 514.665 32.0895   3
 -10   2   1 555.645 26.0265   3
   8  -2  -1 1110.22 36.6922   7
  -8  -2   1 1097.07 38.3634   5
  -8  -2   1 1074.04 35.8586   6
  -8  -2   1 1061.57 34.9660   2
  -8  -2   1 1027.73 39.4259   1
  -8  -2   1 1130.03 41.7837   3
   8   2  -1 1091.65 35.8999   2
  -8   2   1 1060.86 34.8940   3
  -8   2   1 1047.90 36.1929   7
  -8   2   1 1101.98 39.0328   2
   8   2  -1 1083.23 42.5863   3
   8   2  -1 1050.12 38.6617   5
  -6  -2   1 639.530 27.3439   1
  -6  -2   1 649.273 22.9990   6
  -6  -2   1 631.953 29.1382   3
  -6  -2   1 695.433 27.5069   5
  -6  -2   1 624.220 23.7197   2
   6  -2  -1 640.076 26.3530   7
  -6   2   1 652.046 26.1797   7
  -6   2   1 643.960 23.1130   3
   6   2  -1 654.170 28.3085   5
   6   2  -1 691.325 30.8970   3
   6   2  -1 645.276 24.6666   2
  -4  -2   1 1184.02 33.2128   2
   4  -2  -1 1163.53 36.9091   7
  -4  -2   1 1183.05 31.5609   6
  -4  -2   1 1167.40 38.7450   3
  -4  -2   1 1226.72 43.5286   4
  -4  -2   1 1166.91 36.1428   5
  -4  -2   1 1156.42 35.4095   1
   4   2  -1 1161.16 33.4778   2
   4   2  -1 1261.19 36.3652   1
  -4   2   1 1147.19 37.2443   7
   4   2  -1 1097.22 37.5629   5
   4   2  -1 1223.69 39.4573   3
  -4   2   1 1163.05 35.1086   4
  -2  -2   1 164.062 16.8236   4
  -2  -2   1 164.537 12.6626   1
  -2  -2   1 221.260 17.3657   5
  -2  -2   1 158.700 6.58233   6
   2  -2  -1 185.080 13.6220   4
   2  -2  -1 162.288 14.4309   7
  -2  -2   1 154.654 14.6039   3
   2  -2  -1 190.066 15.9905   1
  -2   2   1 202.006 12.4805   4
   2   2  -1 167.039 15.2201   5
  -2   2   1 167.455 14.1254   1
   2   2  -1 174.405 12.2631   2
   2   2  -1 128.643 13.0416   3
   2   2  -1 200.331 14.0607   1
   2   2  -1 165.010 15.9167   4
   0  -2   1 596.707 19.6315   3
   0  -2   1 558.198 26.5296   4
   0  -2   1 583.379 22.3347   1
   0  -2  -1 588.112 21.0419   4
   0  -2  -1 604.384 23.0654   1
   0   2  -1 544.051 16.2932   6
   0   2  -1 585.972 25.2852   4
   0   2   1 557.984 20.8339   6
   0   2  -1 587.429 19.5200   3
   0   2   1 573.302 17.4403   2
   0   2   1 586.556 22.1147   1
   0   2  -1 567.183 21.8859   1
  -2  -2  -1 4923.15 115.574   6
   2  -2   1 4750.89 121.613   4
  -2  -2  -1 5083.32 118.019   1
   2   2   1 5014.10 117.376   1
   2   2   1 4734.30 118.764   3
   2   2   1 4887.98 115.513   6
  -2   2  -1 5030.97 122.202   4
  -2   2  -1 4704.27 115.045   6
  -4  -2  -1 195.562 15.6209   6
  -4  -2  -1 143.805 14.7540   1
   4  -2   1 172.808 19.3624   4
   4  -2   1 178.308 11.3910   3
  -4  -2  -1 164.021 8.34596   2
   4   2   1 158.149 15.4714   1
   4   2   1 155.021 13.5610   6
  -4   2  -1 195.201 20.6632   4
   4   2   1 163.165 19.5338   3
  -4   2  -1 171.570 15.4433   6
   4   2   1 156.314 14.3157   5
  -6  -2  -1 348.336 21.9619   1
   6  -2   1 378.143 16.9271   7
  -6  -2  -1 339.225 14.8413   2
  -6  -2  -1 330.276 21.1448   6
   6  -2   1 362.366 16.9645   3
  -6   2  -1 359.237 28.2686   4
  -6   2  -1 358.221 23.1774   6
   6   2   1 369.938 20.3892   6
   6   2   1 364.631 18.4988   5
   6   2   1 329.003 25.0171   3
  -8  -2  -1 67.1743 14.7135   1
  -8  -2  -1 119.701 16.4435   6
  -8  -2  -1 172.380 23.9886   3
  -8  -2  -1 95.8683 11.0342   2
   8  -2   1 115.808 10.4063   7
   8  -2   1 96.5231 12.4468   3
  -8   2  -1 136.690 19.1748   6
   8   2   1 132.992 14.1648   5
   8   2   1 72.1501 17.7415   3
   8   2   1 148.619 17.1538   6
  -8   2  -1 95.7320 19.1455   4
 -10  -2  -1 374.761 19.8127   2
 -10  -2  -1 376.209 21.4230   5
  10  -2   1 385.848 21.5115   3
 -10  -2  -1 366.028 28.3391   1
 -10  -2  -1 302.928 25.3727   6
  10   2   1 382.561 21.1325   5
 -10   2  -1 372.710 27.8784   6
 -10   2  -1 373.354 18.9607   5
  10   2   1 347.733 29.6157   3
 -12  -2  -1 476.948 29.9314   6
 -12  -2  -1 501.552 33.5473   1
 -12  -2  -1 458.921 25.3232   5
  12  -2   1 478.999 26.9380   3
 -12  -2  -1 471.519 24.4024   2
  12   2   1 498.020 25.0241   5
 -12   2  -1 470.153 23.0379   5
  12   2   1 450.408 34.8404   3
 -12   2  -1 438.835 31.4556   6
 -14  -2  -1 224.733 22.3819   5
 -14  -2  -1 207.053 25.7944   6
  14  -2   1 210.330 22.0940   3
 -14  -2  -1 154.004 23.7357   1
  14   2   1 228.352 21.1156   5
  14   2   1 193.854 27.7544   3
 -14   2  -1 183.533 25.3373   6
 -14   2  -1 215.454 19.1988   5
 -16  -2  -1 134.716 14.6856   7
 -16  -2  -1 125.030 25.5005   6
  16  -2   1 121.658 19.0482   3
 -16  -2  -1 96.3257 23.3379   1
  16   2   1 91.3219 25.0154   3
 -16   2  -1 86.9649 21.6438   6
 -18  -2  -1 106.643 25.0114   1
 -18  -2  -1 52.7573 23.9137   6
  18  -2   1 67.6518 18.2769   3
  18   2   1 129.230 28.2651   3
 -18   2  -1 45.7262 24.2879   6
 -20  -2  -1 63.9150 24.6290   6
 -20  -2  -1 16.7128 21.9493   1
  20  -2   1 61.7225 26.1146   3
 -20   2  -1 37.7005 23.1325   6
  20   2   1 56.9823 25.5561   3
 -22  -2  -1 5.86347 25.5922   6
 -22  -2  -1 14.0679 21.4718   1
 -22   2  -1 -2.2017 26.2185   6
  22   2   1 15.3419 23.7463   3
 -21  -3   1 60.7617 25.4271   6
 -21  -3   1 41.6262 24.3338   1
  21   3  -1 65.4912 26.5768   3
 -21   3   1 70.9541 27.8709   6
 -19  -3   1 67.6829 24.7568   1
 -19  -3   1 80.5693 23.1491   6
 -19   3   1 89.5867 25.7144   6
  19   3  -1 84.5920 27.6247   3
 -17  -3   1 91.5035 22.8900   1
 -17  -3   1 94.5527 21.4724   6
 -17   3   1 75.9264 23.6569   6
  17   3  -1 136.393 23.6485   5
  17   3  -1 140.146 29.1502   3
 -15  -3   1 259.028 28.5285   1
 -15  -3   1 319.880 29.7635   6
 -15   3   1 252.301 29.8542   6
  15   3  -1 268.939 34.0446   3
  15   3  -1 266.416 27.5818   5
 -13  -3   1 233.740 22.6326   6
 -13  -3   1 259.051 27.4117   1
 -13   3   1 263.295 21.2850   3
  13   3  -1 192.850 27.6057   3
 -13   3   1 239.219 26.6823   6
  13   3  -1 181.261 22.5235   5
  11  -3  -1 573.278 29.3059   7
 -11  -3   1 648.995 29.9665   6
 -11  -3   1 670.684 34.3007   1
 -11  -3   1 731.344 28.7388   2
 -11   3   1 658.044 36.8512   4
  11   3  -1 602.985 37.4644   3
  11   3  -1 617.436 32.8532   5
 -11   3   1 673.864 27.6306   3
   9  -3  -1 1166.47 40.0125   7
  -9  -3   1 1173.39 36.9180   2
  -9  -3   1 1063.28 42.1546   1
  -9  -3   1 1154.23 38.4874   6
  -9  -3   1 1168.97 42.2889   5
  -9   3   1 1185.37 45.5339   4
   9   3  -1 1072.95 37.2957   2
  -9   3   1 1158.32 36.2630   3
   9   3  -1 1116.32 41.8356   5
   9   3  -1 1142.47 48.6866   3
  -7  -3   1 2475.07 73.7688   3
  -7  -3   1 2345.10 68.8144   1
  -7  -3   1 2296.87 77.2348   4
  -7  -3   1 2340.77 63.1837   6
   7  -3  -1 2405.88 67.9147   7
  -7  -3   1 2520.22 68.8411   5
  -7  -3   1 2518.97 63.5042   2
  -7   3   1 2343.61 60.9851   3
   7   3  -1 2338.40 73.4482   3
   7   3  -1 2530.08 64.0930   2
  -7   3   1 2445.95 70.1277   4
   7   3  -1 2399.32 69.6557   5
   7   3  -1 2421.83 68.5681   1
  -5  -3   1 717.330 23.1476   6
  -5  -3   1 713.891 32.0810   3
  -5  -3   1 756.406 25.0970   2
  -5  -3   1 755.972 30.2213   1
   5  -3  -1 762.196 29.8319   7
  -5  -3   1 715.783 36.2261   4
  -5  -3   1 766.021 30.1010   5
  -5   3   1 757.519 22.6763   3
   5   3  -1 697.364 30.1150   5
  -5   3   1 790.043 30.7606   4
   5   3  -1 782.039 29.7756   1
  -5   3   1 735.914 30.9168   1
   5   3  -1 748.991 23.7304   6
   5   3  -1 753.780 34.5871   3
   5   3  -1 790.740 25.3197   2
  -3  -3   1 63.0874 14.8678   4
   3  -3  -1 65.3704 13.5626   1
  -3  -3   1 78.0138 14.4469   3
  -3  -3   1 97.7209 7.03539   6
   3  -3  -1 51.0953 12.5980   7
   3  -3  -1 60.2772 11.1901   4
  -3  -3   1 54.4055 11.4380   1
   3   3  -1 90.4937 6.44579   6
   3   3  -1 74.7253 11.6464   1
   3   3  -1 75.8936 9.60448   2
   3   3  -1 94.1641 15.0180   5
   3   3  -1 62.4774 15.2025   4
  -3   3   1 78.8213 14.0879   1
  -3   3   1 88.3946 11.2011   4
   1  -3  -1 1358.93 40.2777   4
   1  -3  -1 1364.62 43.1104   1
  -1  -3   1 1390.03 40.3115   3
  -1  -3   1 1379.50 40.7620   1
  -1  -3   1 1370.29 46.4152   4
   1   3  -1 1356.66 40.4632   1
   1   3  -1 1363.47 46.2906   4
  -1   3   1 1407.91 40.2430   4
   1   3  -1 1373.54 40.1680   3
  -1   3   1 1402.21 41.8427   1
   1   3  -1 1367.69 33.2706   6
  -1  -3  -1 1129.30 38.6168   4
  -1  -3  -1 1207.25 38.3262   1
   1  -3   1 1217.56 32.6671   3
  -1  -3  -1 1156.87 35.5036   6
   1  -3   1 1204.51 42.6477   4
   1   3   1 1222.65 34.9546   6
   1   3   1 1235.98 38.0337   3
  -1   3  -1 1203.53 32.5123   3
  -1   3  -1 1176.10 41.4062   4
   1   3   1 1239.86 38.6354   1
  -1   3  -1 1210.21 38.2437   1
  -3  -3  -1 4524.33 115.550   1
   3  -3   1 4592.84 119.517   4
   3  -3   1 4721.19 105.060   3
  -3  -3  -1 4626.34 111.467   6
  -3   3  -1 4674.98 114.966   1
   3   3   1 4748.66 111.366   6
  -3   3  -1 4675.96 119.371   4
   3   3   1 4525.81 116.738   3
   3   3   1 4548.02 114.647   1
  -5  -3  -1 1855.41 51.0341   6
  -5  -3  -1 1812.57 42.6363   2
   5  -3   1 1727.96 59.1583   4
   5  -3   1 1740.93 42.1207   3
  -5  -3  -1 1717.60 53.6616   1
   5   3   1 1849.16 54.3812   1
  -5   3  -1 1810.33 59.8112   4
  -5   3  -1 1841.56 53.4679   6
   5   3   1 1741.81 50.2593   6
   5   3   1 1748.85 51.6204   5
   5   3   1 1771.76 58.1627   3
  -7  -3  -1 715.457 30.3548   6
   7  -3   1 701.725 27.7296   7
  -7  -3  -1 695.420 32.9787   1
  -7  -3  -1 731.739 22.7432   2
   7  -3   1 750.822 22.5583   3
  -7   3  -1 780.113 33.6800   6
   7   3   1 769.681 29.7323   6
   7   3   1 695.605 29.2163   5
   7   3   1 712.073 31.5936   1
  -7   3  -1 737.000 39.8632   4
   7   3   1 735.307 38.1267   3
  -9  -3  -1 496.286 20.0210   2
  -9  -3  -1 435.393 28.5590   1
   9  -3   1 506.597 20.5409   3
  -9  -3  -1 494.644 27.5459   6
   9  -3   1 515.547 22.1764   7
  -9   3  -1 453.263 28.3094   6
   9   3   1 513.874 26.1414   6
   9   3   1 466.879 33.9255   3
   9   3   1 479.066 24.7421   5
  11  -3   1 517.742 23.2070   3
  11  -3   1 475.404 22.0720   7
 -11  -3  -1 417.582 29.1325   6
 -11  -3  -1 526.590 32.0478   1
 -11  -3  -1 521.960 22.8998   2
  11   3   1 500.766 34.5280   3
  11   3   1 495.217 26.7296   5
 -11   3  -1 473.451 31.0612   6
 -13  -3  -1 529.332 36.7872   1
 -13  -3  -1 503.768 33.0824   6
  13  -3   1 475.298 25.0072   3
 -13  -3  -1 471.498 24.4697   2
  13   3   1 486.548 27.6096   5
 -13   3  -1 465.739 33.6807   6
 -13   3  -1 466.979 24.8918   5
  13   3   1 463.964 36.1326   3
 -15  -3  -1 177.482 26.5868   1
 -15  -3  -1 141.641 24.1498   6
  15  -3   1 163.632 19.0180   3
  15   3   1 172.501 20.4615   5
  15   3   1 156.288 28.5425   3
 -15   3  -1 170.589 27.4322   6
 -17  -3  -1 132.648 25.0531   6
 -17  -3  -1 168.366 28.1200   1
  17  -3   1 193.627 21.8547   3
  17   3   1 160.390 30.1090   3
  17   3   1 186.377 21.3066   5
 -17   3  -1 150.273 29.9129   6
 -19  -3  -1 56.2305 23.7023   1
 -19  -3  -1 76.5107 25.7560   6
  19   3   1 117.994 30.9458   3
 -19   3  -1 68.2282 25.7504   6
 -21  -3  -1 58.5331 26.1935   6
 -21  -3  -1 82.4339 28.0903   1
  21   3   1 22.0653 23.9681   3
 -21   3  -1 37.9894 26.3017   6
 -22  -4   1 52.6513 26.3560   1
 -22  -4   1 96.8624 34.1201   4
 -20  -4   1 79.8238 25.3132   1
 -20  -4   1 98.8382 33.7562   4
 -20  -4   1 76.1714 24.6119   6
 -20   4   1 52.3894 26.9814   6
  20   4  -1 86.8374 28.6405   3
  20   4  -1 132.440 25.3732   5
 -18  -4   1 190.525 26.9829   6
 -18  -4   1 226.165 31.4234   1
 -18  -4   1 142.640 35.2633   4
  18   4  -1 148.669 32.2020   3
  18   4  -1 207.438 27.2539   5
 -18   4   1 189.413 30.8866   6
 -16  -4   1 262.921 39.6539   4
 -16  -4   1 214.579 30.1685   1
 -16  -4   1 272.472 27.2806   6
  16   4  -1 309.789 30.7895   5
 -16   4   1 204.082 29.2674   6
  16   4  -1 295.588 38.0328   3
 -14  -4   1 297.838 31.0849   1
 -14  -4   1 328.688 40.0153   4
 -14  -4   1 366.658 28.0639   6
  14   4  -1 348.517 37.1325   3
 -14   4   1 357.711 26.0828   3
 -14   4   1 350.488 34.4249   6
  14   4  -1 330.666 28.8685   5
 -12  -4   1 356.691 36.2146   4
 -12  -4   1 370.416 21.6293   2
 -12  -4   1 386.564 25.0117   6
 -12  -4   1 352.809 31.0639   1
 -12   4   1 367.342 21.0531   3
 -12   4   1 283.070 28.4651   6
  12   4  -1 392.170 36.0852   3
  12   4  -1 327.544 28.0398   5
  10  -4  -1 751.118 34.6936   7
 -10  -4   1 841.955 30.0978   2
 -10  -4   1 783.800 31.3499   6
 -10  -4   1 683.217 43.9369   4
 -10  -4   1 788.682 37.6017   1
 -10   4   1 917.896 41.8832   4
  10   4  -1 809.092 42.2917   3
 -10   4   1 816.885 27.4717   3
  10   4  -1 773.614 36.0390   5
  -8  -4   1 1287.99 38.5169   6
  -8  -4   1 1230.09 45.7544   1
   8  -4  -1 1221.46 43.9877   7
  -8  -4   1 1304.93 37.8985   2
  -8  -4   1 1073.38 51.9961   4
   8   4  -1 1196.05 49.8024   3
  -8   4   1 1207.59 34.0864   3
  -8   4   1 1238.40 47.7579   4
   8   4  -1 1236.56 38.1558   2
   8   4  -1 1264.15 38.8616   6
   8   4  -1 1211.65 45.8352   5
  -6  -4   1 2381.92 59.8628   6
   6  -4  -1 2379.51 68.4945   7
  -6  -4   1 2349.33 71.9032   3
  -6  -4   1 2315.87 77.3607   4
  -6  -4   1 2328.36 68.0476   1
  -6   4   1 2318.95 57.1991   3
   6   4  -1 2295.99 69.6972   5
   6   4  -1 2367.49 60.9739   2
   6   4  -1 2200.56 71.6407   3
  -6   4   1 2386.94 70.3991   1
   6   4  -1 2389.47 60.2804   6
   6   4  -1 2326.15 67.4923   1
  -6   4   1 2451.74 69.0217   4
  -4  -4   1 548.077 27.4003   3
  -4  -4   1 465.081 24.7427   1
  -4  -4   1 480.792 32.7559   4
  -4  -4   1 502.972 16.3286   6
   4  -4  -1 448.244 26.4138   4
   4   4  -1 477.223 31.5422   4
  -4   4   1 425.542 27.5984   1
   4   4  -1 427.911 25.9357   5
   4   4  -1 474.027 16.1717   6
   4   4  -1 486.199 24.7230   1
   4   4  -1 498.871 28.4014   3
  -4   4   1 487.337 24.6984   4
   4   4  -1 442.062 19.1837   2
  -2  -4   1 1014.80 36.6406   1
   2  -4  -1 1027.79 37.4407   1
  -2  -4   1 984.160 42.8462   4
  -2  -4   1 968.349 35.3492   3
   2  -4  -1 1035.79 36.3593   4
   2   4  -1 1018.93 34.9621   1
   2   4  -1 1012.41 26.2575   6
   2   4  -1 980.847 35.6339   3
   2   4  -1 986.182 41.7202   4
  -2   4   1 998.850 34.9306   4
  -2   4   1 1079.16 38.2212   1
   0  -4  -1 2155.43 61.5779   4
   0  -4   1 2202.49 61.3874   1
   0  -4   1 2166.99 57.0497   3
   0  -4   1 2037.87 65.3699   4
   0  -4  -1 2042.50 61.0956   1
   0   4   1 2097.27 58.8743   3
   0   4   1 2149.38 61.0339   4
   0   4  -1 2075.71 56.4990   3
   0   4  -1 2085.16 59.5366   1
   0   4   1 2227.31 61.1044   1
   0   4   1 2037.04 56.5564   6
   0   4  -1 2293.65 66.5955   4
  -2  -4  -1 3317.70 88.8318   4
  -2  -4  -1 3172.73 80.2341   6
   2  -4   1 3303.77 76.5470   3
   2  -4   1 3233.74 85.6374   1
   2  -4   1 3069.03 89.5840   4
  -2  -4  -1 3114.42 85.2257   1
  -2   4  -1 3229.07 85.0894   1
   2   4   1 3165.13 79.8563   6
   2   4   1 3225.95 84.7204   1
  -2   4  -1 3120.52 89.0451   4
   2   4   1 3057.69 85.2171   3
   4  -4   1 4210.52 116.266   4
  -4  -4  -1 4326.87 105.612   6
  -4  -4  -1 4249.39 117.007   4
  -4  -4  -1 4303.11 111.502   1
  -4   4  -1 4399.98 111.256   1
   4   4   1 4363.91 110.878   1
   4   4   1 4078.42 113.209   3
   4   4   1 4408.81 105.667   6
  -4   4  -1 4232.10 115.404   4
   6  -4   1 475.308 34.0842   4
  -6  -4  -1 502.627 24.1755   6
  -6  -4  -1 477.519 27.8835   1
  -6   4  -1 512.851 34.9998   4
   6   4   1 510.471 23.8245   6
   6   4   1 497.652 31.4997   3
   6   4   1 498.691 26.9153   5
  -6   4  -1 489.895 27.3479   6
   6   4   1 520.170 28.0946   1
  -8  -4  -1 734.406 31.6163   6
  -8  -4  -1 748.992 22.0960   2
   8  -4   1 702.740 30.4355   7
  -8  -4  -1 701.189 36.0389   1
   8   4   1 705.665 39.6293   3
   8   4   1 723.907 30.3742   6
  -8   4  -1 662.595 32.9128   6
   8   4   1 701.601 31.9393   5
  -8   4  -1 736.305 42.7656   4
  10  -4   1 571.596 26.6024   7
 -10  -4  -1 606.963 21.8774   2
 -10  -4  -1 582.582 30.4721   6
 -10  -4  -1 568.414 35.0470   1
  10  -4   1 568.212 20.0828   3
  10   4   1 559.647 36.7317   3
 -10   4  -1 568.485 32.7099   6
  10   4   1 554.754 29.1954   5
 -12  -4  -1 500.483 32.8251   6
 -12  -4  -1 520.611 35.0562   1
  12  -4   1 507.584 21.6518   3
  12  -4   1 528.234 25.4315   7
 -12  -4  -1 540.899 23.1043   2
  12   4   1 497.992 29.6627   5
  12   4   1 453.339 38.7209   3
 -12   4  -1 552.247 36.2518   6
 -14  -4  -1 402.245 32.8086   6
 -14  -4  -1 447.538 37.0556   1
  14  -4   1 358.681 20.7479   3
 -14  -4  -1 464.096 25.6842   2
  14   4   1 434.364 27.9283   5
  14   4   1 383.555 39.8859   3
 -14   4  -1 402.029 37.2633   6
 -16  -4  -1 207.537 27.5174   6
  16  -4   1 235.244 19.1363   3
 -16  -4  -1 253.786 31.9862   1
  16   4   1 264.634 25.3444   5
 -16   4  -1 242.186 32.0804   6
  16   4   1 227.728 33.1858   3
 -18  -4  -1 166.325 29.1195   6
 -18  -4  -1 120.110 26.6343   1
 -18   4  -1 148.292 30.2529   6
  18   4   1 150.179 31.2524   3
  18   4   1 154.888 21.7923   5
 -20  -4  -1 114.573 28.9972   6
 -20  -4  -1 123.093 30.3156   1
  20   4   1 98.1686 29.3786   3
 -20   4  -1 116.872 30.5840   6
 -21  -5   1 89.7233 25.8577   6
 -21  -5   1 66.3494 27.4281   1
 -21  -5   1 48.6772 30.1487   4
 -21   5   1 35.2416 26.9322   6
  21   5  -1 102.471 33.3597   3
 -19  -5   1 167.469 31.2477   1
 -19  -5   1 181.648 38.7279   4
 -19  -5   1 228.423 29.5363   6
 -19   5   1 161.991 29.7365   6
  19   5  -1 196.422 29.0939   5
  19   5  -1 169.263 33.8895   3
 -17  -5   1 330.553 31.2793   6
 -17  -5   1 272.091 33.0142   1
 -17  -5   1 256.168 41.6486   4
 -17   5   1 255.439 33.3379   6
  17   5  -1 248.417 36.2487   3
  17   5  -1 290.273 32.0545   5
 -15  -5   1 288.418 40.6393   4
 -15  -5   1 297.022 26.9541   6
 -15  -5   1 265.582 32.7722   1
  15   5  -1 270.384 35.8815   3
 -15   5   1 289.641 32.9340   6
  15   5  -1 277.949 30.0917   5
 -13  -5   1 528.101 25.7905   2
 -13  -5   1 543.967 30.0265   6
 -13  -5   1 491.324 42.8279   4
 -13  -5   1 472.286 36.9961   1
  13   5  -1 542.568 35.2231   5
  13   5  -1 455.646 39.2056   3
 -13   5   1 518.928 35.7081   6
 -11  -5   1 457.434 25.2718   6
 -11  -5   1 445.133 22.0593   2
 -11  -5   1 456.635 41.8482   4
 -11  -5   1 400.084 32.0534   1
  11   5  -1 447.388 31.2320   5
  11   5  -1 445.604 35.6723   3
 -11   5   1 426.267 18.5456   3
  -9  -5   1 767.143 29.0433   6
  -9  -5   1 723.883 44.9959   4
  -9   5   1 733.743 40.0834   4
   9   5  -1 773.434 29.3542   6
  -9   5   1 754.345 21.8460   3
   9   5  -1 742.631 37.5094   5
   9   5  -1 749.661 27.6641   2
   9   5  -1 727.759 41.4885   3
  -7  -5   1 963.447 50.1844   4
  -7  -5   1 1017.30 30.9783   6
  -7  -5   1 1029.45 41.7916   1
  -7   5   1 972.416 25.4795   3
   7   5  -1 931.007 43.6838   3
   7   5  -1 964.015 30.9686   6
   7   5  -1 899.065 40.2706   5
  -7   5   1 963.025 41.1131   4
   7   5  -1 992.264 31.2590   2
  -5  -5   1 1463.22 40.1303   6
   5  -5  -1 1481.08 51.1837   4
  -5  -5   1 1538.23 52.9653   3
  -5  -5   1 1541.94 61.1721   4
  -5  -5   1 1539.08 52.2009   1
   5  -5  -1 1637.60 55.0810   7
   5   5  -1 1485.56 53.1452   5
  -5   5   1 1487.82 50.0411   4
   5   5  -1 1565.44 42.8343   2
   5   5  -1 1490.77 54.4486   3
   5   5  -1 1516.42 40.1778   6
   5   5  -1 1403.23 49.0108   1
   3  -5  -1 1188.90 43.5898   4
  -3  -5   1 1164.78 49.4408   4
  -3  -5   1 1228.20 44.0859   1
   3  -5  -1 1147.84 45.7095   1
  -3  -5   1 1160.19 42.8414   3
   3   5  -1 1183.91 42.0987   1
  -3   5   1 1153.70 41.4739   4
   3   5  -1 1127.82 30.9491   6
   3   5  -1 1182.30 44.0712   5
   3   5  -1 1188.41 43.5938   3
  -3   5   1 1185.44 43.7495   1
   3   5  -1 1173.83 47.7936   4
  -3   5   1 1136.37 34.9229   3
  -1  -5   1 2597.36 68.7666   3
   1  -5  -1 2516.80 72.9248   1
  -1  -5   1 2388.12 77.1778   4
   1  -5  -1 2424.58 72.0027   4
  -1  -5   1 2439.72 71.6247   1
  -1   5   1 2512.53 71.5635   1
  -1   5   1 2526.92 71.8153   4
   1   5  -1 2489.58 60.8452   6
   1   5  -1 2492.99 70.7455   1
  -1   5   1 2436.27 66.6296   3
   1   5  -1 2382.17 67.8158   3
   1   5  -1 2507.16 77.0789   4
   1  -5   1 3442.91 84.2711   3
   1  -5   1 3413.73 98.0783   4
  -1  -5  -1 3476.11 94.4133   4
  -1  -5  -1 3203.51 91.9592   1
   1  -5   1 3211.73 90.4436   1
  -1   5  -1 3439.64 96.6828   4
   1   5   1 3388.92 85.0318   6
  -1   5  -1 3404.55 90.6193   1
   1   5   1 3297.77 90.5757   1
   1   5   1 3331.34 92.9594   4
  -1   5  -1 3315.72 83.7580   3
   1   5   1 3313.67 89.4145   3
  -3  -5  -1 2154.00 59.1335   6
  -3  -5  -1 2147.23 70.3970   4
  -3  -5  -1 2058.69 65.3234   1
   3  -5   1 2147.00 71.9621   4
   3   5   1 2075.96 58.1020   6
  -3   5  -1 2189.95 69.2065   4
   3   5   1 2229.10 64.9754   1
  -3   5  -1 2212.95 66.1736   1
   3   5   1 2172.07 66.7819   3
  -5  -5  -1 1535.38 59.0704   4
  -5  -5  -1 1613.47 46.4482   6
   5  -5   1 1511.10 58.5741   4
  -5  -5  -1 1508.20 52.5117   1
   5   5   1 1425.34 54.5400   3
   5   5   1 1484.32 45.3647   6
  -5   5  -1 1554.43 57.3941   4
   7  -5   1 497.550 36.6008   4
  -7  -5  -1 484.817 34.8747   4
  -7  -5  -1 484.272 24.9586   6
  -7  -5  -1 471.821 31.3245   1
   7   5   1 511.288 24.9732   6
   7   5   1 461.444 32.0155   3
   7   5   1 485.568 29.3205   5
  -7   5  -1 415.151 34.6634   4
  -7   5  -1 450.299 26.8590   6
  -9  -5  -1 762.123 33.4130   6
  -9  -5  -1 736.993 38.1748   1
   9  -5   1 792.825 35.0717   7
   9   5   1 806.472 33.0967   6
  -9   5  -1 754.540 38.1385   6
   9   5   1 798.648 44.6846   3
   9   5   1 809.977 36.7046   5
 -11  -5  -1 658.996 37.5961   1
 -11  -5  -1 508.826 31.0674   6
  11  -5   1 571.848 30.0112   7
 -11  -5  -1 644.134 22.0172   2
 -11   5  -1 597.408 37.2170   6
  11   5   1 646.735 33.8196   5
  11   5   1 574.740 42.1544   3
 -13  -5  -1 422.351 32.1767   6
  13  -5   1 413.227 24.9843   7
 -13  -5  -1 466.093 34.6532   1
  13   5   1 444.079 30.9137   5
 -13   5  -1 430.589 35.5892   6
  13   5   1 481.539 39.1600   3
 -15  -5  -1 397.363 38.2834   1
 -15  -5  -1 445.463 32.9994   6
 -15   5  -1 333.750 36.9738   6
  15   5   1 372.944 41.1823   3
  15   5   1 407.569 30.0002   5
 -17  -5  -1 163.234 30.2112   1
 -17  -5  -1 134.404 25.0860   6
  17   5   1 174.556 34.7299   3
 -17   5  -1 174.481 29.5266   6
  17   5   1 187.203 23.6753   5
 -19  -5  -1 144.424 28.1443   6
 -19  -5  -1 112.543 29.2727   1
  19   5   1 92.6806 30.8594   3
 -19   5  -1 114.211 28.2847   6
 -21  -5  -1 54.0429 27.2712   1
 -21  -5  -1 54.1121 26.3356   6
  21   5   1 103.360 32.0687   3
 -21   5  -1 48.7477 25.8063   6
 -20  -6   1 85.1258 32.4451   4
 -20  -6   1 104.736 29.6021   1
  20   6  -1 132.510 36.3869   3
 -20   6   1 110.907 29.3840   6
  20   6  -1 101.543 25.8132   5
 -18  -6   1 160.139 35.9332   4
 -18  -6   1 218.978 35.5531   1
 -18  -6   1 249.109 28.8063   6
  18   6  -1 193.820 36.9951   3
 -18   6   1 247.318 36.0389   6
  18   6  -1 214.654 30.3118   5
 -16  -6   1 359.793 29.0299   6
 -16  -6   1 268.731 32.1743   1
 -16  -6   1 193.834 35.3551   4
  16   6  -1 319.903 41.3989   3
  16   6  -1 227.463 29.2643   5
 -16   6   1 251.892 33.7225   6
 -14  -6   1 314.945 26.9528   6
 -14  -6   1 317.799 42.6120   4
 -14  -6   1 207.990 27.9360   1
 -14   6   1 215.909 28.4483   6
  14   6  -1 318.797 31.6887   5
  14   6  -1 285.235 37.2414   3
 -12  -6   1 384.037 32.9937   1
 -12  -6   1 412.032 43.3797   4
 -12  -6   1 465.586 27.0308   6
  12   6  -1 457.836 33.6984   5
  12   6  -1 458.367 41.0187   3
 -10  -6   1 563.802 35.1363   1
 -10  -6   1 519.916 42.8365   4
 -10  -6   1 603.912 26.8248   6
  10   6  -1 520.278 33.8647   5
  10   6  -1 554.952 39.0045   3
  10   6  -1 621.069 24.4494   2
 -10   6   1 584.244 43.2181   4
  -8  -6   1 1121.25 47.6755   1
  -8  -6   1 1171.08 35.9285   6
  -8  -6   1 1035.30 57.2411   4
   8   6  -1 1128.74 34.8489   2
   8   6  -1 1124.73 35.2729   6
   8   6  -1 1109.69 47.1003   5
  -8   6   1 1091.68 46.9840   4
   8   6  -1 1006.92 49.5261   3
  -6  -6   1 840.303 39.4281   1
  -6  -6   1 771.050 45.2172   4
  -6  -6   1 794.364 25.8744   6
   6  -6  -1 807.174 38.0455   4
  -6   6   1 761.873 21.5270   3
   6   6  -1 828.955 25.8070   6
   6   6  -1 754.805 39.2919   3
   6   6  -1 761.870 27.2242   2
   6   6  -1 726.902 37.4859   5
  -6   6   1 803.120 36.6573   4
  -4  -6   1 1159.63 54.4201   4
  -4  -6   1 1110.03 45.9069   1
  -4  -6   1 1211.04 46.0279   3
   4  -6  -1 1119.75 46.4314   1
   4  -6  -1 1172.40 45.9595   4
  -4   6   1 1158.21 34.1099   3
   4   6  -1 1157.09 47.6199   5
   4   6  -1 1198.23 32.3087   6
   4   6  -1 1119.21 46.3198   3
  -4   6   1 1184.01 44.2905   4
   4   6  -1 1182.46 36.2334   2
  -2  -6   1 1055.95 39.8114   3
   2  -6  -1 1087.31 45.1920   1
  -2  -6   1 971.953 41.4629   1
   2  -6  -1 1064.12 43.7524   4
  -2  -6   1 1045.65 49.8610   4
  -2   6   1 1024.97 34.8023   3
   2   6  -1 1031.03 39.8916   3
  -2   6   1 1056.26 41.2999   4
   2   6  -1 1013.48 29.7404   6
   0  -6   1 1085.09 37.6599   3
   0  -6   1 1125.62 43.5132   1
   0  -6  -1 1039.33 43.6624   1
   0  -6  -1 1060.91 44.0846   4
   0  -6   1 1055.20 47.9693   4
   0   6   1 1092.82 36.2812   6
   0   6  -1 1075.72 46.4701   4
   0   6   1 1096.29 43.2956   4
   0   6   1 1059.24 39.2211   3
   0   6  -1 1081.83 36.9862   3
   2  -6   1 1303.07 54.7406   4
  -2  -6  -1 1289.32 48.4740   1
   2  -6   1 1211.47 47.5951   1
  -2  -6  -1 1274.34 51.4882   4
  -2   6  -1 1275.04 37.2077   3
   2   6   1 1261.03 39.8127   6
  -2   6  -1 1269.09 50.8142   4
   2   6   1 1263.07 46.7127   3
  -4  -6  -1 849.098 39.9302   1
  -4  -6  -1 855.285 45.7262   4
   4  -6   1 931.179 45.9375   4
  -4  -6  -1 934.861 33.3357   6
   4   6   1 923.502 24.0267   2
  -4   6  -1 951.289 44.5073   4
   4   6   1 937.840 41.9813   3
   4   6   1 887.936 32.1769   6
   6  -6   1 893.314 47.7479   4
  -6  -6  -1 875.058 42.3662   1
  -6  -6  -1 851.541 33.4707   6
  -6  -6  -1 902.842 48.2103   4
   6   6   1 858.592 42.4763   3
   6   6   1 879.010 39.5568   5
   6   6   1 930.132 33.3298   6
  -8  -6  -1 401.894 25.8621   6
  -8  -6  -1 431.759 36.5469   4
  -8  -6  -1 402.031 31.2729   1
   8  -6   1 426.705 37.4970   4
   8   6   1 490.869 36.5442   3
   8   6   1 454.254 25.5967   6
  -8   6  -1 478.190 30.6094   6
   8   6   1 452.740 31.1713   5
 -10  -6  -1 570.385 31.6410   6
 -10  -6  -1 563.761 44.9763   4
 -10  -6  -1 596.664 37.6212   1
 -10   6  -1 613.814 36.8445   6
  10   6   1 591.595 42.2586   3
  10   6   1 592.944 34.7542   5
 -12  -6  -1 461.694 38.9956   1
 -12  -6  -1 530.890 32.6411   6
 -12  -6  -1 501.655 46.5518   4
 -12   6  -1 480.268 36.4886   6
  12   6   1 452.734 32.2643   5
  12   6   1 492.955 41.7280   3
 -14  -6  -1 463.092 40.6757   1
 -14  -6  -1 387.199 32.7934   6
 -14  -6  -1 423.781 46.5143   4
  14   6   1 374.104 31.1311   5
 -14   6  -1 462.578 38.4261   6
  14   6   1 477.910 40.5793   3
 -16  -6  -1 211.784 27.2864   6
 -16  -6  -1 199.184 36.9338   4
 -16  -6  -1 268.748 35.2205   1
 -16   6  -1 275.078 34.9876   6
  16   6   1 256.378 28.9105   5
  16   6   1 201.172 33.4407   3
 -18  -6  -1 108.086 33.4398   4
 -18  -6  -1 94.8149 28.3338   1
 -18  -6  -1 134.136 26.5826   6
  18   6   1 128.557 23.1457   5
  18   6   1 168.617 35.9673   3
 -18   6  -1 99.9219 27.7085   6
 -20  -6  -1 122.809 32.2645   1
 -20  -6  -1 80.7840 26.1504   6
 -20  -6  -1 56.7966 30.7057   4
  20   6   1 113.829 32.0974   3
 -20   6  -1 71.1103 27.5208   6
 -19  -7   1 81.2358 34.3429   4
 -19  -7   1 64.8531 27.5528   1
  19   7  -1 105.002 25.3564   5
 -19   7   1 107.494 28.9556   6
  19   7  -1 117.584 33.8734   3
 -17  -7   1 148.889 36.1861   4
 -17  -7   1 168.426 33.0095   1
  17   7  -1 168.222 29.4665   5
  17   7  -1 136.745 33.5530   3
 -17   7   1 198.312 33.0171   6
 -15  -7   1 269.754 41.4057   4
 -15  -7   1 295.351 26.8272   6
 -15  -7   1 312.199 37.6194   1
 -15   7   1 243.950 32.4167   6
  15   7  -1 236.641 31.3385   5
  15   7  -1 252.946 36.8694   3
 -13  -7   1 218.795 21.4379   6
 -13  -7   1 197.970 34.4285   4
 -13  -7   1 154.377 26.2570   1
  13   7  -1 213.433 27.8285   5
  13   7  -1 206.723 34.1131   3
 -11  -7   1 443.325 24.9578   6
 -11  -7   1 420.964 36.6741   1
 -11  -7   1 443.267 43.6203   4
  11   7  -1 372.101 32.0713   5
  11   7  -1 403.126 40.5483   3
  -9  -7   1 789.155 43.5425   1
  -9  -7   1 748.166 52.8792   4
  -9  -7   1 754.451 29.2416   6
   9   7  -1 793.078 28.5681   6
   9   7  -1 751.183 27.0298   2
   9   7  -1 664.810 39.7925   5
   9   7  -1 738.145 44.3979   3
   7  -7  -1 1204.24 51.2926   4
  -7  -7   1 1221.07 61.2707   4
  -7  -7   1 1176.75 49.9578   1
  -7  -7   1 1231.92 36.5290   6
   7   7  -1 1127.54 51.3429   5
  -7   7   1 1176.98 49.3116   4
   7   7  -1 1222.25 36.0708   6
   7   7  -1 1211.92 36.7948   2
   7   7  -1 1260.75 54.8466   3
  -5  -7   1 944.717 51.2749   4
   5  -7  -1 925.708 45.5317   4
  -5  -7   1 897.057 44.0169   1
  -5   7   1 897.023 41.2386   4
   5   7  -1 886.228 31.0142   2
   5   7  -1 931.541 27.8692   6
   5   7  -1 927.822 43.8345   3
   5   7  -1 875.191 43.2408   5
  -5   7   1 907.538 27.5774   3
  -3  -7   1 702.771 45.7085   4
   3  -7  -1 783.209 41.1832   4
   3  -7  -1 764.710 39.9588   1
  -3  -7   1 757.668 38.4328   1
  -3  -7   1 800.588 41.6622   3
  -3   7   1 822.602 37.9779   4
   3   7  -1 763.319 36.6471   3
   3   7  -1 772.547 24.4602   6
  -3   7   1 741.170 28.4322   3
  -1  -7   1 276.361 25.2568   3
  -1  -7   1 246.636 25.4909   1
  -1  -7   1 331.496 34.6006   4
   1  -7  -1 291.338 29.2879   1
   1  -7  -1 327.995 30.7230   4
  -1   7   1 318.547 21.0059   6
   1   7  -1 283.999 15.8012   6
   1   7  -1 333.890 22.9497   3
  -1   7   1 293.904 21.6887   3
  -1   7   1 286.691 24.8268   4
  -1  -7  -1 664.695 37.5658   1
   1  -7   1 709.050 44.4570   4
   1  -7   1 763.286 39.1977   1
  -1  -7  -1 743.117 40.4647   4
  -1   7  -1 722.686 28.7924   3
   1   7   1 740.965 34.0089   3
   1   7   1 684.810 37.4343   4
   1   7   1 740.433 29.4587   6
   3  -7   1 810.420 40.2249   1
   3  -7   1 880.355 48.9619   4
  -3  -7  -1 823.133 44.5416   4
  -3  -7  -1 787.802 42.2285   1
   3   7   1 773.194 30.8763   6
   3   7   1 878.341 40.1351   3
  -5  -7  -1 760.166 31.7128   6
   5  -7   1 822.465 48.2078   4
  -5  -7  -1 757.796 42.2680   1
  -5  -7  -1 725.841 43.7749   4
   5   7   1 791.042 41.9968   3
   5   7   1 801.971 31.0501   6
  -7  -7  -1 940.582 51.2726   4
  -7  -7  -1 880.030 35.4999   6
   7  -7   1 874.723 49.8929   4
  -7  -7  -1 899.530 46.6419   1
   7   7   1 931.326 35.7848   6
  -7   7  -1 898.757 39.8992   6
   7   7   1 909.450 46.1679   3
   7   7   1 987.313 46.1919   5
  -9  -7  -1 233.368 32.4526   4
   9  -7   1 351.324 37.1707   4
  -9  -7  -1 347.450 25.3799   6
  -9  -7  -1 251.205 28.7361   1
  -9   7  -1 273.419 26.9232   6
   9   7   1 381.479 31.7594   5
   9   7   1 271.547 32.3534   3
 -11  -7  -1 432.978 30.2829   6
 -11  -7  -1 428.072 36.3998   1
 -11  -7  -1 477.118 43.5457   4
  11   7   1 498.506 34.9556   5
  11   7   1 488.889 41.7622   3
 -11   7  -1 447.185 32.7825   6
 -13  -7  -1 389.050 31.4449   6
 -13  -7  -1 328.438 36.0120   1
 -13  -7  -1 326.376 40.7382   4
  13   7   1 328.580 38.1703   3
 -13   7  -1 430.026 38.6887   6
  13   7   1 339.205 34.1415   5
 -15  -7  -1 161.214 32.8328   4
 -15  -7  -1 247.433 34.9316   1
 -15  -7  -1 195.948 26.4593   6
  15   7   1 198.066 35.0331   3
  15   7   1 204.696 28.1106   5
 -15   7  -1 135.865 27.5468   6
 -17  -7  -1 154.417 26.2904   6
 -17  -7  -1 151.325 36.1787   4
 -17  -7  -1 77.3496 26.8095   1
  17   7   1 136.153 25.0780   5
 -17   7  -1 143.050 31.2854   6
  17   7   1 198.085 37.5807   3
 -19  -7  -1 71.9583 27.2842   1
 -19  -7  -1 34.8984 30.3667   4
 -19   7  -1 80.9883 28.9831   6
  19   7   1 42.1852 29.0949   3
 -18  -8   1 71.5660 29.5372   1
 -18  -8   1 55.4594 31.0856   4
  18   8  -1 59.5307 28.6332   3
 -18   8   1 64.0720 25.3560   6
  18   8  -1 62.4210 24.4542   5
 -16  -8   1 74.8145 29.7148   4
 -16  -8   1 108.897 29.2529   1
  16   8  -1 84.1358 30.3149   3
  16   8  -1 107.957 25.5198   5
 -16   8   1 134.709 28.4934   6
 -14  -8   1 125.642 27.6942   1
 -14  -8   1 127.437 34.5233   4
  14   8  -1 166.217 29.3899   5
  14   8  -1 106.737 29.3552   3
 -14   8   1 130.653 25.5165   6
 -12  -8   1 130.779 31.5153   4
 -12  -8   1 140.571 26.2399   1
 -12  -8   1 177.491 18.8030   6
  12   8  -1 205.566 29.7802   5
  12   8  -1 194.024 34.1704   3
 -10  -8   1 331.866 40.6507   4
 -10  -8   1 383.778 36.8443   1
 -10  -8   1 432.304 22.9532   6
  10   8  -1 371.533 38.8440   3
  10   8  -1 388.865 33.8450   5
  10   8  -1 396.626 18.6947   2
  -8  -8   1 438.960 37.5225   1
   8  -8  -1 416.346 35.0849   4
  -8  -8   1 453.893 44.8973   4
  -8  -8   1 401.951 20.9252   6
   8   8  -1 442.515 19.6481   6
   8   8  -1 424.745 38.1707   3
   8   8  -1 417.393 38.6342   5
   8   8  -1 445.503 19.6990   2
  -6  -8   1 629.711 41.3346   1
   6  -8  -1 666.699 42.5256   4
  -6  -8   1 756.203 51.5544   4
  -6   8   1 670.317 18.9541   3
   6   8  -1 655.352 40.7165   5
   6   8  -1 676.737 26.0986   2
   6   8  -1 614.573 38.4736   3
   6   8  -1 683.778 23.3942   6
  -4  -8   1 765.259 51.0013   4
   4  -8  -1 704.848 43.0120   1
  -4  -8   1 755.233 43.5906   1
   4  -8  -1 783.038 45.2339   4
   4   8  -1 751.132 39.5475   3
   4   8  -1 725.792 24.2159   6
   4   8  -1 722.973 41.2720   5
  -4   8   1 721.547 27.0314   3
  -4   8   1 751.792 42.3225   4
   2  -8  -1 456.417 34.6434   1
  -2  -8   1 464.430 38.7735   4
   2  -8  -1 501.284 38.1102   4
  -2  -8   1 499.211 36.8220   1
   2   8  -1 489.835 29.4472   3
   2   8  -1 491.372 20.3223   6
  -2   8   1 461.254 25.1339   3
   0  -8   1 349.753 33.2932   1
   0  -8   1 282.681 33.7475   4
   0  -8  -1 300.758 31.2610   4
   0  -8  -1 322.244 32.0040   1
   0   8  -1 292.657 17.5905   6
   0   8   1 331.925 22.1669   6
   0   8   1 271.785 22.8370   3
   0   8  -1 280.749 21.7068   3
   2  -8   1 583.930 39.7349   1
   2  -8   1 507.782 43.7590   4
  -2  -8  -1 544.634 40.1923   4
  -2  -8  -1 574.005 37.4376   1
   2   8   1 527.804 32.5425   3
  -2   8  -1 543.360 24.3222   3
   2   8   1 570.387 27.2374   6
  -4  -8  -1 548.747 37.3964   1
  -4  -8  -1 485.969 39.7668   4
   4  -8   1 515.437 45.0821   4
   4   8   1 530.163 18.2445   2
   4   8   1 505.612 25.8393   6
   4   8   1 537.586 35.2674   3
  -6  -8  -1 662.120 47.1760   4
  -6  -8  -1 661.789 30.6270   6
   6  -8   1 721.568 49.4542   4
  -6  -8  -1 617.893 41.8719   1
   6   8   1 600.843 28.2482   6
   6   8   1 554.003 37.3670   3
  -8  -8  -1 565.971 29.3392   6
   8  -8   1 493.097 43.7852   4
  -8  -8  -1 483.017 39.7110   1
  -8  -8  -1 546.384 46.8813   4
   8   8   1 450.746 36.9008   3
  -8   8  -1 464.194 33.0705   6
   8   8   1 529.945 36.4928   5
 -10  -8  -1 195.459 32.7931   4
 -10  -8  -1 226.400 31.4856   1
 -10  -8  -1 267.463 23.6540   6
  10   8   1 248.023 34.9577   3
 -10   8  -1 253.684 27.8693   6
  10   8   1 154.854 26.8985   5
 -12  -8  -1 191.100 31.1705   1
 -12  -8  -1 194.955 35.3417   4
 -12  -8  -1 230.003 24.9950   6
 -12   8  -1 157.897 25.6020   6
  12   8   1 204.729 28.4589   5
  12   8   1 159.066 31.0764   3
 -14  -8  -1 137.410 32.9561   4
 -14  -8  -1 163.517 24.0770   6
 -14  -8  -1 43.7955 25.3306   1
 -14   8  -1 90.8119 25.1077   6
  14   8   1 89.7016 23.0816   5
  14   8   1 115.998 30.4352   3
 -16  -8  -1 116.535 25.6035   6
 -16  -8  -1 80.1036 30.6023   4
 -16  -8  -1 114.652 29.7822   1
  16   8   1 126.826 26.1535   5
 -16   8  -1 116.819 28.1880   6
  16   8   1 92.9040 31.3539   3
 -18  -8  -1 77.3411 28.0418   1
 -18  -8  -1 72.8078 31.4745   4
 -18   8  -1 74.8760 26.5430   6
  18   8   1 50.0177 22.1204   5
  18   8   1 60.8497 30.7645   3
 -17  -9   1 29.0883 30.5025   4
 -17  -9   1 7.77727 25.2025   1
  17   9  -1 19.9795 27.5511   3
 -17   9   1 52.1083 25.4044   6
  17   9  -1 49.0115 23.9955   5
 -15  -9   1 37.9934 29.2876   4
 -15  -9   1 60.7602 26.8258   1
 -15   9   1 44.7782 22.6734   6
  15   9  -1 55.6109 28.0111   3
  15   9  -1 100.369 26.5978   5
 -13  -9   1 44.9794 24.7686   1
 -13  -9   1 63.0534 30.0206   4
 -13   9   1 73.0704 23.3790   6
  13   9  -1 55.9697 27.3967   3
  13   9  -1 79.4015 23.9939   5
 -11  -9   1 46.4601 28.9744   4
 -11  -9   1 57.6238 23.3688   1
  11   9  -1 101.387 24.1270   5
  11   9  -1 45.0046 23.0942   3
   9  -9  -1 140.823 23.1966   4
  -9  -9   1 129.471 27.1007   1
  -9  -9   1 144.428 32.9158   4
   9   9  -1 158.230 13.4200   2
   9   9  -1 162.777 28.1964   3
   9   9  -1 144.214 28.7352   5
  -7  -9   1 117.415 26.8641   1
   7  -9  -1 125.260 24.4536   4
  -7  -9   1 63.9613 24.5089   4
   7   9  -1 102.057 24.0223   5
   7   9  -1 152.693 13.5233   2
   7   9  -1 142.780 27.8315   3
  -5  -9   1 179.287 31.7779   4
   5  -9  -1 164.796 28.8234   4
  -5  -9   1 107.860 24.4284   1
   5   9  -1 197.430 28.7171   5
   5   9  -1 182.178 12.6739   6
   5   9  -1 156.732 25.9986   3
  -5   9   1 177.492 13.1588   3
   5   9  -1 195.155 16.5108   2
  -3  -9   1 175.555 29.9240   4
   3  -9  -1 198.460 29.0545   1
  -3  -9   1 185.792 28.2241   1
   3  -9  -1 140.599 28.2160   4
   3   9  -1 222.716 25.1247   3
   3   9  -1 183.794 13.8164   6
  -3   9   1 201.959 18.1276   3
   1  -9  -1 343.042 35.6828   1
   1  -9  -1 311.062 34.1559   4
  -1  -9   1 304.097 32.7173   1
  -1  -9   1 305.614 37.0426   4
   1   9  -1 339.020 25.9303   3
  -1   9   1 313.397 23.8997   3
   1   9  -1 300.520 17.6512   6
   1  -9   1 109.332 26.5395   4
  -1  -9  -1 100.321 24.0757   1
   1  -9   1 91.5914 22.6551   1
  -1  -9  -1 91.2317 23.0271   4
  -1   9  -1 142.453 15.6819   6
   1   9   1 109.546 19.4753   3
   1   9   1 155.449 19.0031   6
  -1   9  -1 116.222 16.1834   3
  -3  -9  -1 177.744 28.4773   1
   3  -9   1 154.496 25.0394   1
   3  -9   1 140.802 32.2088   4
  -3  -9  -1 161.787 29.9298   4
   3   9   1 121.530 22.5855   3
   3   9   1 222.881 20.0987   6
   5  -9   1 280.297 37.3461   4
  -5  -9  -1 277.890 34.6630   4
  -5  -9  -1 321.236 34.8676   1
   5   9   1 296.134 11.5451   2
   5   9   1 306.760 22.0185   6
   5   9   1 318.289 32.7523   3
  -7  -9  -1 170.064 33.2636   4
  -7  -9  -1 168.938 27.7605   1
   7  -9   1 188.679 32.5607   4
   7   9   1 173.337 27.7187   3
   7   9   1 127.880 26.3075   5
  -7   9  -1 188.048 23.5843   6
  -9  -9  -1 115.872 29.9693   4
   9  -9   1 131.940 28.4456   4
  -9  -9  -1 123.142 18.7050   6
  -9  -9  -1 82.0759 25.9901   1
   9   9   1 92.9992 27.0964   3
  -9   9  -1 103.591 22.0114   6
   9   9   1 112.254 24.5352   5
 -11  -9  -1 59.8958 16.8442   6
 -11  -9  -1 29.3918 24.6068   4
 -11  -9  -1 36.9131 22.5148   1
  11   9   1 24.7435 23.2465   3
  11   9   1 58.5924 22.8287   5
 -11   9  -1 42.1524 19.0528   6
 -13  -9  -1 80.2735 26.2654   1
 -13  -9  -1 78.7354 28.7328   4
  13   9   1 70.8464 25.9189   3
  13   9   1 65.8371 22.7798   5
 -13   9  -1 81.2566 24.7359   6
 -15  -9  -1 58.8858 31.8872   4
 -15  -9  -1 57.5840 27.5093   1
  15   9   1 78.7109 24.0161   5
 -15   9  -1 38.7506 23.7391   6
  15   9   1 107.428 32.5201   3
 -17  -9  -1 57.9578 32.6646   4
 -17  -9  -1 23.8184 27.5649   1
  17   9   1 42.9936 22.3798   5
 -17   9  -1 15.7495 20.4494   6
  17   9   1 34.5298 27.1105   3
 -16 -10   1 21.7836 30.8334   4
 -16 -10   1 -4.3269 25.7346   1
 -16  10   1 6.76989 21.8409   6
  16  10  -1 33.0628 26.7927   3
  16  10  -1 29.2853 24.1047   5
 -14 -10   1 -3.1246 21.7357   1
 -14 -10   1 39.4720 30.5300   4
 -14  10   1 2.19124 18.1604   6
  14  10  -1 26.8713 23.2050   5
  14  10  -1 24.3434 26.8301   3
 -12 -10   1 20.7579 28.2080   4
 -12 -10   1 -16.497 22.3205   1
  12  10  -1 19.3768 21.1218   5
  12  10  -1 -5.5799 21.2753   3
 -10 -10   1 -14.756 23.6187   4
 -10 -10   1 26.9028 22.1841   1
  10  10  -1 13.5902 21.8678   3
  10  10  -1 0.31549 18.2887   5
  -8 -10   1 9.91033 21.4117   1
  -8 -10   1 -8.9830 21.9233   4
   8 -10  -1 67.0392 21.5525   4
   8  10  -1 25.0480 22.1363   3
   8  10  -1 11.6426 19.7551   5
  -6 -10   1 53.8111 27.9707   4
   6 -10  -1 55.8785 24.6127   4
  -6 -10   1 13.9551 23.5361   1
   6  10  -1 57.0024 24.1015   5
   6  10  -1 78.3509 11.7628   2
   6  10  -1 58.1120 22.6053   3
  -4 -10   1 66.5667 26.3934   1
   4 -10  -1 80.7499 27.1007   4
  -4 -10   1 44.6789 25.3582   4
   4 -10  -1 76.0144 25.0534   1
  -4  10   1 89.9738 13.1905   3
   4  10  -1 103.231 14.8323   2
   4  10  -1 74.3500 19.6819   3
   4  10  -1 37.6254 24.0581   5
   2 -10  -1 64.3899 22.7422   1
   2 -10  -1 51.1062 24.8537   4
  -2 -10   1 74.6777 25.8819   1
  -2 -10   1 62.2474 28.3178   4
   2  10  -1 112.492 20.0495   3
  -2  10   1 94.2859 15.6501   3
   0 -10   1 63.5850 26.6294   4
   0 -10  -1 75.3957 25.8815   4
   0 -10   1 119.464 26.7266   1
   0 -10  -1 137.636 27.8138   1
   0  10   1 96.9386 18.5927   3
   0  10  -1 116.879 18.8569   3
   2 -10   1 17.0901 26.4730   4
  -2 -10  -1 57.7919 25.0413   4
  -2 -10  -1 53.0473 23.9358   1
   2 -10   1 29.7066 19.9904   1
   2  10   1 51.9981 17.7369   3
  -2  10  -1 32.8381 11.6159   3
   4 -10   1 70.9932 30.1518   4
  -4 -10  -1 73.9161 26.0162   1
  -4 -10  -1 111.472 28.5973   4
   4  10   1 112.973 10.5372   2
   4  10   1 87.7790 22.4429   3
  -6 -10  -1 31.0790 23.6814   1
  -6 -10  -1 12.0681 22.5696   4
   6 -10   1 63.3088 29.4836   4
   6  10   1 42.9338 23.1787   5
   6  10   1 34.6447 20.3403   3
  -8 -10  -1 -12.673 21.7141   4
  -8 -10  -1 -13.291 21.4842   1
   8 -10   1 39.9777 24.6657   4
   8  10   1 35.2139 21.2714   5
   8  10   1 16.6311 21.4641   3
  -8  10  -1 -9.9583 15.6280   6
 -10 -10  -1 73.4646 27.5130   1
 -10 -10  -1 13.6526 25.9158   4
  10 -10   1 68.7934 24.4038   4
 -10  10  -1 3.05935 17.3435   6
  10  10   1 26.6353 23.1350   3
  10  10   1 33.6233 19.6989   5
 -12 -10  -1 11.6109 26.3252   4
 -12 -10  -1 17.9537 23.4821   1
  12  10   1 19.6988 24.0649   3
 -12  10  -1 13.1699 20.5660   6
  12  10   1 23.7987 22.5720   5
 -14 -10  -1 35.7316 27.3377   4
 -14 -10  -1 26.5340 27.0824   1
  14  10   1 59.0928 28.6635   3
  14  10   1 6.00264 21.1297   5
 -14  10  -1 76.4057 25.1226   6
 -16 -10  -1 40.6630 29.7308   4
  16  10   1 -10.129 23.7988   3
 -13 -11   1 1.91404 29.5099   4
 -13 -11   1 -7.4557 25.8811   1
  13  11  -1 18.5819 26.0075   3
  13  11  -1 9.08390 22.2313   5
 -13  11   1 3.29062 19.1003   6
 -11 -11   1 -16.754 26.2207   4
 -11 -11   1 -38.237 21.1565   1
  11  11  -1 -5.9717 21.7654   5
  11  11  -1 -15.434 21.7173   3
  -9 -11   1 -5.0046 25.8833   4
   9 -11  -1 44.0207 20.0336   4
  -9 -11   1 -11.272 24.4065   1
   9  11  -1 2.25471 20.7913   3
   9  11  -1 8.44390 23.0991   5
  -7 -11   1 -9.9176 25.4891   4
  -7 -11   1 -0.6834 24.6279   1
   7 -11  -1 31.9981 22.0567   4
   7  11  -1 -7.9206 22.3065   5
   7  11  -1 -12.059 17.4589   3
  -5 -11   1 11.2711 22.4869   1
   5 -11  -1 -20.323 23.9064   4
  -5 -11   1 2.31234 25.8508   4
   5  11  -1 9.84278 17.9210   3
   5  11  -1 0.19611 21.1764   5
   3 -11  -1 10.7868 19.9685   1
  -3 -11   1 -10.429 22.7479   1
   3 -11  -1 35.3156 27.1011   4
  -3 -11   1 -33.483 23.8751   4
   3  11  -1 -28.273 20.2543   5
   3  11  -1 11.2340 16.2674   3
   1 -11  -1 -22.187 22.8446   4
  -1 -11   1 -7.2120 25.8371   4
   1 -11  -1 35.5745 23.4100   1
  -1 -11   1 17.5690 22.4043   1
  -1  11   1 12.7075 13.6972   3
   1  11  -1 18.9347 14.9982   3
  -1 -11  -1 10.7605 22.3400   1
   1 -11   1 9.08961 20.5051   1
   1 -11   1 -28.279 27.1116   4
  -1 -11  -1 -20.899 21.9386   4
   1  11   1 11.1395 14.2050   3
  -1  11  -1 15.3104 12.8935   3
  -3 -11  -1 18.3620 22.8103   1
   3 -11   1 -9.5906 27.5752   4
  -3 -11  -1 28.0281 24.4928   4
   3  11   1 46.2417 18.8835   3
  -5 -11  -1 4.64219 23.0803   1
  -5 -11  -1 -11.997 24.1430   4
   5 -11   1 -35.658 28.2922   4
   5  11   1 28.8729 19.4978   3
  -7 -11  -1 -2.5121 23.7184   4
   7 -11   1 22.1925 27.2598   4
  -7 -11  -1 -24.406 23.3660   1
   7  11   1 21.5614 25.1388   5
   7  11   1 6.10602 19.5067   3
  -7  11  -1 4.89977 14.8829   6
   9 -11   1 15.6628 24.8332   4
  -9 -11  -1 19.0565 24.7065   1
  -9 -11  -1 -42.586 22.2564   4
  -9  11  -1 15.2821 18.0712   6
   9  11   1 34.1619 24.1867   5
   9  11   1 6.14594 18.5835   3
 -11 -11  -1 8.46616 25.1049   1
 -11 -11  -1 -5.8236 25.6808   4
  11  11   1 23.6408 21.1148   5
  11  11   1 6.23875 22.0131   3
 -11  11  -1 -8.6733 17.8474   6
 -13 -11  -1 -26.604 23.7111   4
 -13 -11  -1 -23.139 22.4209   1
  13  11   1 -2.7389 24.7058   3
 -13  11  -1 35.8493 22.5391   6
  13  11   1 45.2957 22.9875   5
 -12 -12   1 0.09442 28.2713   1
 -12 -12   1 -35.007 26.5449   4
 -12  12   1 39.8821 21.2114   6
  12  12  -1 14.8442 25.3848   3
  12  12  -1 32.8712 25.4276   5
 -10 -12   1 -7.3660 27.1770   1
 -10 -12   1 -40.972 28.0253   4
  10  12  -1 13.0863 22.4056   3
  10  12  -1 -5.4176 23.7194   5
  -8 -12   1 -15.862 25.5290   1
  -8 -12   1 -45.298 25.0994   4
   8  12  -1 -15.377 18.4467   3
   8  12  -1 -10.603 20.8259   5
  -6 -12   1 -22.139 24.5118   1
  -6 -12   1 -17.901 26.3646   4
   6 -12  -1 -29.022 24.9966   4
   6  12  -1 -4.9149 18.2621   3
   6  12  -1 13.4322 23.3541   5
  -4 -12   1 2.43301 28.4867   4
  -4 -12   1 -16.731 23.6194   1
   4 -12  -1 -65.855 25.6292   4
   4  12  -1 34.3512 20.3134   3
   4  12  -1 -4.4458 24.3480   5
   2 -12  -1 -12.061 24.3688   1
  -2 -12   1 -5.2475 29.7658   4
   2 -12  -1 -31.805 25.8681   4
  -2 -12   1 7.66061 24.9910   1
   2  12  -1 2.83497 26.1983   5
   2  12  -1 8.56765 16.4038   3
   0 -12   1 -36.643 27.3234   4
   0 -12  -1 9.17227 27.5222   4
   0 -12  -1 30.2594 25.3358   1
   0 -12   1 -0.5225 24.8585   1
   0  12   1 15.2715 17.8254   3
  -2 -12  -1 -9.8714 25.9894   4
  -2 -12  -1 18.0797 25.4205   1
   2 -12   1 5.25368 22.8127   1
   2 -12   1 -30.720 28.6558   4
   2  12   1 2.21804 16.6193   3
  -4 -12  -1 18.0281 24.1382   4
  -4 -12  -1 -5.0800 24.1606   1
   4 -12   1 -21.927 30.0017   4
   4  12   1 18.2732 18.3590   3
   6 -12   1 -27.376 27.7477   4
  -6 -12  -1 -10.747 24.5297   4
  -6 -12  -1 -37.067 22.7340   1
  -6  12  -1 3.40777 12.8006   6
   6  12   1 -6.7991 25.1347   5
   6  12   1 19.1135 20.3408   3
  -8 -12  -1 -37.183 23.6984   4
   8 -12   1 27.9108 25.6313   4
  -8 -12  -1 -26.477 25.2043   1
   8  12   1 18.9203 25.6637   5
  -8  12  -1 7.50369 16.6538   6
   8  12   1 9.93475 22.6555   3
  10 -12   1 48.3937 26.3711   4
 -10 -12  -1 18.9348 29.7635   1
 -10 -12  -1 9.06069 28.5228   4
  10  12   1 9.45679 21.7915   5
  10  12   1 20.6301 25.6776   3
 -10  12  -1 7.22508 17.8558   6
 -12 -12  -1 -25.009 27.4268   4
 -12 -12  -1 -9.6914 26.0121   1
  12  12   1 5.65272 24.3624   3
  -9 -13   1 0.53604 29.3043   4
  -9 -13   1 -2.6240 27.5050   1
   9  13  -1 44.3486 25.2027   5
   9  13  -1 1.32018 22.3997   3
  -7 -13   1 45.6847 30.0929   1
  -7 -13   1 -11.173 30.7701   4
   7  13  -1 45.3366 23.3130   3
   7  13  -1 -2.2038 22.9455   5
  -5 -13   1 -16.324 30.2750   4
  -5 -13   1 6.57472 26.9447   1
   5  13  -1 3.31862 19.8242   3
   5  13  -1 -1.9378 23.1917   5
   3 -13  -1 41.6159 27.8929   1
  -3 -13   1 20.4203 28.1019   1
  -3 -13   1 -34.178 31.1329   4
   3  13  -1 4.06327 24.9508   5
  -1 -13   1 17.9613 34.8029   4
   1 -13  -1 -32.765 29.4281   4
  -1 -13   1 57.7317 28.2537   1
   1 -13  -1 67.4474 30.7237   1
   1  13  -1 18.2981 27.2715   5
  -1 -13  -1 -13.005 29.7922   4
  -1 -13  -1 -10.330 26.0054   1
   1 -13   1 5.60583 22.4220   1
   1 -13   1 -42.382 31.3760   4
   3 -13   1 -88.593 32.2368   4
  -3 -13  -1 27.8767 29.8293   1
  -3 -13  -1 -24.336 28.8107   4
   3  13   1 27.1340 20.1318   3
   5 -13   1 -40.297 35.4206   4
  -5 -13  -1 -24.369 27.3590   1
  -5 -13  -1 -32.175 26.4529   4
   5  13   1 -6.5378 25.8799   5
   5  13   1 11.1385 20.2093   3
  -7 -13  -1 -20.898 26.8420   4
   7 -13   1 0.97501 30.8681   4
  -7 -13  -1 2.38739 30.8396   1
   7  13   1 34.9792 23.2545   3
   7  13   1 18.2192 24.4629   5
  -9 -13  -1 42.0809 31.5146   4
  -9 -13  -1 17.4369 31.2329   1
   9  13   1 59.5376 26.1033   3
  -4 -14   1 3.50166 31.1174   1
  -2 -14   1 48.5398 31.3873   1
   2 -14  -1 101.307 31.7419   1
  -2 -14   1 -11.177 36.8771   4
   2  14  -1 2.05418 27.3144   5
   0 -14  -1 -13.314 27.5575   1
   0 -14  -1 -97.571 36.8795   4
   0 -14   1 7.99144 26.9113   1
   0  14  -1 -61.186 27.3754   5
  -2 -14  -1 -60.990 31.7461   4
  -2 -14  -1 48.9631 29.7584   1
 -22   0   2 154.852 31.9811   6
 -22   0   2 99.4028 27.9848   1
 -20   0   2 192.679 31.7454   6
  20   0  -2 227.186 31.8043   3
 -20   0   2 309.769 36.1593   1
 -18   0   2 287.269 26.7220   7
  18   0  -2 272.746 33.5115   3
 -18   0   2 261.505 31.1128   1
 -18   0   2 305.631 33.4059   6
 -16   0   2 396.812 33.9237   6
 -16   0   2 355.738 27.4856   7
  16   0  -2 400.211 33.4159   3
 -14   0   2 871.634 42.4141   6
  14   0  -2 1014.60 46.6113   3
 -14   0   2 965.317 40.0482   7
  12   0  -2 966.230 42.5356   3
 -12   0   2 929.321 37.9971   7
  10   0  -2 625.991 32.7562   3
 -10   0   2 627.218 30.6271   6
 -10   0   2 671.306 29.3753   7
 -10   0   2 693.731 32.6535   3
 -10   0   2 667.537 30.6895   5
  -8   0   2 1116.19 40.3804   3
  -8   0   2 1202.94 40.3668   5
  -8   0   2 1161.24 39.8061   7
   8   0  -2 1208.47 41.4246   2
   8   0  -2 1207.30 42.8623   3
  -8   0   2 1152.71 39.2504   2
  -6   0   2 2219.28 61.1418   3
   6   0  -2 2071.56 60.3442   5
  -6   0   2 2263.09 60.0733   2
  -6   0   2 2169.01 59.8246   5
   6   0  -2 2130.79 61.1782   3
   6   0  -2 2153.27 60.5686   2
  -4   0   2 8909.92 204.595   2
  -4   0   2 8789.18 205.635   3
   4   0  -2 8665.03 204.472   2
  -4   0   2 8931.99 205.428   5
   4   0  -2 8558.51 205.176   5
  -4   0   2 8812.27 220.660   4
  -2   0   2 9709.47 225.052   5
  -2   0   2 9999.99 224.748   2
   2   0  -2 9710.77 239.578   4
   2   0  -2 9585.01 237.007   5
   2   0  -2 9847.85 236.585   2
  -2   0   2 9784.96 241.911   4
   0   0  -2 706.731 22.6075   2
   0   0  -2 720.721 18.7775   1
   0   0  -2 739.676 27.1345   4
   0   0   2 706.018 23.4504   6
   0   0   2 708.802 21.6485   5
   0   0   2 698.893 26.7693   4
   0   0  -2 711.307 23.7373   6
   2   0   2 4212.26 95.2089   5
  -2   0  -2 3910.82 98.5298   6
   2   0   2 4219.90 98.8812   6
  -2   0  -2 3975.85 102.572   4
   2   0   2 4144.01 94.9919   7
   4   0   2 5533.80 134.332   6
  -4   0  -2 5623.98 134.636   6
   6   0   2 4088.17 101.278   6
   6   0   2 3897.19 101.441   3
  -6   0  -2 3960.40 90.9370   5
  -6   0  -2 3844.63 101.122   6
  -8   0  -2 1807.44 58.0628   6
  -8   0  -2 1915.82 47.2632   5
   8   0   2 1867.30 57.1943   6
   8   0   2 1886.07 58.7507   3
 -10   0  -2 683.362 23.2144   5
  10   0   2 728.503 35.7451   3
 -10   0  -2 666.315 35.1588   6
 -12   0  -2 902.674 29.5666   5
 -12   0  -2 805.475 40.4214   6
  12   0   2 897.442 41.9063   3
  14   0   2 690.261 39.0013   3
 -14   0  -2 645.081 40.4691   6
 -14   0  -2 691.639 27.4368   5
 -16   0  -2 406.316 38.4908   6
  16   0   2 395.246 33.1692   3
 -16   0  -2 327.333 33.7127   1
  18   0   2 233.445 31.1051   3
 -18   0  -2 285.130 35.8362   6
 -18   0  -2 250.611 32.1417   1
 -20   0  -2 154.470 29.1445   1
  20   0   2 195.289 29.9083   3
 -20   0  -2 203.368 33.8094   6
 -22   0  -2 58.0545 28.9183   6
  22   0   2 43.1444 22.2687   3
 -22   0  -2 88.8959 26.6594   1
 -21  -1   2 135.904 28.0443   1
 -21  -1   2 133.181 29.1890   6
  21   1  -2 137.009 30.5006   3
 -21   1   2 171.854 32.0941   6
 -21   1   2 190.889 31.7640   1
 -19  -1   2 241.556 25.5542   7
 -19  -1   2 184.046 28.2263   6
 -19  -1   2 250.615 33.1034   1
 -19   1   2 218.384 24.5255   7
 -19   1   2 234.395 32.7258   6
  19   1  -2 234.447 34.1833   3
 -17  -1   2 188.238 25.4578   6
 -17  -1   2 233.975 23.7148   7
 -17  -1   2 216.813 28.6784   1
  17  -1  -2 260.393 29.9321   3
  17   1  -2 260.849 33.3786   3
 -17   1   2 203.676 23.3650   7
 -17   1   2 246.521 29.2385   6
 -15  -1   2 501.738 34.1920   6
 -15  -1   2 534.992 36.4189   1
 -15  -1   2 541.613 31.5455   7
  15  -1  -2 559.944 34.6104   3
  15   1  -2 534.903 36.7448   3
 -15   1   2 485.983 30.3576   7
 -15   1   2 560.650 37.4474   6
 -13  -1   2 992.321 42.6074   1
 -13  -1   2 955.349 41.4905   6
  13  -1  -2 971.671 42.3218   3
 -13  -1   2 935.738 39.4195   7
  13   1  -2 972.230 41.8279   5
 -13   1   2 954.784 39.2245   7
  13   1  -2 1000.49 46.7756   3
 -11  -1   2 948.324 40.3160   1
  11  -1  -2 1011.36 40.2367   3
 -11  -1   2 995.836 39.0781   6
  11   1  -2 900.530 39.5191   5
 -11   1   2 964.845 37.7976   7
 -11   1   2 1029.71 39.5965   3
  11   1  -2 973.104 42.4515   3
  -9  -1   2 787.090 30.5633   2
  -9  -1   2 777.742 32.5656   6
  -9  -1   2 864.428 33.8147   5
  -9  -1   2 834.400 35.3724   3
  -9   1   2 875.345 35.0336   2
   9   1  -2 821.073 37.9758   3
   9   1  -2 826.384 33.0233   2
  -9   1   2 860.163 33.4551   3
  -9   1   2 847.763 32.8537   7
   9   1  -2 823.656 34.2050   5
  -9   1   2 821.128 33.1021   5
  -7  -1   2 1464.17 48.2428   3
  -7  -1   2 1466.33 45.4293   1
  -7  -1   2 1565.79 45.5050   2
  -7  -1   2 1632.06 47.7808   5
  -7   1   2 1441.76 46.4701   7
   7   1  -2 1538.52 50.0529   3
  -7   1   2 1593.40 46.9555   3
  -7   1   2 1535.73 46.7859   5
   7   1  -2 1536.18 46.8650   2
   7   1  -2 1469.23 47.5814   5
  -7   1   2 1435.59 46.5381   2
  -5  -1   2 2622.44 71.3210   3
   5  -1  -2 2585.56 69.9747   7
  -5  -1   2 2641.51 67.0905   1
  -5  -1   2 2478.05 73.0337   4
  -5  -1   2 2703.34 70.2912   5
   5  -1  -2 2595.57 70.0511   2
  -5  -1   2 2742.26 68.9903   2
  -5   1   2 2708.07 69.9574   2
  -5   1   2 2683.71 70.6708   7
   5   1  -2 2666.21 69.4885   2
   5   1  -2 2585.92 70.6335   5
  -5   1   2 2714.86 70.1731   5
  -5   1   2 2692.15 69.4068   3
   5   1  -2 2656.15 72.8457   3
  -3  -1   2 2309.09 60.9662   3
   3  -1  -2 2255.57 59.2808   2
  -3  -1   2 2304.24 63.0506   4
  -3  -1   2 2197.82 55.2718   1
  -3  -1   2 2209.82 58.3620   2
  -3  -1   2 2212.44 59.8548   5
   3  -1  -2 2216.78 60.1044   7
  -3   1   2 2253.55 61.2353   7
   3   1  -2 2332.40 62.8406   4
  -3   1   2 2285.61 55.1229   4
  -3   1   2 2328.09 59.3520   2
   3   1  -2 2438.75 59.7359   2
   3   1  -2 2261.88 60.2983   5
  -1  -1   2 2568.35 61.0680   6
  -1  -1   2 2516.22 67.8571   4
   1  -1  -2 2649.05 61.0687   4
   1  -1  -2 2607.68 62.4178   1
   1  -1  -2 2551.84 64.8290   7
  -1  -1   2 2577.53 59.5209   1
  -1  -1   2 2583.48 64.4222   5
   1  -1  -2 2360.80 62.5888   2
   1   1  -2 2568.22 68.1115   4
  -1   1   2 2614.95 62.0460   1
  -1   1   2 2509.31 63.0061   2
   1   1  -2 2623.20 59.4399   1
   1   1  -2 2585.97 64.7955   2
   1   1  -2 2533.62 64.0726   5
   1   1  -2 2576.54 61.2517   6
  -1   1   2 2594.51 64.9120   6
  -1   1   2 2580.44 65.3419   7
   1  -1   2 2753.26 67.7303   5
  -1  -1  -2 2938.94 67.8772   2
  -1  -1  -2 2800.42 69.4459   7
  -1  -1  -2 2703.14 70.5357   6
   1  -1   2 2848.03 76.5613   4
  -1  -1  -2 2879.47 69.3781   1
   1  -1   2 2786.91 68.8704   6
  -1   1  -2 2832.65 67.8139   5
   1   1   2 2814.44 70.8078   6
  -1   1  -2 2793.96 69.1110   6
   1   1   2 2922.84 69.2181   1
  -1   1  -2 2992.29 76.8873   4
   1   1   2 2847.14 69.8121   7
  -3  -1  -2 4202.74 96.0220   7
   3  -1   2 3937.57 105.887   4
  -3  -1  -2 4048.59 99.8732   1
  -3  -1  -2 4159.78 101.049   6
   3  -1   2 4193.71 99.8801   6
  -3   1  -2 4055.42 106.007   4
   3   1   2 4145.92 100.256   6
  -3   1  -2 4146.89 93.8352   5
  -3   1  -2 3994.36 99.6695   6
   3   1   2 4007.35 99.3482   1
   5  -1   2 2722.71 72.0854   6
  -5  -1  -2 2707.17 72.5496   6
  -5  -1  -2 2650.51 72.3336   1
  -5   1  -2 2694.59 78.8451   4
  -5   1  -2 2515.95 71.7538   6
   5   1   2 2806.69 65.0748   5
   5   1   2 2804.15 72.1908   6
  -7  -1  -2 1990.63 61.1720   1
   7  -1   2 2042.08 59.5774   3
   7  -1   2 2100.79 60.9847   6
  -7  -1  -2 2038.93 60.7024   6
  -7   1  -2 2115.08 68.9045   4
  -7   1  -2 2050.30 50.3184   5
   7   1   2 2016.87 63.2738   3
  -7   1  -2 2032.82 61.9828   6
   7   1   2 2128.77 60.2883   6
   7   1   2 2089.95 52.2298   5
   9  -1   2 987.474 38.1466   3
  -9  -1  -2 955.630 40.2100   6
  -9  -1  -2 1058.85 40.8853   1
   9   1   2 991.035 41.7265   3
  -9   1  -2 1008.85 28.8409   5
   9   1   2 990.720 30.4759   5
  -9   1  -2 957.008 39.8665   6
 -11  -1  -2 521.048 33.2466   1
  11  -1   2 524.677 31.0329   3
 -11  -1  -2 546.195 33.6722   6
 -11  -1  -2 543.051 17.4363   7
  11   1   2 560.853 22.2554   5
  11   1   2 487.757 33.3283   3
 -11   1  -2 564.414 20.8203   5
 -11   1  -2 520.661 32.2101   6
 -13  -1  -2 708.991 39.9798   6
 -13  -1  -2 628.082 39.1509   1
 -13  -1  -2 662.447 20.4983   7
  13  -1   2 700.354 35.7824   3
 -13   1  -2 607.549 37.4616   6
  13   1   2 685.987 38.6205   3
 -13   1  -2 677.972 25.4674   5
  15  -1   2 414.477 31.8886   3
 -15  -1  -2 441.045 37.0203   6
 -15  -1  -2 405.703 33.8838   1
  15   1   2 468.408 36.6147   3
 -15   1  -2 441.149 35.2440   6
 -17  -1  -2 211.223 31.3323   6
 -17  -1  -2 204.371 29.0030   1
  17  -1   2 347.434 32.2838   3
 -17   1  -2 227.239 31.9103   6
  17   1   2 316.316 35.0466   3
 -19  -1  -2 174.778 31.8131   6
 -19  -1  -2 218.537 31.3415   1
  19  -1   2 160.558 26.7070   3
 -19   1  -2 151.979 28.9192   1
  19   1   2 152.298 28.8803   3
 -19   1  -2 162.672 30.6727   6
 -21  -1  -2 99.3187 30.8352   6
  21  -1   2 127.419 32.1453   3
 -21  -1  -2 127.603 28.4509   1
 -21   1  -2 152.151 32.1478   6
  21   1   2 109.147 27.1274   3
 -21   1  -2 106.036 28.6669   1
 -22  -2   2 165.450 36.9945   4
 -22  -2   2 121.921 28.4792   1
 -22  -2   2 95.6015 27.2482   6
  22   2  -2 94.3070 29.5450   3
 -22   2   2 100.957 30.7170   6
 -20  -2   2 147.275 27.0288   6
 -20  -2   2 135.442 26.9645   1
 -20   2   2 138.434 28.9997   6
  20   2  -2 133.292 31.3757   3
 -18  -2   2 148.635 26.7569   1
 -18  -2   2 160.185 22.1417   7
 -18  -2   2 147.576 24.6623   6
 -18   2   2 137.937 27.5365   6
  18   2  -2 138.437 28.3344   3
 -18   2   2 103.753 19.4847   7
 -16  -2   2 274.295 27.8015   6
 -16  -2   2 361.081 27.5787   7
 -16  -2   2 281.286 30.2578   1
 -16   2   2 264.095 31.1464   6
  16   2  -2 272.411 32.5998   3
  16   2  -2 297.694 29.6733   5
 -16   2   2 256.253 24.8786   7
 -14  -2   2 477.259 30.6757   6
 -14  -2   2 459.556 33.7178   1
 -14   2   2 497.058 29.6303   7
 -14   2   2 446.401 33.2655   6
  14   2  -2 555.484 33.6432   5
  14   2  -2 529.722 38.5405   3
 -12  -2   2 837.614 35.6419   6
 -12  -2   2 761.371 36.5459   1
 -12   2   2 824.812 35.7191   7
 -12   2   2 866.620 35.7433   3
  12   2  -2 736.884 36.9936   5
  12   2  -2 735.357 40.3292   3
 -10  -2   2 1171.63 43.7163   1
 -10  -2   2 1250.52 40.9873   2
 -10  -2   2 1188.58 40.6785   6
  10   2  -2 1160.64 45.2352   5
 -10   2   2 1188.31 42.5751   7
  10   2  -2 1180.46 47.8925   3
 -10   2   2 1195.18 41.0157   3
 -10   2   2 1167.24 46.7434   5
  10   2  -2 1243.02 42.9815   2
  -8  -2   2 1170.25 40.5167   5
  -8  -2   2 1051.27 37.8826   1
  -8  -2   2 1186.63 48.6023   4
   8  -2  -2 1163.41 40.1485   7
  -8  -2   2 1085.16 35.9466   6
  -8  -2   2 1144.46 42.5553   3
  -8  -2   2 1083.31 36.7813   2
  -8   2   2 1123.70 41.0390   2
   8   2  -2 1137.86 44.9956   3
  -8   2   2 1088.80 37.2255   3
   8   2  -2 1115.83 38.5643   2
   8   2  -2 1141.56 41.7949   5
  -8   2   2 1124.27 39.7949   7
  -6  -2   2 1889.75 62.9476   4
  -6  -2   2 1969.98 57.3293   5
  -6  -2   2 2046.48 54.3393   2
  -6  -2   2 2002.52 59.7294   3
  -6  -2   2 1995.51 51.9755   6
   6  -2  -2 1954.63 57.4792   7
  -6  -2   2 1896.21 54.3603   1
  -6   2   2 1930.53 57.7095   7
   6   2  -2 1890.30 54.7338   2
  -6   2   2 1945.67 53.9877   3
   6   2  -2 1997.95 58.1052   5
  -6   2   2 2025.41 57.4810   2
   6   2  -2 2017.54 60.5610   3
  -4  -2   2 1126.62 33.1750   2
   4  -2  -2 1089.91 35.9809   7
  -4  -2   2 1033.41 32.0375   1
  -4  -2   2 1030.29 39.9804   4
  -4  -2   2 1104.84 37.2090   3
  -4  -2   2 1117.15 36.7958   5
  -4   2   2 1077.11 34.7106   2
  -4   2   2 1038.46 36.3069   7
   4   2  -2 1059.00 37.6618   3
   4   2  -2 1053.47 32.4061   1
  -4   2   2 1071.70 34.5606   1
   4   2  -2 1115.85 37.2771   5
   4   2  -2 1031.04 33.8400   2
   4   2  -2 1062.38 39.4347   4
  -4   2   2 1109.16 29.5459   4
  -2  -2   2 506.669 22.3508   3
  -2  -2   2 457.056 13.6523   6
   2  -2  -2 513.692 22.8997   7
  -2  -2   2 502.353 18.2173   1
   2  -2  -2 506.970 20.5588   2
  -2  -2   2 543.493 23.7998   5
   2  -2  -2 487.089 21.9340   1
  -2  -2   2 467.606 28.3395   4
   2   2  -2 441.626 21.9771   5
   2   2  -2 512.309 21.5541   2
  -2   2   2 510.636 20.6667   2
   2   2  -2 518.789 18.7047   1
  -2   2   2 469.699 23.6789   7
  -2   2   2 510.616 21.8000   1
   0  -2  -2 656.963 20.9105   2
   0  -2   2 737.823 34.1346   4
   0  -2   2 690.516 19.8305   6
   0  -2  -2 728.374 27.1670   7
   0  -2   2 671.592 23.2489   1
   0  -2  -2 662.044 25.0006   1
   0  -2  -2 678.459 25.2601   6
   0   2  -2 630.949 23.5992   5
   0   2   2 682.200 21.0420   2
   0   2   2 621.214 24.1717   1
   0   2  -2 696.946 20.0350   6
   0   2   2 709.040 25.8878   6
   0   2  -2 683.746 32.0178   4
   0   2  -2 684.276 23.0466   1
  -2  -2  -2 460.885 22.3287   1
   2  -2   2 404.613 28.4328   4
   2  -2   2 435.583 18.2711   6
  -2  -2  -2 433.828 13.8120   2
  -2  -2  -2 487.663 22.5970   6
  -2   2  -2 471.166 27.6700   4
  -2   2  -2 432.909 19.5015   6
   2   2   2 403.123 19.9579   1
   2   2   2 488.045 21.5046   6
   4  -2   2 2663.16 69.1442   6
  -4  -2  -2 2616.78 70.1546   6
   4  -2   2 2495.95 76.8096   4
  -4  -2  -2 2699.65 71.0637   1
  -4   2  -2 2528.93 69.2727   6
   4   2   2 2729.60 69.9038   6
   4   2   2 2607.29 69.9903   1
  -4   2  -2 2685.27 77.8981   4
   6  -2   2 2041.00 59.6107   6
  -6  -2  -2 2008.30 60.8561   1
  -6  -2  -2 2078.61 60.2825   6
   6   2   2 2092.45 59.9762   6
  -6   2  -2 2223.72 69.6153   4
   6   2   2 2008.96 63.9769   3
   6   2   2 2064.84 54.5687   5
  -6   2  -2 2032.28 60.5255   6
  -8  -2  -2 938.375 39.2912   1
  -8  -2  -2 845.719 35.7882   6
   8  -2   2 898.094 33.1809   3
   8  -2   2 924.308 26.6348   7
  -8   2  -2 936.697 38.7554   6
   8   2   2 949.848 35.7804   6
  -8   2  -2 921.808 44.3665   4
   8   2   2 948.253 41.0479   3
   8   2   2 930.519 30.5241   5
  10  -2   2 536.468 27.0323   3
 -10  -2  -2 478.221 30.5446   6
 -10  -2  -2 541.559 31.3247   1
  10   2   2 566.043 23.5378   5
 -10   2  -2 498.874 30.2426   6
 -10   2  -2 546.280 20.8724   5
  10   2   2 511.573 33.5544   3
 -12  -2  -2 351.009 30.1956   6
  12  -2   2 360.411 25.0046   3
 -12  -2  -2 366.378 21.9445   2
 -12  -2  -2 407.927 30.0762   1
 -12   2  -2 344.736 18.1804   5
  12   2   2 368.646 19.9837   5
 -12   2  -2 343.177 29.1839   6
  12   2   2 329.893 30.5516   3
 -14  -2  -2 264.648 29.3809   1
 -14  -2  -2 353.238 16.8641   7
  14  -2   2 362.131 26.6934   3
 -14  -2  -2 360.224 30.6684   6
  14   2   2 379.716 21.3012   5
  14   2   2 305.775 33.3557   3
 -14   2  -2 361.477 34.3308   6
 -14   2  -2 353.920 19.5910   5
  16  -2   2 316.711 26.3873   3
 -16  -2  -2 300.039 33.1038   6
 -16  -2  -2 268.508 32.8610   1
  16   2   2 296.589 35.0592   3
 -16   2  -2 255.408 33.1905   6
 -18  -2  -2 230.619 31.6111   1
 -18  -2  -2 205.718 31.9965   6
  18  -2   2 247.207 27.3749   3
  18   2   2 205.327 30.9908   3
 -18   2  -2 207.566 32.6083   6
 -20  -2  -2 89.8203 28.5383   6
 -20  -2  -2 104.550 25.8152   1
 -20   2  -2 115.613 29.3667   6
  20   2   2 97.7895 28.5686   3
 -22  -2  -2 47.1316 26.5838   1
 -22  -2  -2 76.7376 30.0933   6
 -22   2  -2 20.6874 24.8839   6
  22   2   2 48.0827 27.1580   3
 -22   2  -2 96.0069 30.3837   1
 -21  -3   2 38.9716 22.5682   6
 -21  -3   2 81.5980 25.2441   1
 -21  -3   2 68.2662 29.0986   4
  21   3  -2 74.5794 29.7398   3
 -21   3   2 61.3574 24.7949   6
 -19  -3   2 55.9695 21.3078   6
 -19  -3   2 33.4238 25.1609   4
 -19  -3   2 62.4393 23.5345   1
 -19  -3   2 68.1229 18.4809   7
  19   3  -2 25.4525 22.7226   3
 -19   3   2 35.9816 22.3272   6
 -17  -3   2 203.176 35.6447   4
 -17  -3   2 196.179 25.8688   6
 -17  -3   2 155.821 27.2484   1
 -17   3   2 177.557 28.9736   6
  17   3  -2 199.999 26.5843   5
  17   3  -2 204.094 32.9685   3
 -15  -3   2 205.657 25.8214   1
 -15  -3   2 256.995 25.7914   6
 -15  -3   2 209.415 32.7358   4
 -15   3   2 224.347 28.0206   6
 -15   3   2 240.708 25.2071   7
  15   3  -2 265.778 29.0712   5
  15   3  -2 229.342 32.4524   3
 -13  -3   2 337.203 29.6300   1
 -13  -3   2 379.376 25.6673   6
 -13  -3   2 329.146 34.9538   4
  13   3  -2 322.183 28.3573   5
  13   3  -2 391.892 37.1124   3
 -13   3   2 380.777 28.1778   7
 -13   3   2 390.991 24.7680   3
 -11  -3   2 611.042 28.4588   2
 -11  -3   2 624.034 40.7277   4
 -11  -3   2 628.240 28.2440   6
 -11  -3   2 705.845 34.4233   1
 -11   3   2 653.405 34.0579   4
 -11   3   2 613.881 28.0272   3
  11   3  -2 678.521 39.8857   3
  11   3  -2 623.213 29.9789   2
 -11   3   2 629.971 33.1499   7
  11   3  -2 602.090 32.6458   5
   9  -3  -2 709.620 31.8384   7
  -9  -3   2 692.530 31.9026   1
  -9  -3   2 645.979 26.3605   6
  -9  -3   2 695.585 40.0678   4
  -9  -3   2 700.579 28.1091   2
   9   3  -2 663.156 33.9902   5
  -9   3   2 692.754 27.5029   3
  -9   3   2 743.626 32.4886   4
   9   3  -2 682.074 29.5403   2
   9   3  -2 731.159 38.2674   3
  -9   3   2 660.070 33.2141   7
  -7  -3   2 743.187 25.5926   6
  -7  -3   2 826.412 28.5679   2
  -7  -3   2 770.477 30.9267   1
  -7  -3   2 698.204 38.6221   4
  -7  -3   2 769.073 35.3355   3
   7  -3  -2 750.354 32.4280   7
  -7  -3   2 745.518 31.3625   5
  -7   3   2 820.359 35.1049   7
  -7   3   2 746.644 31.7098   2
  -7   3   2 768.135 27.4394   3
  -7   3   2 728.947 29.6328   4
   7   3  -2 799.029 30.7378   1
   7   3  -2 749.767 36.7379   3
   7   3  -2 743.399 33.2117   5
   7   3  -2 721.238 28.8139   2
  -5  -3   2 2155.31 57.1938   2
  -5  -3   2 2137.78 63.5419   3
  -5  -3   2 2089.29 58.3540   1
  -5  -3   2 2147.81 62.2964   5
   5  -3  -2 2195.70 62.5641   7
  -5  -3   2 2171.86 52.2159   6
  -5  -3   2 2002.28 68.0850   4
   5   3  -2 2089.40 63.5259   3
   5   3  -2 2055.15 67.1553   4
  -5   3   2 2077.05 62.0481   7
  -5   3   2 2158.75 60.4146   2
   5   3  -2 2124.57 62.7869   5
  -5   3   2 2088.85 55.4977   4
  -5   3   2 2067.92 60.7962   1
   5   3  -2 2089.19 57.3110   2
   5   3  -2 2136.95 58.3984   1
  -3  -3   2 2180.05 58.7038   1
  -3  -3   2 2160.42 62.0167   3
   3  -3  -2 2252.21 63.6491   7
   3  -3  -2 2200.08 54.4081   4
  -3  -3   2 2197.16 68.9027   4
  -3  -3   2 2371.73 63.1670   5
  -3   3   2 2214.89 59.5072   2
   3   3  -2 2177.39 67.4578   4
  -3   3   2 2234.18 61.8086   1
   3   3  -2 2116.65 62.0677   5
   3   3  -2 2250.02 58.6086   1
   3   3  -2 2172.49 62.4787   3
  -3   3   2 2201.18 54.1703   4
   3   3  -2 2140.29 58.5061   2
   1  -3  -2 729.852 29.5535   7
  -1  -3   2 679.305 25.5934   1
  -1  -3   2 668.232 33.2980   4
   1  -3  -2 700.647 23.1415   4
   1  -3  -2 693.755 28.9943   1
   1   3  -2 668.414 32.1330   4
  -1   3   2 682.190 22.9052   2
   1   3  -2 694.877 17.1985   6
   1   3  -2 621.541 24.4123   1
  -1   3   2 649.239 25.9217   6
   1   3  -2 688.758 28.7222   5
  -1   3   2 614.856 26.1942   1
  -1  -3  -2 807.782 30.1087   6
   1  -3   2 804.566 29.4743   1
   1  -3   2 845.022 26.4826   3
  -1  -3  -2 783.129 31.2134   1
   1  -3   2 806.329 37.1983   4
  -1   3  -2 846.294 36.2946   4
  -1   3  -2 785.680 24.6700   6
  -1   3  -2 794.411 29.0547   1
   1   3   2 842.261 22.7425   2
   1   3   2 841.477 29.4977   6
   1   3   2 857.134 31.1868   1
   3  -3   2 201.427 22.9695   4
  -3  -3  -2 183.722 17.1338   1
  -3  -3  -2 254.802 18.9837   6
  -3   3  -2 227.194 17.7670   6
   3   3   2 267.608 18.1576   6
  -3   3  -2 217.565 17.6810   1
  -3   3  -2 244.626 24.6469   4
   3   3   2 251.723 18.9498   1
   5  -3   2 1078.32 46.9271   4
  -5  -3  -2 1115.40 40.9896   1
  -5  -3  -2 1131.82 27.3687   2
  -5  -3  -2 1139.80 38.7076   6
   5   3   2 1141.77 37.9506   6
  -5   3  -2 1071.00 38.3190   6
   5   3   2 1128.55 40.2897   1
   5   3   2 1063.99 43.5539   3
  -5   3  -2 1096.59 47.2696   4
  -7  -3  -2 723.581 33.2872   1
   7  -3   2 687.738 24.6238   3
  -7  -3  -2 683.117 21.1470   2
  -7  -3  -2 691.989 31.6687   6
   7   3   2 640.385 35.2578   3
   7   3   2 697.026 27.9509   5
  -7   3  -2 677.447 33.0840   6
   7   3   2 706.765 30.9410   6
  -7   3  -2 722.325 39.8271   4
  -9  -3  -2 519.093 29.7439   6
   9  -3   2 501.611 22.4040   3
   9  -3   2 533.887 21.3969   7
  -9  -3  -2 512.380 32.1533   1
  -9  -3  -2 514.439 20.0747   2
   9   3   2 531.731 24.4333   5
   9   3   2 486.121 34.7108   3
  -9   3  -2 403.795 27.9289   6
 -11  -3  -2 462.142 21.1962   2
 -11  -3  -2 431.171 30.7901   1
  11  -3   2 489.975 19.6234   7
  11  -3   2 466.513 23.4909   3
 -11  -3  -2 455.365 31.3104   6
 -11   3  -2 459.600 21.3054   5
  11   3   2 411.806 35.6843   3
  11   3   2 446.656 24.0811   5
 -11   3  -2 482.260 33.4452   6
 -13  -3  -2 143.869 22.8363   1
 -13  -3  -2 208.604 17.7313   2
  13  -3   2 190.330 18.5568   3
 -13  -3  -2 159.483 24.3104   6
 -13   3  -2 176.273 15.7925   5
  13   3   2 149.316 26.4137   3
  13   3   2 188.749 18.4025   5
 -13   3  -2 157.760 25.3258   6
 -15  -3  -2 267.452 30.2418   6
 -15  -3  -2 253.842 31.0039   1
  15  -3   2 262.637 21.9632   3
  15   3   2 232.870 20.1210   5
  15   3   2 184.675 30.1823   3
 -15   3  -2 187.320 29.4988   6
  17  -3   2 137.009 19.0529   3
 -17  -3  -2 162.169 28.7989   1
 -17  -3  -2 146.836 27.9534   6
  17   3   2 204.587 20.4946   5
  17   3   2 204.679 33.0640   3
 -17   3  -2 140.792 27.4434   6
 -19  -3  -2 56.7990 24.8076   6
 -19  -3  -2 66.5179 24.7967   1
  19   3   2 80.4545 26.3974   3
 -19   3  -2 65.9933 24.6490   6
 -21  -3  -2 77.2482 28.1039   1
 -21  -3  -2 19.7405 24.9168   6
 -21   3  -2 27.7880 25.9481   6
  21   3   2 21.3332 24.9079   3
 -22  -4   2 19.0317 22.7346   1
 -22  -4   2 18.8669 26.3678   4
 -20  -4   2 42.5065 19.8747   6
 -20  -4   2 23.9076 20.6026   1
 -20  -4   2 18.0954 24.1964   4
  20   4  -2 41.0064 21.7622   5
  20   4  -2 -0.8052 22.8581   3
 -20   4   2 30.4109 23.3663   6
 -18  -4   2 29.0688 25.1650   4
 -18  -4   2 26.8604 20.5561   1
 -18  -4   2 77.5319 20.5298   6
  18   4  -2 67.0746 21.4674   5
 -18   4   2 45.2556 21.8573   6
  18   4  -2 56.3469 26.9621   3
 -16  -4   2 106.803 23.5380   1
 -16  -4   2 96.7385 29.1469   4
 -16  -4   2 117.664 20.1068   6
 -16   4   2 135.709 26.2092   6
  16   4  -2 135.676 30.2469   3
  16   4  -2 132.405 24.1415   5
 -14  -4   2 145.741 19.0439   6
 -14  -4   2 135.072 28.8790   4
 -14  -4   2 134.387 21.9972   1
  14   4  -2 114.302 26.0645   3
 -14   4   2 173.359 18.5859   3
  14   4  -2 159.380 24.0060   5
 -12  -4   2 194.729 30.2859   4
 -12  -4   2 251.469 26.6708   1
 -12  -4   2 206.226 19.3849   6
 -12   4   2 214.998 18.5494   3
  12   4  -2 208.174 20.5584   2
  12   4  -2 276.760 28.6134   5
  12   4  -2 204.755 29.4290   3
 -12   4   2 205.263 24.6480   4
 -10  -4   2 28.6277 17.8183   4
 -10  -4   2 61.5728 11.5281   6
 -10  -4   2 51.4983 12.0434   2
 -10  -4   2 36.7227 14.2209   1
  10   4  -2 43.0396 16.0019   5
  10   4  -2 53.8019 19.0102   3
  10   4  -2 64.4560 13.0795   2
 -10   4   2 60.0115 10.5136   3
 -10   4   2 88.3449 17.4629   4
  -8  -4   2 151.768 13.3245   6
  -8  -4   2 222.915 17.6644   2
   8  -4  -2 157.289 18.5692   7
  -8  -4   2 179.925 18.2780   1
  -8  -4   2 191.070 26.7724   4
   8   4  -2 201.882 16.9452   2
  -8   4   2 193.873 14.4308   3
   8   4  -2 190.585 18.8292   1
   8   4  -2 167.902 20.9001   5
   8   4  -2 125.078 20.4946   3
  -8   4   2 200.544 19.7547   4
  -6  -4   2 388.828 15.8041   6
  -6  -4   2 436.789 34.8873   4
  -6  -4   2 461.580 27.7145   3
  -6  -4   2 406.381 25.5567   5
   6  -4  -2 439.401 27.2073   7
  -6  -4   2 411.170 24.3790   1
  -6   4   2 426.047 26.5885   1
   6   4  -2 512.197 24.8573   1
   6   4  -2 465.481 28.6630   5
  -6   4   2 398.879 24.8957   2
   6   4  -2 417.522 21.2308   2
   6   4  -2 381.406 28.6317   3
  -6   4   2 451.997 23.2144   4
  -4  -4   2 1146.35 39.1187   1
  -4  -4   2 1188.99 42.5752   3
  -4  -4   2 1077.70 47.5170   4
   4  -4  -2 1180.41 43.4552   7
   4  -4  -2 1114.80 35.5533   4
  -4   4   2 1096.18 40.8235   1
   4   4  -2 1090.12 41.5196   5
   4   4  -2 1111.16 37.6976   1
  -4   4   2 1149.63 38.6267   2
  -4   4   2 1172.10 34.8316   4
   4   4  -2 1195.30 48.2800   4
   4   4  -2 1158.56 42.9830   3
   4   4  -2 1128.01 36.3224   2
  -2  -4   2 1162.81 39.0928   3
   2  -4  -2 1177.32 42.6779   1
  -2  -4   2 1195.16 39.3671   1
   2  -4  -2 1200.92 36.2670   4
  -2  -4   2 1104.97 46.4220   4
   2  -4  -2 1189.73 43.2775   7
   2   4  -2 1163.46 47.3918   4
   2   4  -2 1171.51 40.2438   3
  -2   4   2 1181.38 35.5092   4
  -2   4   2 1177.13 41.2353   1
   2   4  -2 1112.28 37.6417   1
  -2   4   2 1162.36 35.9693   2
   2   4  -2 1138.42 41.2945   5
   0  -4  -2 859.016 31.6441   4
   0  -4  -2 807.258 33.4854   1
   0  -4   2 830.519 32.5174   1
   0  -4   2 849.124 29.3353   3
   0  -4   2 747.556 38.8280   4
   0   4  -2 834.262 23.8129   6
   0   4   2 804.514 32.1349   1
   0   4   2 820.176 25.5029   2
   0   4  -2 842.743 31.5539   1
   0   4  -2 852.652 38.5339   4
   0   4   2 856.932 30.8918   6
  -2  -4  -2 8.43841 11.6800   4
   2  -4   2 35.7679 17.9395   4
  -2  -4  -2 -1.7922 12.0190   1
   2  -4   2 16.3820 7.56817   3
  -2  -4  -2 17.1215 11.8553   6
   2   4   2 6.57679 4.07751   2
  -2   4  -2 2.44767 8.07987   6
  -2   4  -2 -0.5101 15.7516   4
   2   4   2 12.0814 10.6038   6
   2   4   2 -3.0623 10.6524   1
  -2   4  -2 0.36500 10.5775   1
  -4  -4  -2 14.2582 13.3729   1
  -4  -4  -2 11.1137 12.4964   6
   4  -4   2 9.66148 19.1562   4
   4  -4   2 1.76991 5.39453   3
  -4   4  -2 20.8104 18.0725   4
  -4   4  -2 -1.4211 12.2956   1
  -4   4  -2 5.71271 10.3047   6
   4   4   2 27.5228 16.5615   3
   4   4   2 11.9652 11.0513   1
   4   4   2 8.57568 11.3009   6
  -6  -4  -2 485.293 26.4413   6
   6  -4   2 476.997 34.6163   4
  -6  -4  -2 486.613 30.2312   1
   6  -4   2 486.516 15.9470   3
  -6   4  -2 450.888 26.1325   6
  -6   4  -2 482.640 35.0564   4
   6   4   2 443.566 30.4885   3
   6   4   2 473.625 25.3803   6
  -8  -4  -2 336.373 26.4047   1
  -8  -4  -2 339.220 12.4687   2
   8  -4   2 344.634 14.0264   3
  -8  -4  -2 325.687 24.8453   6
  -8   4  -2 311.474 25.6574   6
   8   4   2 306.351 22.4011   5
   8   4   2 333.280 32.6387   3
   8   4   2 384.588 26.5616   6
 -10  -4  -2 370.519 27.0922   6
  10  -4   2 391.828 16.9961   3
 -10  -4  -2 356.668 16.1000   2
  10  -4   2 409.591 21.2575   7
 -10  -4  -2 360.708 30.8093   1
  10   4   2 340.432 32.1486   3
  10   4   2 384.984 24.5393   5
 -10   4  -2 356.789 29.5648   6
 -12  -4  -2 90.4038 18.6998   6
 -12  -4  -2 74.1633 19.8088   1
  12  -4   2 128.924 13.0998   3
  12  -4   2 106.751 12.4504   7
 -12  -4  -2 136.057 12.8958   2
  12   4   2 88.6735 24.2896   3
 -12   4  -2 157.312 25.0105   6
  12   4   2 120.069 17.2857   5
 -14  -4  -2 55.3498 20.3923   1
 -14  -4  -2 74.8188 20.2295   6
  14  -4   2 85.6249 12.8600   3
  14   4   2 59.7575 22.9813   3
  14   4   2 104.308 16.4755   5
 -14   4  -2 85.5477 21.9342   6
  16  -4   2 117.825 15.9277   3
 -16  -4  -2 65.7805 22.6723   1
 -16  -4  -2 122.906 24.7924   6
 -16   4  -2 79.8979 23.6841   6
  16   4   2 112.344 28.9328   3
  16   4   2 114.294 16.9554   5
 -18  -4  -2 33.6729 23.5242   1
 -18  -4  -2 42.3123 22.7573   6
  18   4   2 58.0142 26.0624   3
 -18   4  -2 0.54975 20.0154   6
 -20  -4  -2 5.92319 22.4396   1
 -20  -4  -2 6.09836 23.9919   6
  20   4   2 9.53477 25.3549   3
 -20   4  -2 21.8588 23.1802   6
 -21  -5   2 -9.6407 21.0023   1
 -21  -5   2 30.4349 27.5810   4
  21   5  -2 -4.7230 19.6378   5
  21   5  -2 -8.2874 23.8750   3
 -21   5   2 -7.4862 23.5977   6
 -19  -5   2 -3.1520 18.5264   1
 -19  -5   2 17.4792 18.5818   6
 -19  -5   2 23.8148 24.1454   4
  19   5  -2 -15.936 18.2574   5
 -19   5   2 17.8840 21.7658   6
  19   5  -2 16.0888 25.3507   3
 -17  -5   2 6.51236 20.2531   1
 -17  -5   2 6.06228 13.9122   6
 -17  -5   2 45.6382 26.7078   4
 -17   5   2 24.3074 20.3554   6
  17   5  -2 5.61076 15.9405   5
  17   5  -2 5.56036 21.3727   3
 -15  -5   2 31.0606 18.2523   1
 -15  -5   2 26.2940 14.4979   6
 -15  -5   2 35.5068 24.2341   4
  15   5  -2 40.8591 23.0295   3
 -15   5   2 63.8740 22.2019   6
  15   5  -2 42.3811 19.6304   5
 -13  -5   2 22.7776 20.1731   4
 -13  -5   2 26.2210 12.3834   6
 -13  -5   2 47.3914 19.1567   1
  13   5  -2 46.6009 20.0749   5
 -13   5   2 30.3138 10.9896   3
  13   5  -2 -1.2029 18.0654   3
 -11  -5   2 1.44105 9.34454   6
 -11  -5   2 12.6574 11.0248   2
 -11  -5   2 2.03159 14.7553   1
 -11  -5   2 -0.2578 17.0477   4
  11   5  -2 4.26951 16.4013   3
  11   5  -2 -0.3573 15.3535   5
  11   5  -2 -10.120 10.1050   2
 -11   5   2 23.9863 8.61158   3
 -11   5   2 -19.531 16.5945   4
  -9  -5   2 5.23451 18.7162   4
  -9  -5   2 2.43815 13.4816   1
  -9  -5   2 -2.5580 7.48049   6
  -9   5   2 -1.1950 6.75064   3
  -9   5   2 -22.414 13.1611   4
   9   5  -2 -8.9175 14.8309   5
   9   5  -2 11.1476 9.95219   2
   9   5  -2 8.34971 17.0493   3
  -7  -5   2 1.27348 5.54854   6
  -7  -5   2 -1.4099 12.2123   1
  -7  -5   2 1.53454 16.8759   4
   7   5  -2 -13.183 12.8954   3
  -7   5   2 -5.5330 10.4945   4
   7   5  -2 -1.2207 8.65365   2
   7   5  -2 -10.617 13.0459   5
  -5  -5   2 78.7727 18.2311   3
  -5  -5   2 76.3550 19.0210   4
   5  -5  -2 69.0482 12.4726   4
  -5  -5   2 74.9253 15.2576   1
  -5  -5   2 78.7310 6.41425   6
   5   5  -2 83.1017 12.6447   2
   5   5  -2 65.9855 13.6713   1
   5   5  -2 57.6074 16.4124   5
   5   5  -2 46.9380 16.6154   3
  -5   5   2 61.3430 11.0365   4
  -3  -5   2 677.372 41.2321   4
  -3  -5   2 669.186 31.0861   1
   3  -5  -2 630.669 34.1867   7
   3  -5  -2 667.993 28.8834   4
  -3  -5   2 668.421 31.1982   3
   3  -5  -2 664.665 34.5157   1
  -3   5   2 666.094 27.0378   4
   3   5  -2 592.214 33.5606   5
   3   5  -2 632.083 36.2155   4
   3   5  -2 659.594 29.6207   1
   3   5  -2 567.075 29.9293   3
  -3   5   2 606.918 31.2198   1
  -1  -5   2 504.313 28.7420   1
  -1  -5   2 531.088 36.9145   4
  -1  -5   2 506.682 25.2833   3
   1  -5  -2 505.601 25.7792   4
   1  -5  -2 533.770 31.4434   1
   1   5  -2 501.618 28.4523   5
   1   5  -2 501.422 26.4737   1
  -1   5   2 488.651 24.6061   4
  -1   5   2 455.497 25.0813   6
   1   5  -2 497.820 25.0073   3
   1   5  -2 435.875 31.0871   4
  -1   5   2 508.698 21.5465   2
  -1   5   2 504.162 27.2494   1
   1   5  -2 529.916 15.7855   6
   1  -5   2 70.8537 15.3138   1
   1  -5   2 81.7936 20.4761   4
  -1  -5  -2 48.6561 15.5941   1
  -1  -5  -2 63.0506 14.9826   4
   1  -5   2 84.9770 11.9160   3
   1   5   2 87.9794 16.4750   1
  -1   5  -2 68.8663 9.33299   6
   1   5   2 66.1490 7.99092   2
   1   5   2 77.1924 16.9315   3
  -1   5  -2 97.7820 19.5787   4
  -1   5  -2 62.1483 14.8425   1
   1   5   2 77.2917 13.3630   6
  -3  -5  -2 65.3700 14.4806   6
   3  -5   2 34.1958 7.66762   3
  -3  -5  -2 49.1789 15.3657   4
   3  -5   2 43.5703 19.6679   4
  -3  -5  -2 32.5105 15.9042   1
  -3   5  -2 28.8520 13.3827   1
   3   5   2 34.1720 14.1753   1
  -3   5  -2 60.4937 19.0742   4
   3   5   2 49.9798 12.5954   6
  -3   5  -2 38.7907 11.0133   6
   3   5   2 11.9966 17.2223   3
  -5  -5  -2 20.0249 12.0147   6
   5  -5   2 11.8280 20.6573   4
  -5  -5  -2 4.69077 13.2582   1
  -5  -5  -2 4.50085 14.2987   4
  -5   5  -2 -1.3033 10.8990   6
  -5   5  -2 12.4967 30.2033   4
   5   5   2 20.7935 11.3109   6
   5   5   2 12.3521 14.9705   3
  -7  -5  -2 184.366 21.4498   1
   7  -5   2 175.282 25.9246   4
  -7  -5  -2 181.757 19.5548   6
   7   5   2 199.878 20.7758   5
   7   5   2 214.703 20.0028   6
  -7   5  -2 261.100 23.1762   6
   7   5   2 209.596 27.0093   3
  -9  -5  -2 132.516 21.5629   1
   9  -5   2 152.698 18.8284   7
  -9  -5  -2 159.748 20.4004   6
  -9   5  -2 113.621 19.5733   6
   9   5   2 176.118 26.5458   3
   9   5   2 133.782 18.2526   5
 -11  -5  -2 24.5961 6.49535   2
 -11  -5  -2 -0.8132 14.7513   1
 -11  -5  -2 39.0724 16.8282   6
  11  -5   2 17.5672 10.8064   7
 -11   5  -2 -8.7705 15.7357   6
  11   5   2 11.1665 13.4445   5
  11   5   2 20.6028 20.2305   3
 -13  -5  -2 -21.011 15.3062   1
 -13  -5  -2 14.3446 16.9545   6
  13   5   2 14.2494 13.2636   5
 -13   5  -2 16.7675 19.8119   6
  13   5   2 1.92123 19.6717   3
 -15  -5  -2 14.0236 18.6152   6
 -15  -5  -2 18.6166 21.0764   1
  15   5   2 21.5580 22.9659   3
 -15   5  -2 -15.383 18.7029   6
  15   5   2 27.9311 13.8451   5
 -17  -5  -2 26.8015 22.8505   1
 -17  -5  -2 45.1441 21.7079   6
  17   5   2 9.16978 12.2057   5
  17   5   2 -1.9941 19.6805   3
 -17   5  -2 -13.356 20.5869   6
 -19  -5  -2 -0.9730 21.3867   6
 -19  -5  -2 4.61965 22.7312   1
 -19   5  -2 1.56200 22.2665   6
  19   5   2 31.0992 27.0984   3
 -20  -6   2 -7.9461 21.8254   1
 -20  -6   2 6.67830 27.1119   4
  20   6  -2 -33.409 18.9341   5
 -20   6   2 -26.851 21.9977   6
  20   6  -2 21.5930 27.2141   3
 -18  -6   2 0.38279 25.5046   4
 -18  -6   2 1.72304 18.1389   1
 -18  -6   2 35.8965 20.8349   6
 -18   6   2 -10.028 19.9949   6
  18   6  -2 29.1121 26.0435   3
  18   6  -2 -11.683 17.0665   5
 -16  -6   2 -13.682 21.0257   4
 -16  -6   2 19.0518 14.2976   6
 -16  -6   2 2.39974 18.1240   1
  16   6  -2 30.5482 20.1551   5
 -16   6   2 -3.6428 18.9507   6
  16   6  -2 -4.7377 23.9779   3
 -14  -6   2 24.3949 12.7550   6
 -14  -6   2 29.5079 22.5510   4
 -14  -6   2 21.6210 17.8209   1
  14   6  -2 -12.498 18.6870   3
  14   6  -2 8.36129 18.2143   5
 -12  -6   2 5.92606 10.6627   6
 -12  -6   2 21.4894 17.9501   1
 -12  -6   2 33.2663 23.2835   4
  12   6  -2 14.7422 10.6165   2
  12   6  -2 36.9836 19.3430   5
  12   6  -2 9.31831 19.5678   3
 -10  -6   2 11.9158 15.8112   1
 -10  -6   2 -0.1143 8.19311   6
 -10  -6   2 -22.585 16.1478   4
  10   6  -2 -5.4894 16.5791   3
 -10   6   2 3.83898 6.06148   3
  10   6  -2 -3.6116 9.62581   2
 -10   6   2 -29.021 14.8475   4
  10   6  -2 -3.2171 16.6340   5
  -8  -6   2 28.6562 19.7941   4
  -8  -6   2 16.3312 13.8586   1
  -8  -6   2 39.6550 8.06182   6
   8   6  -2 30.7648 16.9664   5
  -8   6   2 21.2413 13.5053   4
  -8   6   2 33.4349 7.55493   3
   8   6  -2 29.6555 10.8096   2
   8   6  -2 19.3951 18.0488   3
   6  -6  -2 68.7504 14.5933   4
  -6  -6   2 55.9319 20.6916   4
  -6  -6   2 54.6316 15.8526   1
   6   6  -2 49.5956 17.4264   3
   6   6  -2 62.0767 17.5651   5
   6   6  -2 83.7106 12.7379   2
  -6   6   2 54.1285 12.9693   4
  -4  -6   2 57.6078 19.5524   4
   4  -6  -2 71.2902 15.3704   4
  -4  -6   2 101.852 19.7920   3
  -4  -6   2 82.1878 17.3968   1
   4  -6  -2 89.2203 17.9309   1
   4   6  -2 84.4885 13.2623   2
   4   6  -2 88.5854 20.1516   5
   4   6  -2 82.3035 18.4128   3
  -4   6   2 77.3958 13.3648   4
  -2  -6   2 99.4816 16.2624   3
   2  -6  -2 44.9485 17.8014   1
  -2  -6   2 46.0298 20.9489   4
   2  -6  -2 74.2434 15.1449   4
  -2  -6   2 64.8632 15.7449   1
   2   6  -2 62.3015 5.45733   6
  -2   6   2 72.2471 14.2789   6
   2   6  -2 45.2888 14.0213   1
  -2   6   2 72.5489 13.3303   4
   2   6  -2 58.1535 15.0968   3
   2   6  -2 69.0025 5.48713   6
   2   6  -2 57.2176 17.1241   5
   0  -6   2 6.23056 18.9581   4
   0  -6   2 -11.854 9.07476   3
   0  -6  -2 -2.5731 14.7726   1
   0  -6  -2 -10.236 11.1786   4
   0  -6   2 -11.180 13.6949   1
   0   6   2 1.65449 13.7630   3
   0   6  -2 -2.8800 6.48759   6
   0   6   2 -1.8664 9.99544   6
   0   6   2 -9.2979 7.24315   2
   0   6  -2 1.34307 9.55271   3
   0   6  -2 2.55940 12.7386   1
   2  -6   2 4.60446 8.30374   3
  -2  -6  -2 6.06887 12.8250   4
  -2  -6  -2 1.31132 13.5438   1
   2  -6   2 4.48482 18.6173   4
   2  -6   2 -12.777 12.7875   1
   2   6   2 1.98965 10.3049   6
   2   6   2 13.2670 13.8383   3
  -2   6  -2 2.22364 8.43818   6
   2   6   2 -4.1063 5.14801   2
   4  -6   2 -7.6023 17.8846   4
  -4  -6  -2 7.42178 13.9060   1
   4  -6   2 0.94472 5.73290   3
  -4  -6  -2 -17.559 12.7501   4
  -4  -6  -2 -3.0126 11.1218   6
   4   6   2 19.6380 16.9619   3
  -4   6  -2 6.89141 10.5461   6
   4   6   2 -8.2685 10.0348   6
   6  -6   2 22.3234 21.4831   4
  -6  -6  -2 22.6629 15.5622   4
  -6  -6  -2 6.00758 15.3018   1
  -6  -6  -2 10.8948 12.7456   6
   6   6   2 13.1491 11.5122   6
   6   6   2 46.6218 18.5141   3
  -6   6  -2 28.9556 13.2975   6
  -8  -6  -2 62.4486 19.6208   1
  -8  -6  -2 69.0367 22.1309   4
  -8  -6  -2 110.792 17.7530   6
   8  -6   2 80.8799 24.4212   4
  -8   6  -2 60.2686 17.8632   6
   8   6   2 88.2651 22.6240   3
   8   6   2 103.594 20.0380   5
 -10  -6  -2 12.8231 15.8507   6
 -10  -6  -2 30.1558 17.8105   1
  10   6   2 35.0589 15.9840   5
  10   6   2 -16.323 17.3030   3
 -10   6  -2 18.2202 17.4060   6
 -12  -6  -2 16.1494 16.8820   6
 -12  -6  -2 58.8020 21.0467   1
 -12   6  -2 -16.263 16.6868   6
  12   6   2 11.3027 14.7960   5
  12   6   2 4.02502 20.4962   3
 -14  -6  -2 23.2128 18.1367   6
 -14  -6  -2 4.82499 18.6520   1
  14   6   2 2.68229 15.2363   5
  14   6   2 21.8789 23.8365   3
 -14   6  -2 1.60086 19.9647   6
 -16  -6  -2 13.7598 21.2453   1
 -16  -6  -2 -6.0702 18.6181   6
  16   6   2 22.4720 15.4191   5
 -16   6  -2 -22.983 19.7320   6
  16   6   2 17.9216 23.9221   3
 -18  -6  -2 23.1846 22.3100   6
 -18  -6  -2 -4.8733 21.7198   1
  18   6   2 0.88316 23.5635   3
 -18   6  -2 3.23956 19.9562   6
 -20  -6  -2 3.02830 23.6623   6
 -20  -6  -2 -19.481 22.8751   1
 -20  -6  -2 17.2118 25.5209   4
 -20   6  -2 0.38536 25.3917   6
  20   6   2 10.3825 24.4757   3
 -19  -7   2 -5.5505 22.1292   1
 -19  -7   2 8.34999 25.9653   4
  19   7  -2 32.9681 21.5566   5
 -19   7   2 18.4289 23.2705   6
  19   7  -2 52.3431 30.6728   3
 -17  -7   2 57.7409 25.0060   1
 -17  -7   2 44.0838 28.6983   4
 -17   7   2 34.0651 21.7622   6
  17   7  -2 48.1415 22.7144   5
  17   7  -2 38.4683 27.3382   3
 -15  -7   2 -1.9464 19.6730   1
 -15  -7   2 -15.653 22.6494   4
  15   7  -2 37.6091 20.1007   5
  15   7  -2 44.5123 24.6543   3
 -13  -7   2 8.97538 21.8926   4
 -13  -7   2 17.2107 11.2921   6
 -13  -7   2 44.4191 20.9626   1
  13   7  -2 17.2434 23.4502   3
  13   7  -2 10.0245 19.8312   5
  13   7  -2 11.0517 10.2452   2
 -11  -7   2 72.1085 12.7130   6
 -11  -7   2 48.4089 24.9247   4
 -11  -7   2 80.6509 21.5044   1
  11   7  -2 88.8317 23.6387   5
  11   7  -2 52.4759 25.1057   3
  11   7  -2 67.5904 12.4224   2
  -9  -7   2 100.497 11.3482   6
  -9  -7   2 99.8651 28.8698   4
  -9  -7   2 123.157 23.0530   1
   9   7  -2 110.744 13.6554   2
   9   7  -2 105.087 24.0188   5
  -9   7   2 104.106 7.92119   3
   9   7  -2 94.8580 24.5189   3
  -9   7   2 76.2093 18.1289   4
   7  -7  -2 147.280 19.6277   4
  -7  -7   2 108.183 26.7506   4
  -7  -7   2 101.536 20.9665   1
   7   7  -2 146.029 25.5650   5
   7   7  -2 125.681 23.6803   3
   7   7  -2 115.869 14.5265   2
  -7   7   2 139.955 18.9275   4
  -5  -7   2 223.458 25.3879   1
   5  -7  -2 211.164 23.0398   4
  -5  -7   2 150.976 26.9596   4
   5   7  -2 241.783 29.3542   5
  -5   7   2 222.534 21.0957   4
  -5   7   2 231.006 17.9692   3
   5   7  -2 209.441 24.7686   3
   5   7  -2 234.737 18.6204   2
  -3  -7   2 174.624 23.2166   1
   3  -7  -2 227.760 23.3186   4
  -3  -7   2 173.764 27.0182   4
   3  -7  -2 206.690 25.4716   1
   3   7  -2 261.716 27.3620   5
  -3   7   2 255.663 21.8628   4
   3   7  -2 282.511 26.0687   3
  -3   7   2 215.318 19.7713   3
  -1  -7   2 80.6331 22.6639   4
   1  -7  -2 84.9643 17.6068   4
   1  -7  -2 44.3181 17.2269   1
  -1  -7   2 56.2047 17.0420   1
  -1  -7   2 84.7522 15.3705   3
  -1   7   2 110.088 16.9795   4
   1   7  -2 106.708 9.03174   6
  -1   7   2 75.2642 15.6783   3
  -1   7   2 93.7225 15.9224   6
   1   7  -2 79.6431 15.2960   3
  -1  -7  -2 163.828 21.8224   4
  -1  -7  -2 164.098 23.6067   1
   1  -7   2 219.769 17.9373   3
   1  -7   2 160.912 21.6998   1
   1  -7   2 230.888 32.1307   4
  -1   7  -2 177.887 14.7576   6
   1   7   2 195.194 18.8652   6
   1   7   2 235.854 23.7458   3
   1   7   2 193.157 13.2978   2
  -3  -7  -2 203.138 25.2764   1
   3  -7   2 195.327 15.6451   3
   3  -7   2 213.635 29.8621   4
  -3  -7  -2 178.952 24.4083   4
  -3   7  -2 218.660 18.4347   6
   3   7   2 217.720 9.82696   2
   3   7   2 268.729 21.8957   6
   3   7   2 243.437 26.6259   3
  -5  -7  -2 135.800 18.6622   6
  -5  -7  -2 137.598 23.7815   4
   5  -7   2 117.471 29.5339   4
  -5  -7  -2 101.203 20.9616   1
   5   7   2 112.697 21.4398   3
  -5   7  -2 104.628 16.2326   6
   5   7   2 115.609 16.5082   6
  -7  -7  -2 27.6310 13.8414   6
   7  -7   2 11.1088 22.2444   4
  -7  -7  -2 12.2294 17.3519   1
  -7  -7  -2 12.5245 18.8753   4
   7   7   2 6.80209 18.7513   3
  -7   7  -2 -6.2778 13.0825   6
  -9  -7  -2 14.5650 18.5707   4
   9  -7   2 12.4213 22.6494   4
  -9  -7  -2 34.6307 18.4520   1
  -9  -7  -2 29.7589 15.5660   6
  -9   7  -2 8.90099 15.6538   6
   9   7   2 -4.5516 18.1679   3
   9   7   2 41.6466 18.7478   5
 -11  -7  -2 86.1480 20.2094   6
 -11  -7  -2 83.8083 24.9158   4
 -11  -7  -2 91.5771 24.3674   1
 -11   7  -2 127.321 23.5349   6
  11   7   2 145.270 23.7834   5
  11   7   2 117.561 27.7907   3
 -13  -7  -2 85.4347 25.6069   1
 -13  -7  -2 116.783 23.6606   6
 -13  -7  -2 124.449 32.3134   4
  13   7   2 70.3430 26.7969   3
 -13   7  -2 79.2947 23.4787   6
  13   7   2 106.169 21.7487   5
 -15  -7  -2 18.7176 19.7445   6
 -15  -7  -2 39.0518 24.7701   4
 -15  -7  -2 36.7586 24.6358   1
  15   7   2 28.0249 18.2652   5
  15   7   2 46.2826 25.3827   3
 -15   7  -2 41.9419 23.9275   6
 -17  -7  -2 5.14175 24.3385   1
 -17  -7  -2 35.4890 27.1624   4
 -17  -7  -2 1.61874 20.1545   6
 -17   7  -2 8.90243 21.7905   6
  17   7   2 -0.0232 16.2310   5
  17   7   2 -10.820 21.8844   3
 -19  -7  -2 -9.5663 26.7988   4
 -19  -7  -2 -7.5536 25.6264   1
 -19  -7  -2 -9.9814 22.1700   6
  19   7   2 12.1249 27.9376   3
 -19   7  -2 -35.596 22.6447   6
 -18  -8   2 50.1818 32.8052   4
 -18  -8   2 33.6970 26.3688   1
 -18   8   2 40.1282 25.1384   6
  18   8  -2 70.9425 25.1641   5
  18   8  -2 15.7121 28.0195   3
 -16  -8   2 58.3905 26.0284   1
 -16  -8   2 42.4524 27.4063   4
 -16   8   2 65.6239 23.7283   6
  16   8  -2 30.3764 23.9640   5
  16   8  -2 65.7832 30.5171   3
 -14  -8   2 46.6831 22.8698   1
 -14  -8   2 47.8554 28.9996   4
  14   8  -2 60.8235 23.2908   5
  14   8  -2 82.5551 26.8587   3
 -12  -8   2 28.9886 19.1171   1
 -12  -8   2 19.3174 25.8145   4
  12   8  -2 31.8765 20.0274   5
  12   8  -2 46.0262 11.1647   2
  12   8  -2 42.8094 24.2756   3
 -10  -8   2 67.9762 28.3734   4
 -10  -8   2 143.906 12.7389   6
 -10  -8   2 105.096 24.2138   1
  10   8  -2 132.347 27.1593   5
  10   8  -2 145.526 28.3693   3
  10   8  -2 122.747 14.3706   2
  -8  -8   2 144.082 24.7298   1
  -8  -8   2 144.285 31.9607   4
   8  -8  -2 197.189 22.6686   4
   8   8  -2 149.883 26.2981   3
   8   8  -2 191.569 17.1187   2
   8   8  -2 146.970 25.8115   5
  -8   8   2 218.972 24.1058   4
  -8   8   2 208.484 9.51376   3
  -8   8   2 181.882 8.78652   3
   6  -8  -2 311.639 30.7427   4
  -6  -8   2 277.825 37.1696   4
  -6  -8   2 261.258 29.4577   1
  -6   8   2 261.015 16.5753   3
   6   8  -2 282.068 31.0441   5
  -6   8   2 286.048 25.4927   4
   6   8  -2 283.666 19.6357   2
   6   8  -2 329.824 33.3927   3
   4  -8  -2 38.1287 18.5887   4
   4  -8  -2 43.6641 18.4695   1
  -4  -8   2 39.0665 20.9454   4
  -4  -8   2 51.2267 18.7629   1
  -4   8   2 73.1578 15.8255   4
  -4   8   2 63.7853 13.0453   3
   4   8  -2 70.9558 18.8365   3
   4   8  -2 20.4546 18.5106   5
  -2  -8   2 155.780 28.9006   4
  -2  -8   2 150.432 23.0325   1
   2  -8  -2 201.665 28.5392   1
   2  -8  -2 203.367 24.7758   4
   2   8  -2 192.967 10.7135   6
   2   8  -2 229.542 28.2865   5
  -2   8   2 226.575 21.0600   3
   2   8  -2 211.100 22.8827   3
  -2   8   2 218.624 23.2875   4
   0  -8  -2 176.502 26.2761   1
   0  -8   2 257.758 36.1784   4
   0  -8  -2 204.303 25.6739   4
   0  -8   2 264.345 22.8807   3
   0  -8   2 174.451 24.2749   1
   0   8   2 238.402 24.1283   3
   0   8  -2 219.110 14.5271   6
   0   8  -2 237.534 20.4840   3
  -2  -8  -2 340.807 32.9873   1
  -2  -8  -2 357.424 32.4237   4
   2  -8   2 276.416 27.9458   1
   2  -8   2 246.300 21.6481   3
   2  -8   2 292.346 36.6006   4
   2   8   2 317.272 15.2101   2
  -2   8  -2 335.084 19.9999   6
   2   8   2 316.042 27.9080   3
   4  -8   2 380.513 41.9461   4
  -4  -8  -2 329.736 33.2653   1
  -4  -8  -2 337.723 34.7310   4
  -4   8  -2 323.393 22.7411   6
   4   8   2 355.294 30.5028   3
  -6  -8  -2 57.4862 19.9600   1
  -6  -8  -2 65.3584 24.1087   4
   6  -8   2 73.7523 29.3763   4
  -6  -8  -2 74.1925 16.7676   6
  -6   8  -2 56.5526 15.3733   6
   6   8   2 65.6169 21.2526   3
  -8  -8  -2 174.779 29.2317   1
  -8  -8  -2 165.527 29.0852   4
   8  -8   2 153.716 31.0811   4
  -8  -8  -2 205.410 22.9096   6
   8   8   2 226.812 32.6367   3
   8   8   2 183.727 27.4891   5
  -8   8  -2 127.270 21.4643   6
 -10  -8  -2 69.5488 24.3908   4
 -10  -8  -2 99.0901 19.5124   6
  10  -8   2 66.7330 24.6769   4
 -10  -8  -2 92.2408 23.8510   1
 -10   8  -2 77.8411 20.2511   6
  10   8   2 100.387 22.8413   5
  10   8   2 92.8293 25.0525   3
 -12  -8  -2 126.913 26.0644   1
 -12  -8  -2 141.176 22.9099   6
 -12  -8  -2 97.7153 30.0098   4
 -12   8  -2 127.219 24.4040   6
  12   8   2 126.257 28.3993   3
  12   8   2 132.866 24.1179   5
 -14  -8  -2 61.3451 20.8625   6
 -14  -8  -2 49.5156 27.0477   4
 -14  -8  -2 25.7286 25.6264   1
 -14   8  -2 51.7396 24.1570   6
  14   8   2 50.1827 19.6970   5
  14   8   2 39.3165 24.9790   3
 -16  -8  -2 23.9834 20.6110   6
 -16  -8  -2 60.9023 30.6456   4
 -16  -8  -2 21.7695 23.0486   1
  16   8   2 11.2038 18.1659   5
  16   8   2 14.0713 23.4744   3
 -16   8  -2 -7.1474 21.6223   6
 -18  -8  -2 31.5169 25.6015   1
 -18  -8  -2 22.5170 26.5865   4
 -18   8  -2 12.3408 22.3746   6
  18   8   2 52.8731 28.2202   3
 -17  -9   2 44.1620 25.2168   1
 -17  -9   2 72.7630 32.8425   4
  17   9  -2 66.8270 25.2150   5
 -17   9   2 53.8898 24.7848   6
  17   9  -2 14.9023 25.9464   3
 -15  -9   2 105.783 34.9465   4
 -15  -9   2 126.832 29.9593   1
  15   9  -2 80.2761 29.5139   3
  15   9  -2 123.777 28.2682   5
 -15   9   2 81.9170 23.8536   6
 -13  -9   2 45.0785 24.0715   1
 -13  -9   2 79.2381 33.0982   4
  13   9  -2 128.395 32.3585   3
  13   9  -2 116.701 26.4735   5
 -11  -9   2 92.1650 32.6280   4
 -11  -9   2 133.635 27.0436   1
  11   9  -2 105.776 25.5440   5
  11   9  -2 74.5998 25.7483   3
  -9  -9   2 141.639 26.9258   1
  -9  -9   2 175.310 33.9236   4
   9   9  -2 192.105 16.6658   2
   9   9  -2 145.948 28.6653   5
   9   9  -2 214.766 32.1748   3
   7  -9  -2 182.800 24.0661   4
  -7  -9   2 199.980 28.6546   1
  -7  -9   2 194.642 34.2368   4
   7   9  -2 238.850 18.2664   2
   7   9  -2 189.270 28.2914   3
   7   9  -2 178.710 29.4409   5
  -5  -9   2 218.492 29.3222   1
  -5  -9   2 180.774 33.9494   4
   5  -9  -2 209.167 28.5061   4
  -5   9   2 204.999 17.3515   3
   5   9  -2 221.885 28.8503   3
   5   9  -2 245.914 33.3749   5
   5   9  -2 201.867 19.0575   2
   3  -9  -2 168.190 26.9438   4
   3  -9  -2 202.815 29.5964   1
  -3  -9   2 128.045 31.6596   4
  -3  -9   2 154.253 25.9595   1
  -3   9   2 170.110 18.7984   3
   3   9  -2 215.748 30.9896   5
   3   9  -2 141.610 22.2731   3
   3   9  -2 170.255 8.30474   6
  -1  -9   2 180.945 27.7840   1
  -1  -9   2 224.891 36.4909   4
   1  -9  -2 190.468 30.4122   1
   1  -9  -2 184.669 27.3018   4
   1   9  -2 220.958 13.1890   6
   1   9  -2 165.795 12.7481   6
   1   9  -2 227.081 23.1775   3
  -1   9   2 186.439 21.6105   3
  -1  -9  -2 222.552 30.6444   1
  -1  -9  -2 218.509 28.5674   4
   1  -9   2 200.997 36.6936   4
   1  -9   2 272.047 30.2136   1
   1   9   2 250.081 26.1741   3
   1   9   2 239.868 16.0576   2
  -1   9  -2 247.924 16.6387   6
  -1   9  -2 215.591 16.7420   6
   3  -9   2 494.871 51.2424   4
  -3  -9  -2 534.030 41.2536   4
  -3  -9  -2 487.300 39.2365   1
   3   9   2 505.034 35.4860   3
  -3   9  -2 546.396 26.4649   6
   3   9   2 497.471 18.2287   2
  -5  -9  -2 285.330 35.5287   1
   5  -9   2 211.063 37.6012   4
  -5  -9  -2 164.535 28.9563   4
   5   9   2 232.790 30.3644   3
  -5   9  -2 246.243 23.1743   6
  -7  -9  -2 342.758 40.2761   4
   7  -9   2 272.515 37.7331   4
  -7  -9  -2 269.650 34.6154   1
   7   9   2 310.048 36.3829   3
  -7   9  -2 263.478 26.0363   6
  -9  -9  -2 199.251 23.2556   6
   9  -9   2 200.730 35.0858   4
  -9  -9  -2 191.738 33.2203   4
  -9  -9  -2 181.381 30.6587   1
   9   9   2 141.766 27.9625   5
   9   9   2 157.020 29.4727   3
  -9   9  -2 165.499 24.6315   6
 -11  -9  -2 114.557 21.7407   6
 -11  -9  -2 47.9235 22.9606   1
 -11  -9  -2 83.8690 27.6393   4
 -11   9  -2 101.279 23.2604   6
  11   9   2 66.3639 25.6851   3
  11   9   2 105.438 25.1168   5
 -13  -9  -2 101.549 30.3715   1
 -13  -9  -2 111.519 33.9036   4
 -13  -9  -2 133.384 22.8567   6
 -13   9  -2 121.750 25.5028   6
  13   9   2 112.927 24.4385   5
  13   9   2 145.313 33.7954   3
 -15  -9  -2 37.3067 27.0759   1
 -15  -9  -2 33.0917 27.8554   4
  15   9   2 1.46508 22.8798   3
 -15   9  -2 32.3768 21.5569   6
  15   9   2 11.2942 19.5166   5
 -17  -9  -2 13.8956 26.2563   4
 -17  -9  -2 42.3242 28.4473   1
  17   9   2 52.5967 31.7617   3
 -17   9  -2 -5.6318 23.1624   6
 -16 -10   2 86.9837 30.0346   1
 -16 -10   2 81.1306 35.4366   4
 -16  10   2 72.5719 26.5098   6
  16  10  -2 109.822 30.4690   5
  16  10  -2 79.5279 31.8742   3
 -14 -10   2 107.029 37.3317   4
 -14 -10   2 131.049 31.2142   1
  14  10  -2 79.3318 30.4277   3
  14  10  -2 113.728 29.1316   5
 -12 -10   2 148.039 36.4186   4
 -12 -10   2 111.419 26.8406   1
  12  10  -2 153.781 30.5628   5
  12  10  -2 127.236 30.5456   3
 -10 -10   2 114.244 35.4342   4
 -10 -10   2 115.169 29.6955   1
  10  10  -2 154.084 30.5141   3
  10  10  -2 152.636 29.3361   5
  -8 -10   2 250.256 40.8993   4
   8 -10  -2 364.783 32.0294   4
  -8 -10   2 262.477 34.1788   1
   8  10  -2 331.322 21.8155   2
   8  10  -2 344.954 39.0047   3
   8  10  -2 300.150 36.9116   5
  -6 -10   2 169.092 34.6138   4
  -6 -10   2 208.925 31.3149   1
   6 -10  -2 194.167 27.5247   4
   6  10  -2 176.583 18.0192   2
   6  10  -2 236.803 31.2602   3
   6  10  -2 204.725 32.1628   5
  -4 -10   2 325.001 43.3749   4
  -4 -10   2 290.117 34.6319   1
   4 -10  -2 335.713 34.8125   4
   4 -10  -2 352.982 37.3423   1
   4  10  -2 336.356 24.7081   2
   4  10  -2 366.703 38.9406   5
  -4  10   2 377.942 23.1161   3
   4  10  -2 356.122 31.6099   3
   2 -10  -2 493.069 43.5825   1
   2 -10  -2 452.063 40.9882   4
  -2 -10   2 383.403 37.7122   1
  -2 -10   2 437.612 49.3632   4
   2  10  -2 425.881 42.7148   5
   2  10  -2 410.223 30.0768   3
   2  10  -2 470.277 22.1272   6
  -2  10   2 448.993 28.5087   3
   0 -10   2 324.935 42.0071   4
   0 -10  -2 454.062 41.9975   4
   0 -10  -2 359.872 38.4130   1
   0 -10   2 429.458 37.4894   1
   0  10  -2 413.241 19.4159   6
   0  10  -2 381.327 26.9460   3
   0  10   2 433.754 30.9013   3
  -2 -10  -2 394.311 40.0707   4
  -2 -10  -2 367.673 39.1022   1
   2 -10   2 372.334 45.5555   4
   2 -10   2 413.801 38.5712   1
   2  10   2 383.634 31.8566   3
  -2  10  -2 411.085 22.4508   6
  -4 -10  -2 214.868 32.4236   1
  -4 -10  -2 236.135 33.6484   4
   4 -10   2 204.852 37.7870   4
   4  10   2 219.207 29.8933   3
  -4  10  -2 279.456 22.1147   6
  -6 -10  -2 246.293 36.1543   4
   6 -10   2 327.514 43.8900   4
  -6 -10  -2 212.201 32.7397   1
  -6  10  -2 294.670 26.9851   6
   6  10   2 308.964 35.6247   3
  -8 -10  -2 145.255 33.4361   4
   8 -10   2 206.565 36.2986   4
  -8 -10  -2 207.303 34.3798   1
   8  10   2 172.234 31.0391   5
   8  10   2 225.844 33.3399   3
  -8  10  -2 192.963 25.3630   6
  10 -10   2 203.385 35.9218   4
 -10 -10  -2 209.653 34.4802   1
 -10 -10  -2 232.575 38.9492   4
 -10 -10  -2 260.439 26.6747   6
  10  10   2 188.704 30.1420   5
 -10  10  -2 193.228 27.5744   6
  10  10   2 200.849 34.8805   3
 -12 -10  -2 104.161 28.1467   1
 -12 -10  -2 149.522 34.9719   4
  12  10   2 128.715 29.6134   3
  12  10   2 131.138 28.0146   5
 -12  10  -2 127.266 26.6967   6
 -14 -10  -2 34.6500 27.7947   1
 -14 -10  -2 50.8461 29.5879   4
  14  10   2 48.7255 22.6628   5
  14  10   2 49.9905 26.5196   3
 -14  10  -2 54.9406 24.3921   6
 -13 -11   2 103.508 32.9085   1
 -13 -11   2 76.2271 36.8049   4
  13  11  -2 125.184 30.2337   5
  13  11  -2 87.4371 32.0444   3
 -11 -11   2 105.686 38.4862   4
 -11 -11   2 127.630 32.6634   1
  11  11  -2 163.032 31.1347   5
  11  11  -2 148.644 33.1419   3
  -9 -11   2 154.528 33.0156   1
  -9 -11   2 170.824 38.1393   4
   9  11  -2 166.918 32.3554   3
   9  11  -2 189.452 34.0479   5
  -7 -11   2 196.864 33.8405   1
  -7 -11   2 192.492 38.2958   4
   7 -11  -2 365.499 35.9053   4
   7  11  -2 228.787 34.6385   5
   7  11  -2 277.240 33.9905   3
  -5 -11   2 258.414 42.8669   4
   5 -11  -2 242.726 34.3263   4
  -5 -11   2 249.089 36.0101   1
   5  11  -2 246.243 30.6978   3
   5  11  -2 209.102 32.9744   5
   5  11  -2 291.822 21.8395   2
   3 -11  -2 330.944 38.1693   1
   3 -11  -2 223.858 34.1471   4
  -3 -11   2 231.303 40.3183   4
  -3 -11   2 333.856 37.9171   1
   3  11  -2 316.437 31.9220   3
   3  11  -2 364.673 42.8329   5
   1 -11  -2 337.309 39.3644   4
   1 -11  -2 308.256 37.0650   1
  -1 -11   2 224.064 31.6735   1
  -1 -11   2 267.402 42.4102   4
  -1  11   2 313.895 26.6845   3
   1  11  -2 262.506 38.0479   5
   1  11  -2 283.105 26.3176   3
   1 -11   2 349.261 46.4444   4
   1 -11   2 325.317 35.8095   1
  -1 -11  -2 318.193 39.1205   1
  -1 -11  -2 426.771 44.7705   4
   1  11   2 384.376 31.9149   3
  -3 -11  -2 70.1138 26.4668   4
   3 -11   2 58.6913 34.8797   4
  -3 -11  -2 94.1637 28.2374   1
  -3  11  -2 102.889 14.8401   6
   3  11   2 136.716 25.4582   3
  -5 -11  -2 152.727 31.5440   4
  -5 -11  -2 159.841 32.7720   1
   5 -11   2 173.348 40.3899   4
   5  11   2 163.377 27.8370   3
  -5  11  -2 183.620 20.9896   6
  -7 -11  -2 100.140 28.8631   1
   7 -11   2 159.805 36.0787   4
  -7 -11  -2 142.984 32.2945   4
   7  11   2 121.760 28.2068   3
  -7  11  -2 156.617 22.5787   6
   7  11   2 167.747 31.5088   5
  -9 -11  -2 167.474 34.8639   4
  -9 -11  -2 182.495 35.1100   1
   9 -11   2 198.172 36.3333   4
  -9  11  -2 186.458 26.6244   6
   9  11   2 199.331 34.9146   5
   9  11   2 203.551 33.4987   3
 -11 -11  -2 127.899 36.3150   4
 -11 -11  -2 199.847 37.0964   1
 -11  11  -2 148.992 27.9984   6
  11  11   2 167.284 33.6963   3
  11  11   2 160.554 31.0095   5
 -13 -11  -2 77.8083 31.3808   1
 -13 -11  -2 76.7086 33.3142   4
  13  11   2 92.6557 30.0772   3
  13  11   2 75.9971 26.7009   5
 -13  11  -2 71.5697 25.0120   6
 -12 -12   2 56.8619 37.8579   4
 -12 -12   2 49.0547 30.6126   1
  12  12  -2 81.3285 29.2341   5
  12  12  -2 77.1274 31.7100   3
 -10 -12   2 80.5172 31.0435   1
 -10 -12   2 120.771 39.3067   4
  10  12  -2 121.786 30.2055   5
  10  12  -2 129.206 31.0417   3
  -8 -12   2 81.4482 33.2282   1
  -8 -12   2 80.0691 35.0758   4
   8  12  -2 115.170 29.7147   5
   8  12  -2 129.675 28.8525   3
  -6 -12   2 129.056 32.2989   1
  -6 -12   2 178.453 42.5304   4
   6  12  -2 221.656 31.9690   3
   6  12  -2 211.115 35.9399   5
   4 -12  -2 40.6696 30.6779   4
   4 -12  -2 128.759 30.5570   1
  -4 -12   2 144.063 31.1163   1
  -4 -12   2 73.1338 35.9708   4
   4  12  -2 134.289 25.9926   3
   4  12  -2 122.987 31.5402   5
   2 -12  -2 97.6388 32.2629   4
  -2 -12   2 99.4463 36.4018   4
   2 -12  -2 153.388 31.0029   1
  -2 -12   2 153.104 31.5172   1
   2  12  -2 104.953 30.4266   5
   2  12  -2 131.802 22.8740   3
   0 -12  -2 241.850 37.8209   1
   0 -12   2 226.843 34.0368   1
   0 -12  -2 218.286 37.1738   4
   0 -12   2 159.175 39.2080   4
   0  12   2 239.229 26.9826   3
   0  12  -2 175.932 35.3981   5
   2 -12   2 31.8898 33.4885   4
  -2 -12  -2 126.695 32.1141   4
  -2 -12  -2 121.930 32.9331   1
   2  12   2 152.617 25.6871   3
  -4 -12  -2 127.946 31.2578   1
   4 -12   2 72.3839 36.1661   4
  -4 -12  -2 95.3988 30.6029   4
   4  12   2 139.321 26.5923   3
   6 -12   2 99.6902 36.7179   4
  -6 -12  -2 131.792 34.5302   1
  -6 -12  -2 137.221 36.0902   4
   6  12   2 81.9761 32.0517   5
   6  12   2 146.816 27.9632   3
   8 -12   2 171.758 36.8386   4
  -8 -12  -2 65.7320 29.7656   1
  -8 -12  -2 82.6036 31.3676   4
   8  12   2 88.7283 29.2304   5
   8  12   2 98.8764 25.4606   3
 -10 -12  -2 78.9672 32.2166   4
  10 -12   2 186.350 36.4453   4
 -10 -12  -2 76.1970 31.3263   1
  10  12   2 164.968 32.6638   5
 -10  12  -2 126.617 27.6591   6
  10  12   2 101.113 28.9729   3
  -9 -13   2 67.7398 36.8599   4
  -9 -13   2 43.7092 33.2082   1
   9  13  -2 89.9261 28.4162   3
   9  13  -2 83.6924 30.1091   5
  -7 -13   2 44.9340 37.5126   4
  -7 -13   2 52.1031 31.4603   1
   7  13  -2 87.5923 29.5577   5
   7  13  -2 121.560 28.3341   3
  -5 -13   2 108.208 31.8049   1
  -5 -13   2 20.9035 36.7377   4
   5  13  -2 88.1530 25.4105   3
   5  13  -2 106.818 30.2922   5
  -3 -13   2 25.1547 37.5611   4
  -3 -13   2 70.7620 29.0579   1
   3 -13  -2 96.9054 30.4491   1
   3  13  -2 92.5680 30.9084   5
  -1 -13   2 50.5270 38.6262   4
   1 -13  -2 109.443 31.8667   1
  -1 -13   2 142.564 34.1424   1
   1 -13  -2 18.0317 48.8700   4
   1  13  -2 99.0290 31.2602   5
  -1 -13  -2 60.7703 31.5884   4
   1 -13   2 -29.372 35.0174   4
   1 -13   2 48.7304 27.3669   1
  -1 -13  -2 102.405 31.9775   1
  -1  13  -2 34.6301 28.5763   5
   3 -13   2 -11.516 39.6233   4
  -3 -13  -2 57.2830 32.0496   4
  -3 -13  -2 149.869 36.3901   1
   3  13   2 120.355 24.7630   3
  -5 -13  -2 51.6919 31.6232   1
  -5 -13  -2 23.9249 29.3421   4
   5 -13   2 31.0003 39.4445   4
   5  13   2 64.0499 22.8043   3
  -7 -13  -2 29.0781 31.8186   1
  -7 -13  -2 81.4450 33.6894   4
   7 -13   2 82.6518 36.9749   4
   7  13   2 75.9662 31.6943   5
   7  13   2 109.089 28.2688   3
   2 -14  -2 96.1785 32.6170   1
  -2 -14   2 73.4313 31.3676   1
  -2 -14   2 -16.848 40.6227   4
   2  14  -2 29.9609 30.2653   5
   0 -14   2 99.9152 31.4349   1
   0 -14  -2 -10.752 28.5494   1
   0 -14   2 -92.697 37.5623   4
   0  14  -2 29.0165 31.0693   5
  -2 -14  -2 47.0384 29.8200   1
  -2  14  -2 8.88837 28.6404   5
 -22   0   3 3.28810 17.0734   4
 -22   0   3 -25.259 20.6162   6
 -22   0   3 7.62528 21.1086   1
 -20   0   3 -29.377 14.6554   7
 -20   0   3 7.47573 17.2812   1
 -20   0   3 6.32201 19.7138   6
 -18   0   3 -7.3553 13.7999   7
 -18   0   3 -15.891 16.1305   1
 -18   0   3 17.3555 19.8198   6
 -16   0   3 0.84947 12.7862   7
 -16   0   3 8.20315 16.9782   6
 -14   0   3 12.1230 11.8030   7
 -14   0   3 -13.814 12.7733   6
 -12   0   3 -1.5589 10.7615   7
  10   0  -3 3.12983 12.1227   2
 -10   0   3 -2.1945 9.70213   7
  -8   0   3 9.63795 11.4168   4
  -8   0   3 -12.799 8.72634   5
  -8   0   3 -1.7206 10.3815   3
  -8   0   3 -14.977 9.44068   2
  -8   0   3 -22.351 10.2439   7
   8   0  -3 4.98796 11.5015   2
  -6   0   3 -4.9673 9.81171   4
  -6   0   3 6.81021 10.6866   5
  -6   0   3 -1.9311 10.9628   3
  -6   0   3 -24.057 10.3287   7
   6   0  -3 -11.460 11.5924   5
   6   0  -3 2.13551 11.0317   2
  -6   0   3 -3.0053 9.79004   2
  -4   0   3 -3.2397 9.15882   4
   4   0  -3 -0.1887 8.58273   4
  -4   0   3 -4.7377 9.35450   2
   4   0  -3 -5.0305 11.1345   2
  -4   0   3 3.23968 10.0928   5
   4   0  -3 0.13029 11.5649   5
   2   0  -3 5.37459 8.60073   4
   2   0  -3 -4.9345 10.0033   5
  -2   0   3 13.0203 9.77258   2
   2   0  -3 7.01131 9.60926   2
  -2   0   3 9.63215 9.68310   5
  -2   0   3 0.48101 9.13135   6
  -2   0   3 -11.637 9.39992   4
  -2   0   3 -2.3020 4.05508   1
   0   0  -3 23.6625 12.3230   4
   0   0  -3 -0.2654 4.53834   1
   0   0  -3 10.5476 9.19569   2
   0   0   3 -12.312 11.8119   4
   0   0  -3 2.76603 9.58228   6
   0   0   3 4.26348 8.83155   7
   0   0   3 -4.4799 8.84034   6
   0   0   3 -4.5827 7.58554   5
  -2   0  -3 -8.0823 13.2470   4
   2   0   3 -1.0278 9.86538   6
  -2   0  -3 2.88498 7.30130   1
   2   0   3 -6.4419 6.79440   7
   2   0   3 -2.3770 5.33372   5
  -2   0  -3 25.9682 10.8709   6
  -4   0  -3 -6.6229 12.9430   4
   4   0   3 -3.0615 10.8316   6
  -4   0  -3 0.73846 10.5994   6
   4   0   3 1.34995 4.92846   7
  -6   0  -3 7.37043 13.1571   6
   6   0   3 -0.0244 11.5083   6
  -8   0  -3 9.72039 13.2047   6
   8   0   3 7.97917 16.6576   3
  10   0   3 -6.3481 14.1953   3
 -10   0  -3 18.9722 15.5562   6
  12   0   3 10.8461 15.3272   3
 -12   0  -3 -15.800 14.1177   6
 -14   0  -3 -35.707 17.6501   6
  14   0   3 7.90187 16.2627   3
 -14   0  -3 -1.5368 15.3836   1
  16   0   3 0.86783 16.2957   3
 -16   0  -3 -12.071 18.4251   6
 -16   0  -3 18.4011 17.7265   1
 -18   0  -3 21.7707 20.7544   1
 -18   0  -3 -19.086 20.9779   6
  18   0   3 7.74788 17.8354   3
 -20   0  -3 -21.575 22.9007   6
  20   0   3 17.2542 20.4345   3
 -20   0  -3 -9.2224 19.7591   1
 -21  -1   3 12.9283 20.7903   1
 -21  -1   3 30.1444 21.5047   4
 -21  -1   3 20.1268 21.5686   6
 -21   1   3 35.8172 22.4559   1
 -21   1   3 22.1160 23.7636   6
 -19  -1   3 17.9107 19.4044   4
 -19  -1   3 -1.3201 17.8522   6
 -19  -1   3 11.0367 18.0929   1
 -19  -1   3 40.2389 17.5292   7
 -19   1   3 -30.483 12.6127   7
 -19   1   3 17.2998 18.6438   6
 -17  -1   3 70.8705 17.7920   7
 -17  -1   3 38.1551 18.1660   6
 -17  -1   3 74.9887 20.2298   1
  17   1  -3 74.9226 23.0740   3
 -17   1   3 48.5887 19.2159   6
 -17   1   3 34.0668 16.0801   7
 -15  -1   3 -0.8860 11.7770   7
 -15  -1   3 -2.4885 13.9804   1
 -15  -1   3 1.45181 14.6552   6
  15   1  -3 -10.324 14.9546   3
 -15   1   3 -21.242 10.1179   7
 -15   1   3 5.35447 17.4286   6
 -13  -1   3 75.5849 17.1956   6
 -13  -1   3 49.7073 13.6268   1
 -13  -1   3 73.6623 15.7275   7
 -13   1   3 74.1198 15.6328   7
  13   1  -3 58.4943 18.2469   5
  13   1  -3 84.6682 20.0544   3
 -11  -1   3 25.1689 14.6401   4
 -11  -1   3 38.0743 13.5778   6
 -11  -1   3 25.2371 11.7192   1
 -11   1   3 35.7847 12.4280   7
  11   1  -3 41.8951 14.9676   5
  11   1  -3 24.3124 14.8244   3
  11   1  -3 30.4999 14.2219   2
  -9  -1   3 83.6442 12.7106   1
  -9  -1   3 82.6006 17.0417   4
  -9  -1   3 122.399 15.8862   2
  -9   1   3 69.8215 14.7465   3
   9   1  -3 63.4350 16.2837   3
   9   1  -3 91.9623 16.6602   5
   9   1  -3 89.8368 16.2951   2
  -9   1   3 82.3348 14.0699   7
  -7  -1   3 562.510 30.6808   4
  -7  -1   3 585.845 28.2225   5
  -7  -1   3 580.115 23.4186   1
  -7  -1   3 564.277 25.2597   2
  -7  -1   3 563.653 28.2327   3
   7  -1  -3 597.230 29.0758   2
  -7   1   3 503.565 25.9439   2
  -7   1   3 502.513 27.8425   7
  -7   1   3 615.714 27.7926   3
  -7   1   3 533.261 25.6687   5
   7   1  -3 540.354 28.0244   5
   7   1  -3 541.059 27.5789   2
  -5  -1   3 606.936 27.5602   3
   5  -1  -3 621.265 27.1759   2
  -5  -1   3 620.533 22.3109   1
  -5  -1   3 626.536 30.4098   4
  -5  -1   3 650.673 27.4940   2
  -5  -1   3 684.071 28.2463   5
  -5   1   3 677.342 30.0981   7
   5   1  -3 604.455 27.6737   5
   5   1  -3 646.091 30.0627   4
  -5   1   3 655.072 27.4964   5
   5   1  -3 646.791 27.6989   2
  -5   1   3 617.003 23.8599   4
  -5   1   3 659.021 27.5697   2
  -3  -1   3 584.443 25.0381   5
  -3  -1   3 604.739 25.4564   2
   3  -1  -3 597.353 19.5439   4
   3  -1  -3 566.731 23.9364   2
  -3  -1   3 578.740 17.4395   1
   3  -1  -3 566.290 25.2614   7
  -3  -1   3 585.264 21.1740   6
  -3   1   3 588.526 20.1726   4
   3   1  -3 617.788 26.1483   5
   3   1  -3 588.364 24.3211   2
  -3   1   3 570.079 20.8419   1
   3   1  -3 568.577 27.3227   4
  -3   1   3 598.021 27.5834   7
  -3   1   3 595.496 24.9110   2
   1  -1  -3 79.8887 11.0925   7
   1  -1  -3 63.5019 11.0912   2
  -1  -1   3 79.6335 14.1376   4
  -1  -1   3 78.8655 11.6154   5
   1  -1  -3 89.1513 8.81623   1
   1  -1  -3 95.8955 13.4562   6
   1  -1  -3 78.6309 10.5014   4
  -1  -1   3 83.6780 10.1717   6
   1   1  -3 59.0799 10.3079   5
  -1   1   3 72.2684 10.9597   2
   1   1  -3 70.3773 5.00206   1
   1   1  -3 73.7761 14.6891   4
  -1   1   3 101.094 13.4745   6
   1   1  -3 79.1618 10.1806   6
  -1   1   3 60.0870 9.40695   4
  -1   1   3 72.4914 7.86342   1
  -1   1   3 56.0764 11.6824   7
   1   1  -3 74.7108 11.9888   2
  -1  -1  -3 163.712 15.4889   6
  -1  -1  -3 146.463 13.0655   1
   1  -1   3 142.169 12.5408   6
   1  -1   3 108.755 17.2406   4
  -1  -1  -3 153.898 13.3185   2
   1  -1   3 133.648 12.0848   5
  -1  -1  -3 174.669 16.2024   4
  -1  -1  -3 168.074 14.3891   7
   1   1   3 143.581 12.5863   7
  -1   1  -3 143.705 11.2436   5
   1   1   3 159.506 15.1365   6
   1   1   3 143.531 10.8861   1
  -1   1  -3 152.441 18.0779   4
  -1   1  -3 160.768 13.9920   6
   3  -1   3 167.962 20.7152   4
  -3  -1  -3 154.624 15.6971   6
   3  -1   3 166.028 15.0829   6
  -3  -1  -3 175.418 14.7425   1
  -3  -1  -3 169.455 12.0005   7
  -3   1  -3 160.496 9.02964   5
  -3   1  -3 190.894 17.4135   6
   3   1   3 211.147 17.8703   6
  -3   1  -3 181.865 20.6982   4
  -5  -1  -3 27.3187 10.8461   1
  -5  -1  -3 23.7079 14.2035   6
  -5  -1  -3 32.2411 6.20135   7
   5  -1   3 22.8689 11.8752   6
  -5   1  -3 35.9296 16.8223   4
   5   1   3 32.9406 12.8033   6
  -5   1  -3 32.8675 12.7852   6
  -7  -1  -3 6.78119 13.8180   6
  -7  -1  -3 4.05850 12.7046   1
  -7  -1  -3 -3.5859 3.42856   7
   7  -1   3 -7.9379 10.2243   6
   7   1   3 -4.5264 4.60570   5
  -7   1  -3 7.58824 12.8119   6
  -7   1  -3 17.1720 16.4109   4
   7   1   3 0.64933 11.5177   6
  -9  -1  -3 96.4980 17.9423   6
   9  -1   3 109.696 18.0146   3
  -9  -1  -3 85.1023 16.5113   1
   9   1   3 99.9290 21.1077   3
  -9   1  -3 105.825 19.7899   6
   9   1   3 93.5201 8.05634   5
 -11  -1  -3 84.8298 19.2671   1
  11  -1   3 134.673 20.1561   3
 -11  -1  -3 49.8443 18.4149   6
 -11   1  -3 97.4714 19.8484   6
  11   1   3 84.9342 19.9628   3
 -11   1  -3 93.0030 8.01390   5
 -13  -1  -3 24.7592 16.3879   1
  13  -1   3 51.3474 17.4751   3
 -13  -1  -3 44.5599 20.2594   6
  13   1   3 40.5077 20.5882   3
 -13   1  -3 38.9538 17.8902   6
 -13   1  -3 36.4404 7.51678   5
  15  -1   3 103.353 21.9928   3
 -15  -1  -3 59.9782 23.0841   6
 -15  -1  -3 104.492 23.4350   1
  15   1   3 87.3918 22.6802   3
 -15   1  -3 111.255 24.5560   6
 -17  -1  -3 9.68381 18.1476   1
 -17  -1  -3 -0.2829 20.5210   6
  17  -1   3 27.5480 17.8212   3
 -17   1  -3 29.4883 22.4511   6
  17   1   3 9.52060 20.0973   3
 -19  -1  -3 9.15176 21.4903   6
 -19  -1  -3 -13.926 19.3324   1
  19  -1   3 13.0739 19.1734   3
 -19   1  -3 10.9335 19.8503   1
 -19   1  -3 -21.823 22.3544   6
  19   1   3 34.9737 21.3292   3
 -21  -1  -3 -4.4067 24.6797   6
 -21  -1  -3 -16.337 22.1710   1
  21   1   3 2.48086 21.0053   3
 -21   1  -3 3.89252 23.2730   6
 -21   1  -3 70.9137 24.6238   1
 -22  -2   3 37.6942 23.2218   4
 -22  -2   3 67.6125 24.3948   1
 -22  -2   3 49.1907 23.0275   6
 -22   2   3 52.9878 25.9873   6
 -20  -2   3 28.5986 19.4811   1
 -20  -2   3 44.6318 20.4858   6
 -20  -2   3 39.4654 18.4730   7
 -20  -2   3 46.5743 23.7625   4
 -20   2   3 79.7981 26.0510   6
  20   2  -3 7.08811 23.2771   3
 -20   2   3 32.5268 23.3555   7
 -18  -2   3 164.454 23.7031   7
 -18  -2   3 149.186 24.7831   6
 -18  -2   3 134.709 27.4635   4
 -18  -2   3 139.883 25.3553   1
 -18   2   3 122.917 22.3265   7
  18   2  -3 117.835 28.4493   3
 -18   2   3 168.527 28.7344   6
 -16  -2   3 24.9577 19.3561   4
 -16  -2   3 105.865 18.5417   7
 -16  -2   3 83.1396 19.0747   6
 -16  -2   3 59.5035 18.9199   1
 -16   2   3 72.0386 17.6932   7
  16   2  -3 44.2915 18.8622   5
 -16   2   3 61.5261 20.2946   6
  16   2  -3 64.0776 23.2419   3
 -14  -2   3 83.8516 16.8864   6
 -14  -2   3 68.8062 16.6799   1
 -14  -2   3 56.5258 20.4861   4
  14   2  -3 51.9440 21.3516   3
  14   2  -3 74.3000 20.1497   5
 -14   2   3 57.0918 15.8648   7
 -12  -2   3 260.691 22.7343   1
 -12  -2   3 211.926 26.3940   4
 -12  -2   3 250.604 21.0870   6
 -12   2   3 287.376 24.7852   7
  12   2  -3 268.184 24.9676   2
  12   2  -3 283.962 30.1205   3
  12   2  -3 330.809 29.1557   5
 -10  -2   3 270.813 19.3938   6
 -10  -2   3 291.714 26.6072   4
 -10  -2   3 308.626 21.2164   1
 -10   2   3 331.109 22.9451   3
  10   2  -3 330.170 27.8394   3
  10   2  -3 319.458 23.6740   2
 -10   2   3 340.421 24.7020   7
  10   2  -3 384.104 27.1352   5
  -8  -2   3 950.229 33.8474   1
  -8  -2   3 910.644 37.4736   5
  -8  -2   3 947.889 34.6947   2
  -8  -2   3 944.707 43.2649   4
   8  -2  -3 997.990 38.7177   7
   8   2  -3 975.656 36.9872   2
   8   2  -3 926.384 39.7497   5
  -8   2   3 1000.47 38.6748   7
   8   2  -3 997.681 42.5966   3
  -8   2   3 978.916 35.7906   3
  -8   2   3 985.311 37.2804   5
  -6  -2   3 744.675 31.1351   5
  -6  -2   3 702.013 26.4073   2
   6  -2  -3 667.111 29.3003   2
  -6  -2   3 584.122 24.0256   1
  -6  -2   3 655.823 33.6305   4
  -6  -2   3 639.566 30.4147   3
   6  -2  -3 598.979 29.6448   7
  -6   2   3 578.426 30.8397   7
   6   2  -3 665.493 30.5781   5
  -6   2   3 673.744 29.7534   2
   6   2  -3 648.014 31.7538   3
   6   2  -3 639.946 27.1365   2
  -4  -2   3 861.600 27.3103   1
  -4  -2   3 824.027 36.2817   4
   4  -2  -3 884.689 31.8004   2
   4  -2  -3 881.581 34.2514   7
  -4  -2   3 902.903 34.2277   3
  -4  -2   3 893.179 33.2535   5
  -4  -2   3 891.955 31.7931   2
   4   2  -3 869.626 26.9959   1
  -4   2   3 843.160 34.8627   7
   4   2  -3 947.215 38.2841   4
  -4   2   3 896.178 31.1601   1
   4   2  -3 872.319 34.3334   5
  -4   2   3 905.455 22.3611   4
   4   2  -3 886.262 32.2245   2
  -4   2   3 894.150 32.2093   2
  -2  -2   3 1490.36 38.5819   6
  -2  -2   3 1530.40 45.1137   5
   2  -2  -3 1415.49 42.9237   2
   2  -2  -3 1548.93 36.0842   4
   2  -2  -3 1484.63 46.5704   7
  -2  -2   3 1504.81 38.7537   1
  -2  -2   3 1535.38 52.1315   4
   2  -2  -3 1525.07 43.3376   1
   2   2  -3 1523.08 38.8255   1
   2   2  -3 1460.60 45.6607   5
   2   2  -3 1474.04 45.1222   2
  -2   2   3 1571.37 43.4988   2
  -2   2   3 1522.04 45.7791   6
  -2   2   3 1537.14 42.5629   1
  -2   2   3 1457.98 47.4488   7
   2   2  -3 1516.43 50.1561   4
   0  -2   3 692.060 34.8345   4
   0  -2  -3 782.370 29.1898   7
   0  -2  -3 722.530 24.3807   2
   0  -2   3 750.365 27.0148   5
   0  -2   3 763.157 23.5306   6
   0  -2  -3 734.878 26.9247   1
   0  -2  -3 760.998 30.1277   6
   0   2  -3 742.374 27.0158   5
   0   2   3 718.883 24.1247   2
   0   2   3 788.224 26.4506   1
   0   2   3 749.688 28.2447   6
   0   2   3 753.308 30.2318   7
   0   2  -3 746.468 34.2480   4
   0   2  -3 770.578 23.6223   1
   0   2  -3 755.845 24.1469   6
  -2  -2  -3 94.8643 11.6782   7
   2  -2   3 130.926 12.4306   6
  -2  -2  -3 96.1279 13.0173   1
   2  -2   3 96.6270 19.1960   4
  -2  -2  -3 92.3777 13.9064   6
  -2  -2  -3 108.071 9.50619   2
   2   2   3 130.860 14.8562   6
  -2   2  -3 97.4574 10.3551   5
  -2   2  -3 101.065 12.9432   6
  -2   2  -3 100.175 19.6540   4
   2   2   3 110.388 12.9375   1
  -4  -2  -3 423.680 24.3569   1
   4  -2   3 388.965 31.1768   4
   4  -2   3 472.472 22.6709   6
  -4  -2  -3 445.311 24.3991   6
  -4  -2  -3 446.694 19.9142   7
  -4   2  -3 444.365 16.7861   5
   4   2   3 449.959 22.4006   1
  -4   2  -3 468.172 32.5734   4
   4   2   3 458.222 23.7015   6
  -4   2  -3 460.458 24.2282   6
  -6  -2  -3 536.312 27.4322   1
   6  -2   3 557.349 26.8919   6
  -6  -2  -3 521.463 29.0997   6
  -6  -2  -3 554.366 21.5233   7
   6   2   3 525.532 20.6281   5
  -6   2  -3 521.300 36.0004   4
  -6   2  -3 558.375 28.9649   6
   6   2   3 542.039 28.0509   6
   8  -2   3 318.957 23.5830   3
   8  -2   3 334.574 12.1929   7
  -8  -2  -3 308.032 23.7289   1
  -8  -2  -3 350.893 26.5094   6
   8   2   3 286.136 27.9499   3
  -8   2  -3 335.804 24.7771   6
   8   2   3 333.514 16.3104   5
 -10  -2  -3 209.041 23.2770   6
  10  -2   3 248.691 22.2135   3
 -10  -2  -3 205.945 23.5492   1
 -10   2  -3 227.049 11.2596   5
  10   2   3 219.035 26.6530   3
  10   2   3 211.535 14.0079   5
 -10   2  -3 191.970 22.7368   6
 -12  -2  -3 62.5652 19.0342   6
  12  -2   3 87.8202 17.2643   3
 -12  -2  -3 64.0360 18.4320   1
 -12   2  -3 61.1385 19.5675   6
  12   2   3 68.6206 10.1635   5
 -12   2  -3 88.5386 9.01714   5
  12   2   3 61.0210 20.4984   3
  14  -2   3 255.584 25.2476   3
 -14  -2  -3 238.507 28.2400   1
 -14  -2  -3 240.566 30.6087   6
 -14   2  -3 209.664 28.0412   6
  14   2   3 226.572 30.3302   3
  16  -2   3 135.606 21.1570   3
 -16  -2  -3 121.692 26.1134   6
 -16  -2  -3 86.2993 24.1094   1
  16   2   3 79.3603 24.4400   3
 -16   2  -3 103.280 26.0990   6
  18  -2   3 67.9494 18.8596   3
 -18  -2  -3 27.3165 23.4193   6
 -18  -2  -3 57.3649 25.1292   1
  18   2   3 50.9068 24.3430   3
 -18   2  -3 52.8455 23.9114   6
 -20  -2  -3 54.8711 25.2853   1
 -20  -2  -3 15.8147 25.3653   6
 -20   2  -3 67.0651 28.7457   6
  20   2   3 46.6106 24.7461   3
 -21  -3   3 73.5978 23.2701   6
 -21  -3   3 90.9200 30.8490   4
 -21  -3   3 91.0206 25.9136   1
  21   3  -3 75.7354 28.1280   3
 -21   3   3 68.9935 25.9192   6
 -19  -3   3 199.842 36.8088   4
 -19  -3   3 167.991 24.7211   6
 -19  -3   3 267.303 28.8392   7
 -19  -3   3 161.756 28.7057   1
  19   3  -3 153.836 32.4314   3
 -19   3   3 155.326 28.1570   6
 -17  -3   3 154.734 22.5105   6
 -17  -3   3 89.5755 27.2184   4
 -17  -3   3 130.428 23.9885   1
 -17   3   3 128.028 23.1810   7
  17   3  -3 138.859 25.0737   5
 -17   3   3 78.2529 22.9962   6
  17   3  -3 80.3452 27.6429   3
 -15  -3   3 142.757 27.9435   4
 -15  -3   3 185.865 24.3386   1
 -15  -3   3 176.880 22.0536   6
  15   3  -3 191.818 30.6376   3
  15   3  -3 128.784 23.8334   5
 -15   3   3 186.888 23.6034   7
 -13  -3   3 205.820 22.6404   1
 -13  -3   3 255.139 21.8212   6
 -13  -3   3 238.735 32.7971   4
 -13   3   3 267.540 26.9878   7
  13   3  -3 251.293 24.9310   2
  13   3  -3 204.819 25.0018   5
  13   3  -3 255.907 31.3894   3
 -11  -3   3 721.060 33.6078   1
 -11  -3   3 670.225 29.3312   6
 -11  -3   3 617.225 41.2518   4
  11   3  -3 740.327 36.9635   5
 -11   3   3 776.157 37.1569   7
  11   3  -3 690.730 33.0050   2
  11   3  -3 732.139 42.0872   3
 -11   3   3 728.417 31.5763   3
  -9  -3   3 1041.09 38.7669   1
  -9  -3   3 1071.37 35.0613   6
  -9  -3   3 1101.89 51.2615   4
  -9  -3   3 1081.76 37.9264   2
   9   3  -3 1017.89 42.9115   5
   9   3  -3 1009.35 45.6000   3
  -9   3   3 1110.88 38.1886   4
  -9   3   3 1099.87 38.3348   3
   9   3  -3 1119.20 39.9703   2
  -9   3   3 999.400 42.7066   7
  -7  -3   3 662.132 28.0308   1
  -7  -3   3 729.332 28.5828   2
  -7  -3   3 727.869 24.7720   6
  -7  -3   3 677.970 39.6012   4
   7  -3  -3 699.143 31.9916   7
  -7   3   3 731.993 32.6262   1
  -7   3   3 765.168 35.5063   2
   7   3  -3 679.283 33.0466   5
   7   3  -3 743.452 36.0143   3
   7   3  -3 764.247 30.8014   2
  -7   3   3 752.635 35.6133   7
  -7   3   3 699.861 25.6080   4
  -5  -3   3 844.785 30.0318   1
  -5  -3   3 893.647 41.5853   4
  -5  -3   3 924.547 36.4975   5
   5  -3  -3 888.205 35.5494   7
  -5  -3   3 921.125 36.5760   3
   5   3  -3 883.078 36.8901   5
   5   3  -3 846.577 31.8401   2
  -5   3   3 870.568 36.9112   7
   5   3  -3 849.075 30.2305   1
  -5   3   3 925.784 34.8591   1
  -5   3   3 897.025 34.2568   2
   5   3  -3 903.446 40.3810   4
   5   3  -3 841.335 36.8467   3
  -5   3   3 913.408 23.7354   4
   3  -3  -3 594.224 27.3932   1
  -3  -3   3 567.237 16.1275   6
  -3  -3   3 598.342 28.5593   3
  -3  -3   3 565.113 32.8415   4
  -3  -3   3 584.743 28.4069   5
   3  -3  -3 612.119 25.4864   2
  -3  -3   3 587.475 22.2728   1
   3  -3  -3 562.165 27.7592   7
   3   3  -3 531.817 31.3120   4
  -3   3   3 567.561 26.0122   1
   3   3  -3 542.271 27.1206   5
   3   3  -3 587.765 21.9718   1
  -3   3   3 576.035 30.6055   7
   3   3  -3 572.980 25.1235   2
  -3   3   3 609.342 25.2070   2
   1  -3  -3 1474.33 45.2192   1
  -1  -3   3 1469.93 41.6100   1
   1  -3  -3 1432.20 46.7305   7
   1  -3  -3 1478.67 41.4812   2
  -1  -3   3 1439.51 36.6365   6
   1  -3  -3 1498.64 39.5552   4
  -1  -3   3 1473.81 44.8954   3
  -1  -3   3 1514.31 46.0115   5
  -1  -3   3 1436.82 53.1889   4
  -1   3   3 1476.71 41.2740   2
   1   3  -3 1439.13 36.7615   6
  -1   3   3 1515.24 46.0717   6
   1   3  -3 1511.77 53.2181   4
  -1   3   3 1388.30 43.5356   1
   1   3  -3 1363.59 44.6845   5
   1   3  -3 1469.89 40.9748   1
  -1  -3  -3 1000.08 36.7234   6
  -1  -3  -3 1042.17 28.9818   2
  -1  -3  -3 1028.51 36.8110   7
   1  -3   3 1024.13 29.9825   6
   1  -3   3 997.847 44.3657   4
  -1  -3  -3 998.330 35.9570   1
   1   3   3 1000.68 35.4040   6
   1   3   3 972.656 28.6131   2
  -1   3  -3 1042.77 43.1701   4
  -1   3  -3 982.694 30.2740   6
  -1   3  -3 1038.17 33.2822   1
  -1   3  -3 987.337 33.8048   5
   3  -3   3 1811.85 51.9047   6
  -3  -3  -3 1947.01 46.2693   2
  -3  -3  -3 1840.63 55.5275   6
  -3  -3  -3 1992.50 57.3397   1
   3  -3   3 1751.13 64.6008   4
   3   3   3 1860.29 54.9536   6
  -3   3  -3 1903.48 52.1908   5
  -3   3  -3 1906.18 53.0727   6
   3   3   3 1872.37 55.0803   1
  -3   3  -3 1931.89 65.9998   4
   5  -3   3 2041.55 56.8691   6
  -5  -3  -3 1933.33 59.2070   6
   5  -3   3 1806.62 67.7231   4
  -5  -3  -3 1871.30 59.3843   1
   5   3   3 1884.78 57.5203   6
  -5   3  -3 1926.62 57.6408   6
  -5   3  -3 1999.86 69.9885   4
   5   3   3 1956.67 58.3207   1
  -7  -3  -3 859.561 36.6865   6
  -7  -3  -3 892.934 39.3744   1
   7   3   3 825.243 43.5421   3
   7   3   3 883.750 31.3200   5
  -7   3  -3 897.664 37.6862   6
  -9  -3  -3 437.175 29.8366   1
  -9  -3  -3 469.597 28.9758   6
   9  -3   3 457.315 24.2582   3
   9  -3   3 471.120 18.8260   7
  -9   3  -3 427.329 28.8600   6
   9   3   3 463.861 35.4624   3
   9   3   3 467.833 21.8522   5
  11  -3   3 185.026 10.5852   7
  11  -3   3 170.877 18.5561   3
 -11  -3  -3 186.022 16.0201   2
 -11  -3  -3 183.259 25.1088   6
 -11  -3  -3 218.268 26.3325   1
  11   3   3 185.670 15.9741   5
  11   3   3 177.851 27.7991   3
 -11   3  -3 155.655 12.6410   5
 -11   3  -3 196.882 26.0531   6
 -13  -3  -3 221.591 28.9407   1
 -13  -3  -3 227.629 27.2849   6
 -13  -3  -3 229.890 18.7348   2
  13  -3   3 330.426 23.0023   3
  13   3   3 279.945 18.4035   5
  13   3   3 315.758 35.7336   3
 -13   3  -3 300.940 32.9684   6
 -13   3  -3 273.167 15.7229   5
  15  -3   3 226.867 22.0374   3
 -15  -3  -3 183.486 27.4841   1
 -15  -3  -3 176.009 28.1882   6
  15   3   3 233.303 17.7021   5
  15   3   3 211.781 33.7182   3
 -15   3  -3 214.649 30.5413   6
 -17  -3  -3 152.455 28.8289   1
  17  -3   3 162.363 20.8754   3
 -17  -3  -3 183.029 29.1954   6
  17   3   3 120.228 28.7720   3
 -17   3  -3 203.913 31.6499   6
 -19  -3  -3 19.7203 23.1758   6
 -19  -3  -3 95.3818 28.1498   1
  19   3   3 54.5697 23.6905   3
 -19   3  -3 63.7946 27.3799   6
 -21  -3  -3 -4.6298 22.6615   6
 -21  -3  -3 25.3580 26.0007   1
 -21   3  -3 9.29221 25.0914   6
  21   3   3 69.8075 27.1854   3
 -20  -4   3 143.475 29.8793   1
 -20  -4   3 209.453 27.7402   6
 -20  -4   3 207.075 27.1399   7
 -20  -4   3 147.092 34.5947   4
  20   4  -3 303.682 36.1014   5
 -20   4   3 191.959 33.6590   6
  20   4  -3 224.796 37.0701   3
 -18  -4   3 198.152 24.9710   6
 -18  -4   3 220.681 30.9553   1
 -18  -4   3 218.758 39.7779   4
  18   4  -3 190.116 35.8521   3
  18   4  -3 211.806 30.9596   5
 -18   4   3 180.864 30.7208   6
 -16  -4   3 210.650 27.3076   1
 -16  -4   3 264.700 25.3215   6
 -16  -4   3 223.069 35.2527   4
  16   4  -3 255.537 35.7343   3
  16   4  -3 277.710 33.0846   5
 -14  -4   3 328.181 23.9352   6
 -14  -4   3 309.120 37.5053   4
 -14  -4   3 332.285 30.0501   1
 -14   4   3 321.749 25.6224   3
  14   4  -3 290.851 30.5961   5
  14   4  -3 218.366 32.5065   3
 -12  -4   3 426.321 29.7633   1
 -12  -4   3 445.361 39.3533   4
 -12  -4   3 471.829 24.5633   6
 -12   4   3 448.672 24.6213   3
  12   4  -3 448.786 27.8721   2
  12   4  -3 467.091 32.1414   5
  12   4  -3 414.065 36.8482   3
 -12   4   3 463.507 30.6233   4
 -10  -4   3 1198.46 57.4763   4
 -10  -4   3 1134.13 37.4687   6
 -10  -4   3 1195.09 44.3450   1
  10   4  -3 1137.96 47.4572   5
 -10   4   3 1178.46 39.8012   3
  10   4  -3 1158.67 51.3646   3
  10   4  -3 1122.96 42.5437   2
 -10   4   3 1146.29 43.1021   4
 -10   4   3 1132.65 48.4420   7
  -8  -4   3 598.435 27.5068   2
  -8  -4   3 578.287 22.1919   6
  -8  -4   3 645.641 42.0420   4
  -8  -4   3 619.346 28.8937   1
   8   4  -3 606.590 28.0944   2
  -8   4   3 644.265 26.3775   3
  -8   4   3 611.597 26.8683   4
   8   4  -3 587.403 36.7639   3
   8   4  -3 608.115 28.7643   1
   8   4  -3 580.402 32.5795   5
  -6  -4   3 790.082 22.6603   6
  -6  -4   3 764.272 42.2221   4
  -6  -4   3 788.728 30.9104   1
  -6   4   3 758.217 32.4452   2
   6   4  -3 761.162 30.9339   1
   6   4  -3 758.983 35.7848   5
  -6   4   3 788.475 34.6105   1
   6   4  -3 796.754 37.6390   3
  -6   4   3 804.045 25.3611   4
   6   4  -3 830.140 31.8635   2
  -4  -4   3 890.159 37.6723   5
   4  -4  -3 926.501 37.6876   1
   4  -4  -3 924.951 38.6332   7
  -4  -4   3 934.634 32.8523   1
  -4  -4   3 863.848 44.0934   4
  -4  -4   3 908.500 37.5256   3
   4   4  -3 896.118 37.3295   3
   4   4  -3 920.195 31.9650   1
   4   4  -3 894.472 42.1583   4
   4   4  -3 854.579 37.8645   5
   4   4  -3 925.382 33.9256   2
  -4   4   3 902.096 35.9116   1
  -4   4   3 874.077 32.5927   2
  -2  -4   3 935.097 45.4894   4
   2  -4  -3 932.704 37.5349   7
   2  -4  -3 948.079 27.7318   4
  -2  -4   3 882.617 34.5599   3
  -2  -4   3 861.946 32.8581   1
   2  -4  -3 895.229 37.3445   1
   2   4  -3 879.017 31.5950   1
  -2   4   3 927.331 34.6153   1
   2   4  -3 921.956 37.5950   5
   2   4  -3 933.131 43.2962   4
  -2   4   3 868.838 30.7987   2
  -2   4   3 830.299 33.8583   6
   0  -4   3 1185.77 40.2220   1
   0  -4  -3 1211.01 38.8942   4
   0  -4   3 1138.06 50.3540   4
   0  -4  -3 1180.72 42.1612   1
   0  -4  -3 1266.08 44.6641   7
   0  -4   3 1178.37 39.1116   3
   0   4  -3 1220.12 32.8498   6
   0   4   3 1191.82 40.1988   6
   0   4  -3 1158.16 41.9270   5
   0   4   3 1246.04 34.9862   2
   0   4  -3 1193.51 48.8523   4
   0   4  -3 1272.19 39.5734   1
   0   4   3 1275.44 41.9512   1
  -2  -4  -3 2290.98 66.1234   6
  -2  -4  -3 2433.48 68.8066   1
   2  -4   3 2330.86 61.4963   3
   2  -4   3 2245.64 77.1821   4
  -2   4  -3 2521.65 78.2365   4
  -2   4  -3 2252.06 64.9388   1
  -2   4  -3 2281.74 61.1476   6
   2   4   3 2361.05 56.1847   2
   2   4   3 2300.46 66.3693   1
   2   4   3 2278.04 65.7921   6
  -2   4  -3 2265.80 65.3884   5
  -4  -4  -3 1423.31 50.0143   1
  -4  -4  -3 1335.43 47.0734   6
   4  -4   3 1519.94 61.4491   4
   4   4   3 1495.79 47.7664   6
   4   4   3 1525.04 49.8569   1
  -4   4  -3 1537.30 48.9004   1
  -4   4  -3 1432.34 45.9162   6
  -4   4  -3 1487.92 58.6383   4
  -6  -4  -3 1534.70 54.4281   1
   6  -4   3 1494.32 63.6616   4
  -6  -4  -3 1500.27 51.9045   6
   6   4   3 1525.95 57.6385   3
  -6   4  -3 1613.53 51.4783   6
   6   4   3 1563.74 54.0876   6
  -8  -4  -3 1015.80 44.8020   1
   8  -4   3 1102.19 33.6621   3
  -8  -4  -3 1012.01 42.3159   6
  -8  -4  -3 1065.88 27.5986   2
   8   4   3 985.430 47.3194   3
  -8   4  -3 976.547 41.3578   6
   8   4   3 1019.50 38.0085   5
 -10  -4  -3 297.075 29.3417   1
  10  -4   3 304.876 18.2676   3
 -10  -4  -3 356.516 30.5426   6
 -10  -4  -3 311.291 14.5493   2
  10  -4   3 300.520 18.3193   7
  10   4   3 307.673 21.9286   5
  10   4   3 396.856 37.2112   3
 -10   4  -3 306.650 28.6815   6
  12  -4   3 499.842 20.5566   7
 -12  -4  -3 463.006 34.9562   6
  12  -4   3 516.538 23.8387   3
 -12  -4  -3 489.880 36.1170   1
 -12  -4  -3 492.444 21.2950   2
  12   4   3 481.189 25.9012   5
 -12   4  -3 494.555 36.7968   6
  12   4   3 432.240 40.5578   3
 -14  -4  -3 216.241 27.4516   6
 -14  -4  -3 255.216 32.5070   1
  14  -4   3 243.621 18.9088   3
  14   4   3 252.759 20.2617   5
 -14   4  -3 220.773 30.6084   6
  14   4   3 225.629 33.3959   3
 -16  -4  -3 237.342 31.8138   6
 -16  -4  -3 192.558 29.9493   1
  16   4   3 213.860 19.0402   5
  16   4   3 212.014 33.4035   3
 -16   4  -3 249.248 34.5726   6
 -18  -4  -3 106.260 26.5079   6
 -18  -4  -3 133.873 28.5680   1
  18   4   3 156.499 32.8005   3
 -18   4  -3 146.802 31.0132   6
 -20  -4  -3 36.9293 24.6200   6
 -20  -4  -3 38.4613 27.0111   1
  20   4   3 61.3835 25.5289   3
 -20   4  -3 29.4269 28.1927   6
 -21  -5   3 150.854 39.5165   4
 -21  -5   3 113.938 29.7443   1
  21   5  -3 172.255 32.4608   5
  21   5  -3 93.4614 34.3216   3
 -21   5   3 152.013 32.8750   6
 -19  -5   3 169.810 28.5347   1
 -19  -5   3 145.015 23.2401   6
 -19  -5   3 130.060 34.4877   4
  19   5  -3 187.099 30.2177   5
  19   5  -3 182.240 37.3050   3
 -19   5   3 120.092 28.5951   6
 -17  -5   3 234.586 38.8008   4
 -17  -5   3 262.984 31.9671   1
 -17  -5   3 268.010 26.2987   6
 -17   5   3 306.899 36.7579   6
  17   5  -3 272.278 33.1164   5
  17   5  -3 207.909 35.0420   3
 -15  -5   3 335.303 41.9558   4
 -15  -5   3 341.765 25.1787   6
 -15  -5   3 442.981 35.3866   1
  15   5  -3 401.743 42.1494   3
  15   5  -3 418.922 36.4809   5
 -13  -5   3 285.093 37.1007   4
 -13  -5   3 341.724 23.1381   6
 -13  -5   3 372.753 30.8278   1
  13   5  -3 390.934 34.5696   5
  13   5  -3 395.392 27.3720   2
  13   5  -3 375.837 39.4903   3
 -13   5   3 391.509 34.8797   4
 -11  -5   3 527.029 32.6070   1
 -11  -5   3 493.231 23.6928   6
 -11  -5   3 543.603 43.7182   4
  11   5  -3 554.659 40.8209   3
 -11   5   3 515.094 33.2333   4
 -11   5   3 503.482 24.4906   3
  11   5  -3 524.843 34.4624   5
  11   5  -3 545.841 28.5692   2
  -9  -5   3 724.113 35.0596   1
  -9  -5   3 854.188 49.1178   4
  -9  -5   3 762.734 25.9177   6
   9   5  -3 770.222 42.0427   3
  -9   5   3 754.651 29.1850   3
   9   5  -3 782.168 32.3235   2
   9   5  -3 698.690 39.7148   5
  -9   5   3 744.360 32.3760   4
  -7  -5   3 977.777 52.6737   4
  -7  -5   3 1003.06 39.6763   1
  -7  -5   3 985.234 27.1436   6
   7   5  -3 1004.00 46.5429   3
  -7   5   3 1035.18 33.2772   4
   7   5  -3 1022.16 38.9017   1
   7   5  -3 1064.77 37.3618   2
   7   5  -3 959.576 43.2128   5
  -5  -5   3 838.836 47.0311   4
  -5  -5   3 843.315 35.0598   1
  -5   5   3 810.762 26.3514   4
   5   5  -3 807.176 37.4365   5
   5   5  -3 803.393 31.9305   2
   5   5  -3 829.433 33.3187   1
   5   5  -3 767.661 37.2624   3
  -5   5   3 829.452 33.4342   2
  -3  -5   3 1942.06 60.3457   3
   3  -5  -3 1954.51 53.0257   4
   3  -5  -3 1972.03 61.7114   1
  -3  -5   3 1928.71 58.4083   1
  -3  -5   3 1880.42 71.5888   4
  -3   5   3 2046.18 56.9820   2
   3   5  -3 1918.77 61.6152   3
  -3   5   3 1955.77 60.8392   1
   3   5  -3 1842.91 62.2448   5
   3   5  -3 2041.78 58.0851   1
   1  -5  -3 1490.61 45.9751   4
   1  -5  -3 1562.59 58.4856   7
  -1  -5   3 1429.62 59.8740   4
  -1  -5   3 1516.68 49.3801   1
   1  -5  -3 1515.62 52.7898   1
  -1  -5   3 1522.76 47.9280   3
   1   5  -3 1450.54 51.0754   5
   1   5  -3 1487.79 47.5835   1
   1   5  -3 1526.32 36.4601   6
  -1   5   3 1456.31 43.0151   2
  -1   5   3 1467.50 48.0391   6
  -1   5   3 1562.29 50.9345   1
   1  -5   3 1435.94 44.4968   3
   1  -5   3 1421.00 59.9014   4
  -1  -5  -3 1541.81 50.0590   4
  -1  -5  -3 1468.67 51.1786   1
   1  -5   3 1508.15 49.4734   1
   1   5   3 1485.79 48.0740   6
  -1   5  -3 1457.96 49.7954   5
  -1   5  -3 1513.54 48.6944   1
  -1   5  -3 1538.91 41.4525   6
   1   5   3 1399.06 49.3254   1
   1   5   3 1520.34 39.7793   2
  -3  -5  -3 1359.25 49.6984   1
   3  -5   3 1381.91 39.3154   3
  -3  -5  -3 1318.95 50.3909   4
  -3  -5  -3 1383.62 47.0886   6
   3  -5   3 1304.03 58.5681   4
   3   5   3 1325.86 45.2181   6
  -3   5  -3 1350.22 41.8755   6
  -3   5  -3 1307.69 46.8207   1
   5  -5   3 1007.31 52.6526   4
  -5  -5  -3 1059.82 41.5314   6
  -5  -5  -3 991.521 43.3021   1
   5  -5   3 1136.17 31.4096   3
   5   5   3 1068.56 43.1051   6
   5   5   3 1111.76 47.8307   3
  -5   5  -3 1148.10 40.0106   6
  -7  -5  -3 1285.60 52.0354   1
  -7  -5  -3 1261.36 47.5817   6
   7  -5   3 1295.67 62.3042   4
   7   5   3 1319.41 56.3838   3
  -7   5  -3 1323.73 48.0127   6
   9  -5   3 385.096 15.0691   3
  -9  -5  -3 417.261 30.2303   6
  -9   5  -3 342.643 27.5614   6
   9   5   3 363.047 26.1990   5
   9   5   3 388.000 36.1110   3
 -11  -5  -3 616.965 41.1361   1
 -11  -5  -3 677.844 38.8836   6
 -11  -5  -3 686.242 19.5034   2
  11  -5   3 658.207 22.1803   3
  11  -5   3 696.573 29.7778   7
 -11   5  -3 670.131 39.7460   6
  11   5   3 683.829 46.9804   3
  11   5   3 624.934 32.2766   5
 -13  -5  -3 405.091 35.2389   6
  13  -5   3 429.013 18.5956   3
 -13  -5  -3 375.854 37.4096   1
 -13   5  -3 484.345 38.5131   6
  13   5   3 472.976 42.7910   3
  13   5   3 436.119 26.8695   5
 -15  -5  -3 193.832 30.0181   1
 -15  -5  -3 196.938 29.3108   6
 -15   5  -3 237.187 32.4794   6
  15   5   3 205.727 33.8423   3
  15   5   3 242.958 21.8297   5
 -17  -5  -3 118.434 27.3152   1
 -17  -5  -3 172.409 30.3088   6
  17   5   3 129.859 30.2189   3
 -17   5  -3 143.298 30.9103   6
 -19  -5  -3 39.4911 23.8369   1
 -19  -5  -3 38.5698 24.8921   6
 -19   5  -3 76.8960 28.8999   6
  19   5   3 83.4500 29.9069   3
 -20  -6   3 112.795 29.9698   1
 -20  -6   3 69.4970 32.6981   4
  20   6  -3 123.999 35.9270   3
  20   6  -3 143.645 30.1974   5
 -20   6   3 57.2325 25.9815   6
 -18  -6   3 195.286 38.6207   4
 -18  -6   3 251.867 34.6598   1
  18   6  -3 202.119 32.1982   5
 -18   6   3 181.942 31.1371   6
  18   6  -3 229.535 40.0660   3
 -16  -6   3 217.395 22.3950   6
 -16  -6   3 204.541 30.3138   1
 -16  -6   3 228.736 41.2828   4
  16   6  -3 309.671 41.4704   3
  16   6  -3 208.611 30.0794   5
 -14  -6   3 337.684 23.5021   6
 -14  -6   3 390.713 35.1844   1
 -14  -6   3 325.882 42.3364   4
  14   6  -3 303.183 39.0303   3
  14   6  -3 298.539 33.7399   5
  14   6  -3 353.978 25.8033   2
 -12  -6   3 630.837 51.0921   4
 -12  -6   3 582.219 25.7238   6
 -12  -6   3 577.531 37.3166   1
  12   6  -3 605.848 40.9043   5
  12   6  -3 555.090 41.9471   3
  12   6  -3 571.630 30.1563   2
 -10  -6   3 610.117 49.4924   4
 -10  -6   3 570.543 35.3866   1
 -10  -6   3 548.720 21.8413   6
  10   6  -3 539.081 40.8695   3
 -10   6   3 578.489 24.3809   3
  10   6  -3 590.040 29.3285   2
 -10   6   3 578.734 31.7134   4
  10   6  -3 507.644 36.9502   5
  -8  -6   3 734.999 49.8330   4
  -8  -6   3 746.935 21.0432   6
  -8  -6   3 737.076 36.7380   1
   8   6  -3 757.532 31.9534   2
  -8   6   3 746.470 30.4441   4
   8   6  -3 694.451 40.5386   3
   8   6  -3 670.369 40.3289   5
  -6  -6   3 875.388 49.8236   4
  -6  -6   3 923.943 39.2051   1
   6   6  -3 843.882 43.2302   3
   6   6  -3 814.896 33.9252   2
  -6   6   3 889.127 31.0747   4
   6   6  -3 835.712 41.1379   5
   4  -6  -3 1162.19 38.5141   4
   4  -6  -3 1054.66 45.6846   1
  -4  -6   3 1131.47 43.8815   1
  -4  -6   3 1175.04 57.0699   4
   4   6  -3 1115.89 40.2287   2
   4   6  -3 1070.20 45.3084   3
  -4   6   3 1168.39 36.4064   4
   4   6  -3 1043.01 47.5984   5
   4   6  -3 1107.83 41.7007   1
  -4   6   3 1135.50 40.3116   2
  -2  -6   3 826.965 36.9568   1
   2  -6  -3 829.537 33.7143   4
   2  -6  -3 860.245 41.4842   1
  -2  -6   3 871.924 35.8704   3
  -2  -6   3 871.173 47.9810   4
   2   6  -3 817.385 39.0515   5
  -2   6   3 837.297 31.2581   2
   2   6  -3 866.868 35.5693   1
   2   6  -3 858.357 36.1472   3
   0  -6  -3 1258.87 49.3463   1
   0  -6   3 1232.41 57.8991   4
   0  -6   3 1322.10 43.3447   3
   0  -6  -3 1370.54 47.0348   4
   0  -6   3 1293.99 47.0156   1
   0   6  -3 1255.60 50.0594   5
   0   6   3 1394.03 49.1550   6
   0   6  -3 1300.06 35.3190   6
   0   6   3 1287.16 38.1818   2
   0   6  -3 1299.11 46.5031   1
  -2  -6  -3 1155.95 45.8199   4
  -2  -6  -3 1167.34 47.9937   1
   2  -6   3 1102.37 55.6024   4
   2  -6   3 1126.31 36.2993   3
   2   6   3 1141.86 45.0404   6
   2   6   3 1151.52 47.6748   3
  -2   6  -3 1119.55 36.0510   6
   2   6   3 1135.49 30.5037   2
   4  -6   3 617.158 48.0116   4
  -4  -6  -3 614.403 36.4994   1
  -4  -6  -3 585.964 35.6698   4
  -4  -6  -3 622.532 31.9784   6
   4  -6   3 601.133 21.1274   3
  -4   6  -3 597.715 27.8274   6
   4   6   3 582.928 37.6487   3
   6  -6   3 516.929 42.5266   4
  -6  -6  -3 489.892 29.8021   6
  -6  -6  -3 523.336 33.6241   1
  -6  -6  -3 515.344 37.6220   4
   6  -6   3 523.691 15.6783   3
   6   6   3 456.045 34.6366   3
  -6   6  -3 555.089 29.3764   6
  -8  -6  -3 377.243 32.1536   1
  -8  -6  -3 434.289 31.3188   6
   8  -6   3 409.906 42.9995   4
   8   6   3 423.558 30.6838   5
  -8   6  -3 471.350 30.5704   6
   8   6   3 369.581 37.6071   3
 -10  -6  -3 733.421 39.4391   6
 -10  -6  -3 661.135 43.1268   1
  10   6   3 622.717 43.7776   3
  10   6   3 699.230 35.6514   5
 -10   6  -3 691.982 39.4231   6
 -12  -6  -3 412.487 39.0244   1
 -12  -6  -3 475.763 35.9448   6
  12   6   3 321.589 37.8816   3
  12   6   3 459.966 30.2221   5
 -12   6  -3 431.874 37.6661   6
 -14  -6  -3 229.620 29.3759   6
 -14  -6  -3 244.082 31.8591   1
  14   6   3 209.984 32.8502   3
  14   6   3 307.700 25.2898   5
 -14   6  -3 221.531 30.1912   6
 -16  -6  -3 123.521 30.2361   1
 -16  -6  -3 165.353 28.3447   6
  16   6   3 170.115 32.7506   3
  16   6   3 181.017 22.3672   5
 -16   6  -3 142.751 27.7049   6
 -18  -6  -3 44.2716 24.0661   6
 -18  -6  -3 39.8706 26.5160   1
  18   6   3 144.284 34.2841   3
 -18   6  -3 55.4081 28.0443   6
 -19  -7   3 72.7486 32.4902   4
 -19  -7   3 75.4613 28.2132   1
 -19   7   3 82.4821 28.0079   6
  19   7  -3 114.589 33.7946   3
  19   7  -3 90.9630 27.3310   5
 -17  -7   3 124.886 35.5227   4
 -17  -7   3 121.707 28.1310   1
  17   7  -3 138.130 28.4043   5
 -17   7   3 179.349 31.4302   6
  17   7  -3 137.430 33.3117   3
 -15  -7   3 143.736 25.8628   1
 -15  -7   3 150.359 34.5069   4
  15   7  -3 147.650 33.6915   3
  15   7  -3 158.119 29.6374   5
 -13  -7   3 380.593 46.5042   4
 -13  -7   3 396.406 36.5004   1
  13   7  -3 423.603 40.1747   5
  13   7  -3 413.311 44.7744   3
  13   7  -3 460.435 26.9616   2
 -11  -7   3 540.411 21.3089   6
 -11  -7   3 474.215 46.2228   4
 -11  -7   3 478.337 36.1260   1
  11   7  -3 511.811 37.0340   5
  11   7  -3 545.124 27.8439   2
  11   7  -3 519.099 42.9269   3
  -9  -7   3 784.489 42.5649   1
  -9  -7   3 823.280 21.8435   6
  -9  -7   3 772.580 55.5239   4
   9   7  -3 783.701 33.6134   2
   9   7  -3 741.616 44.7273   3
  -9   7   3 830.469 34.9226   4
  -9   7   3 787.641 28.1661   3
   9   7  -3 782.438 45.7033   5
  -7  -7   3 565.992 45.6482   4
  -7  -7   3 603.392 36.2007   1
   7   7  -3 632.778 29.5653   2
  -7   7   3 615.728 28.0333   4
   7   7  -3 576.839 39.3647   5
   7   7  -3 646.360 40.1265   3
   5  -7  -3 530.573 36.0970   1
  -5  -7   3 665.064 46.2431   4
   5  -7  -3 638.808 30.1953   4
  -5  -7   3 574.042 35.3310   1
   5   7  -3 577.915 29.5760   2
   5   7  -3 644.035 37.2336   3
  -5   7   3 611.959 27.4200   4
   5   7  -3 588.717 37.1078   5
  -3  -7   3 588.675 46.1265   4
  -3  -7   3 551.903 33.9252   1
   3  -7  -3 680.570 39.4555   1
   3  -7  -3 641.350 31.9462   4
   3   7  -3 571.055 32.6380   3
  -3   7   3 615.591 28.4379   2
   3   7  -3 555.993 35.1648   5
  -1  -7   3 1262.23 62.1978   4
   1  -7  -3 1234.09 46.6066   4
  -1  -7   3 1212.24 48.5968   1
   1  -7  -3 1135.75 50.2057   1
  -1  -7   3 1249.84 44.4521   3
  -1   7   3 1244.94 39.5333   2
   1   7  -3 1200.91 30.7176   6
   1   7  -3 1188.04 51.5469   5
   1   7  -3 1236.91 30.8614   6
   1  -7   3 900.710 34.1044   3
   1  -7   3 972.301 55.4780   4
  -1  -7  -3 897.600 43.8298   1
  -1  -7  -3 877.473 41.4414   4
   1  -7   3 789.023 40.1724   1
   1   7   3 909.108 28.2831   2
   1   7   3 853.961 41.5503   3
  -1   7  -3 903.955 29.2645   6
   3  -7   3 690.107 25.2103   3
  -3  -7  -3 631.430 38.2625   4
  -3  -7  -3 593.713 37.3108   1
   3  -7   3 629.287 47.0917   4
  -3   7  -3 636.852 27.7587   6
   3   7   3 627.624 38.2408   3
   5  -7   3 584.677 49.9886   4
  -5  -7  -3 567.491 31.4677   6
   5  -7   3 518.184 17.3772   3
  -5  -7  -3 491.674 37.5742   4
  -5  -7  -3 510.509 35.5332   1
  -5   7  -3 528.672 29.0642   6
   5   7   3 489.610 37.1339   3
  -7  -7  -3 141.117 25.8453   4
  -7  -7  -3 135.194 23.7780   1
   7  -7   3 164.965 30.1061   4
  -7  -7  -3 195.081 23.5987   6
   7   7   3 186.529 28.1230   3
  -7   7  -3 217.415 23.9006   6
   9  -7   3 630.501 49.1823   4
  -9  -7  -3 672.119 37.8531   6
  -9  -7  -3 723.531 50.0038   4
  -9  -7  -3 679.575 44.6409   1
   9   7   3 700.809 47.3450   3
  -9   7  -3 735.076 39.1819   6
   9   7   3 637.839 38.3035   5
 -11  -7  -3 377.739 32.5969   6
 -11  -7  -3 330.481 35.9273   1
 -11  -7  -3 312.725 41.0917   4
  11   7   3 367.087 30.3608   5
  11   7   3 276.886 34.9911   3
 -11   7  -3 311.890 32.1129   6
 -13  -7  -3 213.441 30.8884   1
 -13  -7  -3 310.282 32.3382   6
 -13  -7  -3 201.776 35.6108   4
 -13   7  -3 269.339 33.5952   6
  13   7   3 271.270 38.5479   3
  13   7   3 265.371 28.4209   5
 -15  -7  -3 160.993 28.6341   6
 -15  -7  -3 164.992 32.4386   1
  15   7   3 181.170 24.2036   5
  15   7   3 154.089 34.4079   3
 -15   7  -3 157.887 30.3289   6
 -17  -7  -3 75.3291 32.3066   4
 -17  -7  -3 59.9891 25.5852   6
 -17  -7  -3 71.6223 29.0226   1
 -17   7  -3 41.3967 25.3842   6
  17   7   3 51.6858 27.6745   3
 -18  -8   3 66.5761 28.3066   1
 -18  -8   3 87.7229 36.5611   4
  18   8  -3 55.9476 24.3974   5
  18   8  -3 54.2456 29.3087   3
 -18   8   3 49.7713 23.0905   6
 -16  -8   3 24.0222 24.3280   1
 -16  -8   3 89.0418 34.0133   4
  16   8  -3 103.417 28.0294   5
  16   8  -3 78.4937 29.0197   3
 -14  -8   3 139.128 28.4186   1
 -14  -8   3 175.772 39.3015   4
  14   8  -3 209.012 35.9569   3
  14   8  -3 140.197 28.7814   5
 -12  -8   3 180.044 28.0559   1
 -12  -8   3 235.757 38.2232   4
  12   8  -3 216.699 34.6358   3
  12   8  -3 225.142 31.6930   5
  12   8  -3 251.429 21.9416   2
 -10  -8   3 257.842 29.7617   1
 -10  -8   3 295.504 40.9383   4
  10   8  -3 288.305 36.2032   3
  10   8  -3 250.298 33.0245   5
  10   8  -3 244.798 20.3502   2
  -8  -8   3 428.204 44.3236   4
  -8  -8   3 486.627 37.5943   1
   8   8  -3 428.616 25.0502   2
   8   8  -3 422.619 35.4136   5
   8   8  -3 456.948 36.2862   3
  -6  -8   3 480.540 36.3052   1
  -6  -8   3 483.866 44.7263   4
   6  -8  -3 575.699 30.2127   4
   6   8  -3 523.039 35.6985   3
   6   8  -3 473.786 36.4521   5
   6   8  -3 518.636 27.6509   2
  -6   8   3 495.645 27.3631   4
   4  -8  -3 298.939 27.8436   4
  -4  -8   3 249.695 36.1358   4
   4  -8  -3 243.003 30.5670   1
  -4  -8   3 209.586 26.4812   1
  -4   8   3 269.822 22.0902   4
  -4   8   3 313.602 25.2520   3
   4   8  -3 246.517 29.8529   5
   4   8  -3 289.159 24.4310   2
   4   8  -3 259.331 28.0029   3
  -2  -8   3 532.819 44.6937   4
   2  -8  -3 471.747 31.9605   4
  -2  -8   3 469.336 36.2489   1
   2  -8  -3 475.630 39.4182   1
  -2   8   3 454.029 29.6792   3
   2   8  -3 474.556 30.2911   3
  -2   8   3 483.004 24.6180   2
   2   8  -3 421.908 34.5772   5
   0  -8  -3 883.117 43.1404   4
   0  -8  -3 860.670 46.2064   1
   0  -8   3 873.739 44.3255   1
   0  -8   3 875.530 36.3485   3
   0  -8   3 945.896 58.6332   4
   0   8  -3 872.296 27.1730   6
   0   8   3 855.550 40.7427   3
   0   8   3 855.088 30.4975   2
   0   8  -3 901.959 46.8671   5
  -2  -8  -3 636.529 39.0864   4
  -2  -8  -3 619.517 40.4205   1
   2  -8   3 642.152 50.1630   4
   2  -8   3 702.282 28.2514   3
   2   8   3 661.478 21.4499   2
  -2   8  -3 618.604 26.2595   6
   2   8   3 628.475 37.5629   3
  -4  -8  -3 536.583 39.6860   4
   4  -8   3 630.927 23.4045   3
   4  -8   3 650.048 51.4330   4
  -4  -8  -3 604.232 42.0776   1
  -4   8  -3 627.209 29.6266   6
   4   8   3 610.975 39.7525   3
  -6  -8  -3 191.064 29.5922   1
   6  -8   3 150.809 32.5478   4
  -6  -8  -3 157.256 22.5032   6
  -6  -8  -3 187.245 28.4262   4
   6   8   3 158.541 26.0723   3
  -6   8  -3 191.912 22.3499   6
  -8  -8  -3 262.935 27.1276   6
  -8  -8  -3 271.109 34.5075   4
   8  -8   3 195.151 35.1875   4
  -8  -8  -3 231.817 30.3708   1
   8   8   3 271.898 35.4425   3
  -8   8  -3 335.683 30.4486   6
   8   8   3 262.713 31.2247   5
 -10  -8  -3 238.590 34.4316   4
 -10  -8  -3 177.433 29.2435   1
 -10  -8  -3 212.246 25.8474   6
  10  -8   3 256.819 37.7827   4
 -10   8  -3 186.396 26.4480   6
  10   8   3 211.588 32.9278   3
  10   8   3 259.745 31.3817   5
 -12  -8  -3 207.556 28.0578   6
 -12  -8  -3 175.257 31.6856   1
 -12  -8  -3 157.715 33.4610   4
  12   8   3 209.158 36.2164   3
  12   8   3 187.116 26.9365   5
 -12   8  -3 200.549 29.8101   6
 -14  -8  -3 110.038 31.7871   4
 -14  -8  -3 196.571 28.4207   6
 -14  -8  -3 119.381 28.5322   1
  14   8   3 99.7965 22.9200   5
 -14   8  -3 108.543 26.7694   6
  14   8   3 165.864 33.0279   3
 -16  -8  -3 9.49436 22.2143   6
 -16  -8  -3 30.8473 25.9681   4
 -16  -8  -3 54.6207 27.8022   1
  16   8   3 39.4201 26.7249   3
 -16   8  -3 50.2100 24.9256   6
 -17  -9   3 13.2667 24.6776   1
 -17  -9   3 54.8501 33.5279   4
 -17   9   3 42.0037 22.6009   6
  17   9  -3 41.2711 26.1877   5
  17   9  -3 8.06462 29.5288   3
 -15  -9   3 45.5682 29.1976   4
 -15  -9   3 51.8356 25.4441   1
  15   9  -3 56.5551 27.4576   5
  15   9  -3 94.5353 30.2867   3
 -13  -9   3 51.2255 29.5620   4
 -13  -9   3 78.7327 23.5284   1
  13   9  -3 84.6038 26.0030   5
  13   9  -3 99.0410 30.7682   3
 -11  -9   3 81.1588 25.7145   1
 -11  -9   3 97.2842 31.1619   4
  11   9  -3 160.290 17.6144   2
  11   9  -3 120.725 27.1363   5
  11   9  -3 98.7144 27.1240   3
  -9  -9   3 56.8738 26.7339   4
  -9  -9   3 75.8241 23.6635   1
   9   9  -3 61.6690 24.0550   5
   9   9  -3 47.2782 12.4495   2
   9   9  -3 59.9598 24.4263   3
  -7  -9   3 156.719 27.6001   1
  -7  -9   3 136.983 33.5028   4
   7  -9  -3 168.327 19.9926   4
   7   9  -3 138.183 28.9776   5
  -7   9   3 154.278 15.9815   3
   7   9  -3 131.855 17.5290   2
   7   9  -3 144.327 26.9913   3
  -5  -9   3 132.288 26.2962   1
   5  -9  -3 118.954 24.9641   1
   5  -9  -3 153.061 23.0433   4
  -5  -9   3 130.003 33.1774   4
   5   9  -3 124.192 24.8746   5
  -5   9   3 154.991 18.7270   3
   5   9  -3 152.501 19.3363   2
   5   9  -3 118.914 23.7576   3
  -3  -9   3 212.560 37.2023   4
  -3  -9   3 168.917 26.9816   1
   3  -9  -3 180.114 24.6546   4
   3  -9  -3 158.167 27.4111   1
  -3   9   3 213.381 22.7392   3
   3   9  -3 252.775 32.6002   5
   3   9  -3 220.026 25.6480   3
  -1  -9   3 175.122 26.0433   1
   1  -9  -3 170.328 24.6781   4
  -1  -9   3 201.137 35.4217   4
   1  -9  -3 207.778 31.6276   1
   1   9  -3 187.816 9.07734   6
  -1   9   3 169.933 22.4776   3
  -1   9   3 207.344 17.2354   2
   1   9  -3 186.133 29.8104   5
   1   9  -3 188.250 9.04544   6
   1  -9   3 313.598 43.0930   4
  -1  -9  -3 301.145 32.4863   4
   1  -9   3 313.614 23.0160   3
  -1  -9  -3 303.471 35.4911   1
   1  -9   3 242.045 28.0763   1
  -1   9  -3 278.539 16.8905   6
  -1   9  -3 230.944 31.3592   5
   1   9   3 263.413 27.9716   3
   1   9   3 311.135 16.4212   2
   3  -9   3 221.700 38.8731   4
  -3  -9  -3 216.479 29.1693   4
  -3  -9  -3 254.737 32.0217   1
  -3   9  -3 246.724 19.6639   6
   3   9   3 206.737 27.5699   3
  -5  -9  -3 48.1960 24.2557   1
   5  -9   3 16.1024 27.9398   4
  -5  -9  -3 29.2122 20.4314   4
  -5   9  -3 28.7144 12.8955   6
   5   9   3 61.8135 21.4129   3
   7  -9   3 104.814 30.9531   4
  -7  -9  -3 86.6681 19.6182   6
  -7  -9  -3 53.9581 23.1252   1
  -7  -9  -3 71.8309 24.8789   4
   7   9   3 89.6709 25.9207   3
  -7   9  -3 107.104 19.8607   6
   9  -9   3 118.699 29.8203   4
  -9  -9  -3 58.6748 24.4622   4
  -9  -9  -3 58.9535 19.7072   6
  -9  -9  -3 47.5159 23.3028   1
  -9   9  -3 86.4500 21.2081   6
   9   9   3 71.5581 24.3201   5
   9   9   3 90.9590 26.0068   3
 -11  -9  -3 216.625 37.6888   4
 -11  -9  -3 151.538 29.8134   1
 -11  -9  -3 147.150 25.0361   6
  11   9   3 172.826 27.6234   5
  11   9   3 221.590 34.3048   3
 -11   9  -3 160.470 26.7427   6
 -13  -9  -3 54.7981 28.1776   1
 -13  -9  -3 59.1554 29.6506   4
 -13  -9  -3 56.3534 21.7139   6
  13   9   3 105.060 24.1866   5
  13   9   3 87.3641 28.6510   3
 -13   9  -3 104.960 26.8434   6
 -15  -9  -3 11.0736 25.8765   1
 -15  -9  -3 -5.6893 22.6283   4
 -15  -9  -3 50.9889 22.7647   6
  15   9   3 43.6780 26.2421   3
 -15   9  -3 17.6489 22.6925   6
  15   9   3 30.1140 19.9442   5
 -16 -10   3 25.9817 33.1194   4
 -16 -10   3 10.2663 26.2435   1
  16  10  -3 34.9664 27.6096   3
  16  10  -3 34.0416 26.1880   5
 -14 -10   3 15.5754 29.3454   4
 -14 -10   3 -12.485 23.9941   1
  14  10  -3 45.4904 26.8171   5
  14  10  -3 24.6140 25.7079   3
 -12 -10   3 0.56865 22.9561   1
 -12 -10   3 11.5634 29.1042   4
  12  10  -3 12.4252 21.7472   5
  12  10  -3 17.8386 24.9608   3
 -10 -10   3 31.3249 24.0876   1
 -10 -10   3 -1.7334 29.6059   4
  10  10  -3 13.8152 21.9530   5
  10  10  -3 40.7099 25.1306   3
  -8 -10   3 32.2465 26.1583   4
  -8 -10   3 35.8224 21.2358   1
   8  10  -3 66.3846 24.2912   5
   8  10  -3 0.85677 20.1350   3
   8  10  -3 27.6257 11.8697   2
   6 -10  -3 45.1696 17.5408   4
  -6 -10   3 15.7530 27.0382   4
  -6 -10   3 0.15243 22.4690   1
   6  10  -3 24.4015 20.9297   5
   6  10  -3 29.3027 12.4794   2
   6  10  -3 27.7860 20.5277   3
   4 -10  -3 -6.8846 18.6935   4
  -4 -10   3 22.9215 25.9829   4
   4 -10  -3 40.1936 22.9472   1
  -4 -10   3 -5.8673 20.6368   1
   4  10  -3 25.0221 14.8356   2
  -4  10   3 47.7474 14.2032   3
   4  10  -3 34.0534 17.7821   3
   4  10  -3 -6.9377 19.1309   5
  -2 -10   3 22.5178 21.1304   1
   2 -10  -3 19.0151 20.0842   4
  -2 -10   3 76.0640 33.3927   4
   2 -10  -3 52.7585 24.8205   1
  -2  10   3 66.1299 17.1833   3
   2  10  -3 100.981 25.8126   5
   0 -10   3 48.9666 23.3789   1
   0 -10  -3 60.7976 26.0331   1
   0 -10   3 58.1205 33.0131   4
   0 -10  -3 55.6508 21.9121   4
   0  10  -3 41.0905 22.7836   5
   0  10   3 68.8432 19.6106   3
  -2 -10  -3 140.773 30.4850   1
   2 -10   3 96.5738 35.7878   4
  -2 -10  -3 84.4368 23.3662   4
  -2  10  -3 120.003 14.1449   6
   2  10   3 137.654 25.2201   3
   4 -10   3 -19.761 28.0320   4
  -4 -10  -3 -19.487 22.4477   1
  -4 -10  -3 4.61827 19.2179   4
   4  10   3 -5.1699 18.0674   3
  -4  10  -3 -7.3103 10.7004   6
  -6 -10  -3 18.7597 22.0169   4
   6 -10   3 18.2190 27.9928   4
  -6 -10  -3 -8.9172 21.9799   1
  -6  10  -3 9.97004 13.6603   6
   6  10   3 45.2830 22.7379   3
   8 -10   3 48.3623 27.3098   4
  -8 -10  -3 36.2870 23.4913   4
  -8 -10  -3 13.4546 22.7632   1
   8  10   3 37.1486 24.2595   5
  -8  10  -3 83.6466 21.0513   6
   8  10   3 16.0158 20.0718   3
 -10 -10  -3 58.4880 26.6213   1
 -10 -10  -3 74.6721 21.0593   6
 -10 -10  -3 38.8462 27.2807   4
  10 -10   3 85.5895 30.4077   4
  10  10   3 36.3736 23.1719   3
  10  10   3 45.0393 23.3194   5
 -10  10  -3 26.4315 18.9375   6
 -12 -10  -3 53.0617 26.0516   1
 -12 -10  -3 71.9118 24.7216   6
 -12 -10  -3 39.0978 28.1703   4
  12  10   3 50.3380 22.9973   5
 -12  10  -3 89.1620 24.8682   6
  12  10   3 50.7701 27.0482   3
 -14 -10  -3 17.6467 27.0579   4
 -14 -10  -3 0.60244 26.4941   1
 -14  10  -3 5.77467 20.8113   6
  14  10   3 41.6874 21.5929   5
  14  10   3 4.96399 23.6678   3
 -13 -11   3 0.80337 26.6138   1
 -13 -11   3 -43.553 28.9144   4
  13  11  -3 -24.603 19.7014   5
  13  11  -3 2.10943 23.7002   3
 -11 -11   3 29.7805 29.7256   4
 -11 -11   3 -10.366 25.9913   1
  11  11  -3 28.3258 24.1018   3
  11  11  -3 21.5704 24.2456   5
  -9 -11   3 -10.319 21.6672   1
  -9 -11   3 -18.281 26.2285   4
   9  11  -3 -5.2293 22.6719   5
   9  11  -3 4.88404 21.2951   3
  -7 -11   3 -12.037 26.9707   4
  -7 -11   3 20.6561 25.4012   1
   7  11  -3 -9.8300 20.5277   3
   7  11  -3 -6.1740 19.9472   5
  -5 -11   3 -15.083 20.8941   1
  -5 -11   3 -5.7511 28.5957   4
   5  11  -3 -3.0695 12.1080   2
   5  11  -3 9.49400 17.6599   3
   5  11  -3 34.2332 24.3265   5
   3 -11  -3 -45.101 19.6908   4
  -3 -11   3 -5.1385 19.7602   1
   3 -11  -3 10.1597 24.3006   1
  -3 -11   3 13.7898 31.1168   4
   3  11  -3 8.93646 21.4399   5
  -3  11   3 10.0629 13.8291   3
   1 -11  -3 -6.5724 24.0163   1
  -1 -11   3 -19.250 26.5295   4
   1 -11  -3 16.4696 21.6115   4
  -1 -11   3 7.61296 22.4141   1
  -1  11   3 14.4211 15.6060   3
   1  11  -3 -6.3134 23.0316   5
   1 -11   3 49.0346 21.6627   1
  -1 -11  -3 2.15359 22.2701   1
   1 -11   3 -15.695 31.3809   4
  -1 -11  -3 10.9958 21.3887   4
  -1  11  -3 5.29609 24.4374   5
   1  11   3 49.6220 19.4281   3
   3 -11   3 -2.0120 29.2911   4
  -3 -11  -3 -28.000 19.1573   4
  -3 -11  -3 -9.2727 24.5690   1
   3  11   3 8.86448 18.5069   3
  -5 -11  -3 9.11994 23.7060   1
  -5 -11  -3 5.26936 21.7151   4
   5 -11   3 -12.462 30.8476   4
  -5  11  -3 -15.933 12.0020   6
   5  11   3 6.55842 19.8113   3
  -7 -11  -3 26.7849 23.9399   1
  -7 -11  -3 -14.735 20.7886   4
   7 -11   3 40.1471 30.1046   4
   7  11   3 8.78731 20.2099   3
  -7  11  -3 -5.0535 13.7321   6
   9 -11   3 20.4182 27.3045   4
  -9 -11  -3 23.6730 26.2744   4
  -9 -11  -3 0.16671 23.1064   1
   9  11   3 9.48564 22.9000   3
  -9  11  -3 -3.5165 17.2414   6
   9  11   3 0.46342 23.4596   5
 -11 -11  -3 -17.503 25.9786   1
 -11 -11  -3 -13.288 22.8375   4
  11  11   3 5.65064 23.7234   3
 -11  11  -3 13.9370 20.0885   6
  11  11   3 25.4017 21.9435   5
 -13 -11  -3 -14.946 23.4660   4
 -13 -11  -3 -1.0563 25.4887   1
 -13  11  -3 -8.0458 18.9365   6
  13  11   3 22.7460 26.7087   3
  13  11   3 -23.638 18.7875   5
 -10 -12   3 8.56298 29.1355   4
 -10 -12   3 9.46255 28.0812   1
  10  12  -3 -3.2290 25.2133   5
  10  12  -3 7.48440 25.2730   3
  -8 -12   3 -28.645 22.1934   1
  -8 -12   3 -10.969 27.1612   4
   8  12  -3 -28.006 20.0595   3
   8  12  -3 0.82112 23.2861   5
  -6 -12   3 -23.115 30.4421   4
  -6 -12   3 -6.0654 25.2460   1
   6  12  -3 20.3294 19.7848   3
   6  12  -3 20.7693 23.7165   5
   4 -12  -3 25.9463 25.9182   1
  -4 -12   3 -9.2394 29.8969   4
  -4 -12   3 -18.190 24.0506   1
   4  12  -3 14.9320 22.9102   2
   4  12  -3 23.2740 24.8396   5
  -2 -12   3 30.4141 25.2679   1
  -2 -12   3 8.17830 30.3698   4
   2 -12  -3 14.1287 25.7394   1
   2  12  -3 -8.3230 24.8804   5
   0 -12   3 -9.8851 21.5372   1
   0 -12  -3 1.88033 23.3109   1
   0 -12   3 -28.362 30.3655   4
   0 -12  -3 -40.900 21.0796   4
   0  12  -3 11.1539 23.7611   5
   0  12   3 21.6478 16.6652   3
  -2 -12  -3 -2.5991 23.9256   1
  -2 -12  -3 15.3212 23.8153   4
   2 -12   3 -3.4473 35.5210   4
  -2  12  -3 -65.708 21.7817   5
   2  12   3 10.7989 17.6254   3
   4 -12   3 -51.178 33.8898   4
  -4 -12  -3 -22.934 20.6894   4
  -4 -12  -3 -12.062 26.5524   1
   4  12   3 -0.2483 18.8357   3
   6 -12   3 19.3358 34.4658   4
  -6 -12  -3 -16.482 26.9844   1
  -6 -12  -3 -22.248 22.3641   4
   6  12   3 31.1749 23.0512   3
  -8 -12  -3 10.8695 26.9817   4
  -8 -12  -3 -46.592 26.0600   1
   8 -12   3 35.5947 30.4645   4
   8  12   3 18.4649 23.7944   3
   8  12   3 -18.915 25.0223   5
 -10 -12  -3 -0.0445 25.4413   4
 -10 -12  -3 -44.251 27.8651   1
  10 -12   3 53.9890 30.1635   4
  10  12   3 12.4211 22.7036   3
  10  12   3 14.0326 23.2480   5
  -7 -13   3 -35.701 26.1544   1
  -7 -13   3 -0.0519 34.0986   4
   7  13  -3 39.6930 23.3354   3
   7  13  -3 -6.5863 21.9738   5
  -5 -13   3 -32.052 35.4838   4
  -5 -13   3 1.13873 26.9692   1
   5  13  -3 15.7704 25.5084   5
  -3 -13   3 -9.1083 35.5362   4
  -3 -13   3 89.1780 29.8598   1
   3 -13  -3 24.5396 24.4237   1
   3  13  -3 35.6214 26.0444   5
   1 -13  -3 6.76880 24.6964   1
  -1 -13   3 12.6804 24.8283   1
  -1 -13   3 -30.540 35.0137   4
   1  13  -3 38.5900 29.5282   5
   1 -13   3 -47.736 37.2746   4
  -1 -13  -3 36.7297 31.0722   1
  -1  13  -3 23.7106 26.0904   5
  -3 -13  -3 57.5594 32.0607   1
   3 -13   3 -44.351 37.5031   4
  -3 -13  -3 -6.8834 26.4624   4
   3  13   3 58.3454 21.6800   3
  -3  13  -3 -12.240 24.3098   5
  -5 -13  -3 12.3430 29.9015   1
  -5 -13  -3 -1.9189 24.8539   4
   5 -13   3 -52.513 37.2326   4
   5  13   3 49.4402 22.9615   3
   7 -13   3 26.4272 35.5167   4
  -7 -13  -3 -31.891 30.8098   1
  -7 -13  -3 8.38092 29.1059   4
   7  13   3 -20.625 25.4780   5
   7  13   3 40.7956 24.4597   3
 -22   0   4 61.1491 22.8350   1
 -22   0   4 79.7374 26.8936   6
 -22   0   4 91.0226 26.8309   4
 -20   0   4 155.091 24.9505   7
 -20   0   4 205.536 33.9593   4
 -20   0   4 166.132 27.4944   1
 -20   0   4 200.946 30.7681   6
 -18   0   4 297.480 37.0135   4
 -18   0   4 413.704 37.7023   6
 -18   0   4 371.093 31.2433   7
 -18   0   4 360.495 34.1655   1
 -16   0   4 1030.74 49.2585   6
 -16   0   4 1079.96 55.9325   4
 -16   0   4 1064.31 48.0823   7
 -14   0   4 206.556 23.3888   7
 -14   0   4 269.614 30.8602   4
 -12   0   4 601.615 35.9464   4
  12   0  -4 565.767 34.2607   2
 -12   0   4 576.010 33.3500   7
  10   0  -4 660.097 33.4231   2
 -10   0   4 693.602 34.7657   7
 -10   0   4 618.482 35.1599   4
   8   0  -4 1976.24 61.5536   2
  -8   0   4 1982.10 63.2227   4
  -8   0   4 1919.50 62.7906   7
  -8   0   4 2025.66 62.2883   3
  -6   0   4 4902.18 124.985   3
  -6   0   4 4933.39 124.554   5
  -6   0   4 4817.75 123.660   4
   6   0  -4 4763.68 123.370   2
  -6   0   4 4831.24 122.902   2
  -6   0   4 4874.47 126.440   7
   4   0  -4 1615.06 47.8677   4
  -4   0   4 1521.04 50.7514   7
   4   0  -4 1508.86 48.1549   2
  -4   0   4 1552.21 47.9077   4
  -4   0   4 1582.42 47.5472   2
  -4   0   4 1528.13 48.3003   5
  -2   0   4 1837.09 56.0871   7
  -2   0   4 1809.43 55.1606   4
  -2   0   4 1976.61 54.3157   5
   2   0  -4 1894.04 54.0454   2
  -2   0   4 1936.52 43.7485   1
  -2   0   4 1919.11 52.8143   6
  -2   0   4 1872.07 53.6129   2
   2   0  -4 1868.52 55.0452   4
   0   0  -4 823.077 31.1895   2
   0   0   4 861.725 31.6982   7
   0   0  -4 863.680 31.6762   6
   0   0   4 935.495 31.6957   6
   0   0  -4 883.590 35.4996   4
   0   0   4 902.663 29.1830   5
   0   0   4 858.254 35.1692   4
   0   0  -4 862.115 24.0547   1
  -2   0  -4 3418.95 89.8929   6
  -2   0  -4 3502.85 85.2302   1
  -2   0  -4 3412.69 94.9896   4
   2   0   4 3431.18 86.6521   7
   2   0   4 3503.16 89.5239   6
   2   0   4 3568.12 84.0020   5
  -4   0  -4 2257.70 72.0330   4
   4   0   4 2270.12 57.9330   7
  -4   0  -4 2254.15 66.1210   6
   4   0   4 2269.41 54.3299   5
  -4   0  -4 2307.57 62.6748   1
   4   0   4 2395.61 65.5870   6
  -6   0  -4 3045.85 83.8702   1
  -6   0  -4 2996.19 93.1098   4
   6   0   4 3225.15 89.4818   6
  -6   0  -4 3007.53 85.8924   6
  -8   0  -4 1886.85 60.1226   1
  -8   0  -4 1748.78 59.7133   6
  10   0   4 1088.88 48.8559   3
 -10   0  -4 1171.85 48.0482   1
 -10   0  -4 1161.00 47.5927   6
 -12   0  -4 769.656 42.9499   6
  12   0   4 635.547 39.0924   3
 -12   0  -4 676.870 39.2366   1
 -14   0  -4 223.915 29.5597   6
  14   0   4 224.214 29.0443   3
 -14   0  -4 250.725 30.3775   1
 -16   0  -4 443.913 42.0555   6
 -16   0  -4 490.785 38.4721   1
  16   0   4 423.142 37.1962   3
 -18   0  -4 103.533 25.7490   1
  18   0   4 194.021 30.3159   3
 -18   0  -4 106.573 27.6194   6
 -20   0  -4 108.687 31.2706   6
  20   0   4 86.4905 25.1391   3
 -20   0  -4 98.0094 26.5770   1
 -21  -1   4 108.435 29.1268   4
 -21  -1   4 59.0532 33.3006   7
 -21  -1   4 128.252 25.9606   1
 -21  -1   4 118.068 27.4340   6
 -21   1   4 145.491 28.7825   1
 -21   1   4 109.033 28.5341   6
 -21   1   4 163.077 30.9803   4
 -19  -1   4 204.103 29.1532   6
 -19  -1   4 236.021 27.7868   7
 -19  -1   4 198.786 32.3774   4
 -19  -1   4 154.336 26.2160   1
 -19   1   4 291.906 36.9197   4
 -19   1   4 241.952 32.5450   6
 -19   1   4 226.641 28.4281   7
 -17  -1   4 506.770 35.4720   1
 -17  -1   4 589.851 44.5118   4
 -17  -1   4 530.820 36.2741   7
 -17  -1   4 542.279 36.7826   6
 -17   1   4 573.991 39.7876   6
 -17   1   4 569.237 37.1175   7
 -15  -1   4 607.135 34.9953   1
 -15  -1   4 601.534 42.6037   4
 -15  -1   4 570.923 35.2428   6
 -15  -1   4 634.434 36.4318   7
 -15   1   4 687.499 37.4324   7
 -13  -1   4 328.831 27.3974   7
 -13  -1   4 387.017 25.6238   1
 -13  -1   4 338.493 26.8799   6
 -13  -1   4 338.224 31.5442   4
  13   1  -4 391.627 30.6339   2
 -13   1   4 344.211 30.8685   4
 -13   1   4 364.491 28.7192   7
 -11  -1   4 630.016 29.1198   1
 -11  -1   4 629.194 37.2181   4
  11   1  -4 592.655 34.0925   5
  11   1  -4 610.310 34.1505   2
 -11   1   4 623.070 34.1016   4
 -11   1   4 633.496 34.1341   7
  -9  -1   4 972.608 34.4115   1
   9  -1  -4 929.261 40.4399   2
  -9  -1   4 905.409 42.5727   4
   9   1  -4 982.201 39.0378   2
  -9   1   4 1004.06 39.9552   3
  -9   1   4 983.391 41.5143   7
  -9   1   4 975.324 38.7989   4
   9   1  -4 866.823 39.5819   5
  -7  -1   4 2383.01 63.3262   1
  -7  -1   4 2445.71 71.2633   5
  -7  -1   4 2408.45 68.8508   2
  -7  -1   4 2318.86 71.2867   3
   7  -1  -4 2396.58 70.7510   2
  -7  -1   4 2351.20 73.7787   4
   7   1  -4 2555.86 71.0803   2
   7   1  -4 2423.52 72.0296   5
  -7   1   4 2381.03 71.8414   7
  -7   1   4 2390.40 69.9170   2
  -7   1   4 2362.03 69.9101   3
  -7   1   4 2424.65 67.2563   4
  -7   1   4 2337.84 70.3526   5
   5  -1  -4 2480.18 70.8186   2
  -5  -1   4 2489.24 62.1887   1
  -5  -1   4 2446.12 71.9830   3
  -5  -1   4 2614.57 71.7191   5
  -5  -1   4 2487.79 73.9300   4
  -5  -1   4 2605.45 70.2393   2
  -5   1   4 2671.36 70.5914   2
   5   1  -4 2572.14 73.3514   4
   5   1  -4 2480.80 70.6772   2
  -5   1   4 2374.14 72.1507   7
   5   1  -4 2439.10 71.5298   5
  -5   1   4 2520.05 66.2066   4
  -5   1   4 2539.04 71.2777   5
  -5   1   4 2579.66 65.1667   1
  -3  -1   4 1464.01 49.6184   4
  -3  -1   4 1485.50 35.2660   1
  -3  -1   4 1500.14 42.7428   6
  -3  -1   4 1546.96 46.7534   5
   3  -1  -4 1502.77 46.5068   2
  -3  -1   4 1548.88 46.4660   2
   3  -1  -4 1540.74 42.3225   4
  -3   1   4 1482.05 46.2222   5
   3   1  -4 1541.33 49.6616   4
   3   1  -4 1514.24 47.5397   2
  -3   1   4 1460.54 42.2841   4
   3   1  -4 1532.19 47.9496   5
  -3   1   4 1480.41 45.6686   6
  -3   1   4 1489.81 45.6503   2
  -3   1   4 1524.39 40.0724   1
  -3   1   4 1449.63 48.7362   7
  -1  -1   4 1256.40 38.9427   5
   1  -1  -4 1239.52 39.2883   4
  -1  -1   4 1247.36 45.8936   4
   1  -1  -4 1208.09 38.7914   2
   1  -1  -4 1346.62 41.4511   7
   1  -1  -4 1269.88 41.4924   6
   1  -1  -4 1272.43 34.2254   1
  -1  -1   4 1231.25 37.5209   6
  -1   1   4 1257.17 39.3655   4
   1   1  -4 1221.43 44.8751   4
   1   1  -4 1182.12 38.7146   5
  -1   1   4 1307.28 40.7750   6
  -1   1   4 1248.13 33.6957   1
  -1   1   4 1304.01 39.2603   2
   1   1  -4 1197.58 39.9168   2
   1   1  -4 1217.03 38.0374   6
  -1   1   4 1223.48 41.5881   7
  -1  -1  -4 1428.90 46.4148   4
  -1  -1  -4 1396.49 39.3614   1
  -1  -1  -4 1415.81 45.4419   6
   1  -1   4 1370.06 39.2889   5
   1  -1   4 1461.52 42.0468   6
  -1  -1  -4 1373.61 42.0579   7
   1  -1   4 1359.67 51.4126   4
  -1  -1  -4 1357.74 41.0569   2
  -1   1  -4 1400.48 42.8023   6
   1   1   4 1472.27 43.9118   6
   1   1   4 1347.77 42.6917   7
   1   1   4 1442.05 38.9707   1
  -1   1  -4 1365.94 39.5997   5
  -1   1  -4 1362.26 49.5207   4
  -3  -1  -4 1243.38 39.2420   1
  -3  -1  -4 1262.77 36.8950   7
  -3  -1  -4 1298.98 43.1263   6
  -3  -1  -4 1243.12 46.0140   4
   3  -1   4 1225.33 49.1023   4
   3  -1   4 1269.48 40.5680   6
   3  -1   4 1273.47 33.7430   5
  -3   1  -4 1301.52 50.3341   4
   3   1   4 1253.23 41.5306   6
   3   1   4 1224.65 37.4885   7
  -3   1  -4 1248.93 41.9612   6
  -3   1  -4 1240.47 33.5864   5
  -5  -1  -4 2452.14 70.0419   1
  -5  -1  -4 2484.15 73.5100   6
   5  -1   4 2616.91 72.2153   6
  -5   1  -4 2651.79 73.3674   6
   5   1   4 2449.81 71.4112   6
  -5   1  -4 2587.43 81.6682   4
  -7  -1  -4 1980.76 62.9919   6
  -7  -1  -4 2065.66 62.4656   1
   7   1   4 1968.69 46.4690   5
  -7   1  -4 1925.54 62.1372   6
  -9  -1  -4 761.096 38.8036   6
  -9  -1  -4 730.381 35.6367   1
   9   1   4 772.274 39.7319   3
  -9   1  -4 732.431 38.1158   6
 -11  -1  -4 603.427 36.3914   6
 -11  -1  -4 590.812 36.6028   1
  11  -1   4 630.080 36.5262   3
  11   1   4 559.680 38.7214   3
 -11   1  -4 572.614 35.7047   6
 -13  -1  -4 315.654 33.6922   6
  13  -1   4 359.417 30.7252   3
 -13  -1  -4 301.434 30.8031   1
 -13   1  -4 362.336 33.9802   6
  13   1   4 289.939 32.1006   3
 -15  -1  -4 353.835 35.6623   6
  15  -1   4 368.586 33.7866   3
 -15  -1  -4 314.807 33.4113   1
 -15   1  -4 337.149 34.8390   6
  15   1   4 383.608 38.7151   3
 -17  -1  -4 208.443 32.3079   1
  17  -1   4 268.079 31.0029   3
 -17  -1  -4 289.678 37.1788   6
 -17   1  -4 179.080 30.0672   1
  17   1   4 288.149 35.2976   3
 -17   1  -4 232.068 34.8714   6
 -19  -1  -4 127.127 28.3642   1
 -19  -1  -4 104.030 29.1501   6
  19  -1   4 100.697 23.3984   3
 -19   1  -4 123.604 30.1894   6
 -19   1  -4 93.9609 26.9615   1
  19   1   4 95.7762 26.8326   3
 -21  -1  -4 66.7493 27.1161   1
 -21  -1  -4 71.6115 29.3788   6
 -21   1  -4 79.1968 29.5911   6
 -21   1  -4 68.4310 28.6206   1
  21   1   4 98.1046 27.0890   3
 -22  -2   4 80.2969 23.1216   6
 -22  -2   4 48.0057 24.4452   4
 -22  -2   4 56.7679 24.2384   1
 -22   2   4 56.3417 27.5387   6
 -20  -2   4 80.6304 20.6858   7
 -20  -2   4 117.029 30.7824   4
 -20  -2   4 97.6247 22.8545   1
 -20  -2   4 83.1848 22.5481   6
 -20   2   4 62.7630 21.2827   7
 -20   2   4 81.3760 25.8331   6
 -18  -2   4 377.181 40.1283   4
 -18  -2   4 311.834 31.5173   6
 -18  -2   4 272.302 29.9981   1
 -18  -2   4 288.961 29.9803   7
 -18   2   4 309.469 31.0369   7
 -18   2   4 299.285 34.2780   6
 -16  -2   4 261.503 27.9129   7
 -16  -2   4 220.049 32.7956   4
 -16  -2   4 234.614 24.9993   6
 -16  -2   4 256.890 27.4199   1
  16   2  -4 283.310 32.2786   5
 -16   2   4 261.686 28.3894   7
 -14  -2   4 634.844 33.9018   1
 -14  -2   4 622.425 42.9193   4
 -14  -2   4 579.177 31.6222   6
  14   2  -4 530.059 33.2525   2
  14   2  -4 615.049 37.2436   5
 -14   2   4 565.352 35.4118   7
 -12  -2   4 279.272 22.6617   1
 -12  -2   4 250.066 22.1779   6
 -12  -2   4 284.898 30.3315   4
  12   2  -4 282.603 26.9279   2
 -12   2   4 276.500 27.0243   7
  12   2  -4 253.099 27.5252   5
 -10  -2   4 696.034 39.7729   4
 -10  -2   4 736.497 31.6621   1
 -10   2   4 803.981 34.2800   4
 -10   2   4 769.716 38.5589   3
  10   2  -4 814.877 38.4633   5
  10   2  -4 719.774 35.4278   2
 -10   2   4 847.696 39.0699   7
  -8  -2   4 1396.89 42.9122   1
  -8  -2   4 1304.72 53.5875   4
   8  -2  -4 1388.77 49.8037   2
  -8   2   4 1384.34 42.9464   4
  -8   2   4 1395.31 51.3357   7
  -8   2   4 1376.90 47.2783   3
   8   2  -4 1332.43 47.4449   2
   8   2  -4 1328.78 50.1253   5
   6  -2  -4 916.261 36.7244   2
  -6  -2   4 1003.88 31.2832   1
  -6  -2   4 1026.03 38.5894   5
   6  -2  -4 983.060 38.5756   7
  -6  -2   4 937.564 41.7759   4
  -6  -2   4 998.673 36.8017   2
  -6  -2   4 937.347 38.9306   3
  -6   2   4 967.155 35.1229   1
  -6   2   4 967.599 36.5309   2
   6   2  -4 903.805 35.7632   2
   6   2  -4 1028.12 42.2152   4
   6   2  -4 956.949 38.7589   5
  -6   2   4 960.804 29.3372   4
  -6   2   4 1036.16 41.6681   7
  -4  -2   4 1963.31 52.4063   6
  -4  -2   4 1962.44 60.7146   3
  -4  -2   4 2093.27 58.7904   2
   4  -2  -4 2055.57 59.0847   2
  -4  -2   4 1993.75 64.6424   4
   4  -2  -4 2033.16 61.1234   7
  -4  -2   4 2067.37 50.7866   1
  -4  -2   4 2022.52 59.8904   5
  -4   2   4 1974.62 61.6495   7
  -4   2   4 2034.23 58.1399   2
  -4   2   4 2017.09 48.1293   4
   4   2  -4 1954.95 58.8217   2
  -4   2   4 2020.83 55.4121   1
   4   2  -4 1986.50 63.5626   4
   4   2  -4 1980.70 60.2059   5
  -2  -2   4 864.148 23.6215   1
   2  -2  -4 863.422 31.1662   2
  -2  -2   4 852.691 38.9679   4
  -2  -2   4 857.852 32.8177   5
  -2  -2   4 867.316 27.3272   6
   2  -2  -4 843.723 29.3507   1
   2  -2  -4 886.849 26.2542   4
   2  -2  -4 820.581 33.0376   7
  -2   2   4 855.256 33.6482   6
  -2   2   4 877.276 34.4190   7
   2   2  -4 812.635 36.9939   4
  -2   2   4 880.180 28.6093   1
   2   2  -4 853.866 27.4392   6
   2   2  -4 853.950 23.1569   1
   2   2  -4 864.173 33.8077   2
  -2   2   4 846.915 30.8772   2
   2   2  -4 823.712 31.9793   5
   0  -2  -4 1398.10 41.0310   1
   0  -2  -4 1364.23 40.4524   2
   0  -2   4 1413.72 39.6493   6
   0  -2  -4 1354.81 42.2755   4
   0  -2  -4 1365.21 43.4807   7
   0  -2  -4 1347.36 44.7266   6
   0  -2   4 1385.77 53.7884   4
   0  -2   4 1414.63 42.1965   5
   0   2  -4 1362.80 50.5431   4
   0   2   4 1415.92 40.5176   2
   0   2   4 1337.08 40.0503   1
   0   2   4 1339.83 44.8365   7
   0   2   4 1344.12 44.3547   6
   0   2  -4 1458.78 37.0283   1
   0   2  -4 1353.44 41.7955   5
   0   2  -4 1389.23 40.1462   6
  -2  -2  -4 1062.41 36.4489   1
  -2  -2  -4 1089.84 36.3611   7
   2  -2   4 1143.63 35.9638   6
   2  -2   4 1091.96 33.4744   5
  -2  -2  -4 1056.92 39.0550   6
   2  -2   4 1131.93 49.6749   4
  -2  -2  -4 1096.80 33.3692   2
  -2   2  -4 1090.51 46.4576   4
   2   2   4 1145.09 35.7883   1
  -2   2  -4 1106.44 33.5827   5
  -2   2  -4 1056.90 36.4281   6
   2   2   4 1107.57 38.9491   6
  -4  -2  -4 2340.61 60.8208   7
  -4  -2  -4 2250.77 64.4569   1
   4  -2   4 2256.09 63.5689   6
   4  -2   4 2265.38 77.4882   4
  -4  -2  -4 2328.19 68.1086   6
   4   2   4 2320.25 66.0213   6
  -4   2  -4 2295.92 76.3056   4
  -4   2  -4 2257.27 57.0264   5
  -4   2  -4 2173.45 64.6602   6
   4   2   4 2281.94 64.0082   1
  -6  -2  -4 695.851 32.7803   1
  -6  -2  -4 679.373 34.2333   6
  -6  -2  -4 713.030 24.4071   7
   6  -2   4 761.061 32.1799   6
  -6   2  -4 689.579 19.6178   5
  -6   2  -4 700.557 33.4708   6
  -8  -2  -4 469.446 29.8345   1
  -8  -2  -4 440.623 30.7896   6
  -8  -2  -4 428.705 16.8857   7
   8   2   4 484.957 33.6226   3
   8   2   4 445.070 17.3500   5
  -8   2  -4 408.880 29.3880   6
 -10  -2  -4 352.013 30.8422   6
 -10  -2  -4 302.672 11.1797   7
 -10  -2  -4 315.124 28.4071   1
  10  -2   4 312.652 28.0876   3
  10   2   4 290.733 13.7921   5
 -10   2  -4 304.282 28.4978   6
  10   2   4 300.940 33.3148   3
 -12  -2  -4 164.921 24.2631   6
 -12  -2  -4 185.060 25.6664   1
  12  -2   4 186.591 22.7471   3
  12   2   4 182.118 11.2514   5
 -12   2  -4 160.590 24.8083   6
  12   2   4 175.095 28.1366   3
  14  -2   4 546.295 32.4953   3
 -14  -2  -4 415.692 36.8669   1
 -14  -2  -4 413.995 35.2813   6
 -14   2  -4 419.074 35.6483   6
  14   2   4 446.601 39.9844   3
 -16  -2  -4 194.430 30.3544   1
  16  -2   4 259.142 27.3232   3
 -16  -2  -4 212.940 31.3973   6
  16   2   4 182.869 32.1433   3
 -16   2  -4 223.572 33.0374   6
 -18  -2  -4 132.470 30.4263   6
 -18  -2  -4 171.477 31.1965   1
  18  -2   4 210.121 26.3219   3
 -18   2  -4 112.964 27.7636   6
  18   2   4 174.615 32.2847   3
 -20  -2  -4 59.1311 24.5819   1
 -20  -2  -4 81.8287 28.3615   6
  20   2   4 122.806 29.4607   3
 -20   2  -4 85.0135 29.1609   6
 -20   2  -4 69.3405 25.6612   1
 -21  -3   4 24.2597 23.7902   4
 -21  -3   4 17.0597 17.6660   6
 -21  -3   4 21.7348 19.5196   1
 -21  -3   4 -4.7948 26.5625   7
 -21   3   4 25.2449 23.8200   6
 -19  -3   4 163.261 24.7846   7
 -19  -3   4 129.251 23.6763   1
 -19  -3   4 117.097 21.5234   6
 -19  -3   4 108.892 29.7090   4
 -19   3   4 111.411 25.2304   6
 -19   3   4 85.8219 23.4150   7
 -17  -3   4 138.628 20.8862   6
 -17  -3   4 107.634 26.7653   4
 -17  -3   4 108.142 20.9451   1
 -17   3   4 100.876 23.2460   6
  17   3  -4 151.924 28.4649   5
  17   3  -4 126.551 27.9951   3
 -17   3   4 66.0294 20.2722   7
 -15  -3   4 232.500 34.3808   4
 -15  -3   4 188.996 21.6936   6
 -15  -3   4 187.372 22.7933   1
  15   3  -4 190.392 30.5512   3
  15   3  -4 192.178 27.2892   5
 -15   3   4 204.002 25.6065   7
 -13  -3   4 415.548 24.9453   6
 -13  -3   4 358.042 26.5609   1
 -13  -3   4 360.405 36.2528   4
  13   3  -4 414.666 34.6550   3
  13   3  -4 428.976 30.3535   2
  13   3  -4 403.931 33.9437   5
 -13   3   4 432.768 33.1651   7
 -11  -3   4 186.138 17.8354   6
 -11  -3   4 134.885 24.4267   4
 -11  -3   4 123.695 16.8017   1
  11   3  -4 144.032 21.7920   5
  11   3  -4 140.976 20.2307   2
  11   3  -4 182.926 26.9366   3
 -11   3   4 166.667 23.6501   7
  -9  -3   4 841.982 30.0332   6
  -9  -3   4 816.864 32.8518   1
  -9  -3   4 859.926 45.6764   4
  -9   3   4 789.969 40.3760   7
   9   3  -4 797.844 34.8668   2
  -9   3   4 816.472 34.6583   3
   9   3  -4 823.617 38.9478   5
  -7  -3   4 1024.51 35.5166   1
  -7  -3   4 1094.96 39.2008   2
  -7  -3   4 1127.72 50.1107   4
   7   3  -4 1078.83 43.3280   5
  -7   3   4 1116.49 30.3684   4
  -7   3   4 1038.75 39.6404   1
  -7   3   4 997.633 43.2922   7
  -7   3   4 1096.12 30.0541   4
   7   3  -4 1040.52 39.8907   2
  -5  -3   4 1360.33 54.8098   4
   5  -3  -4 1413.87 47.1583   2
  -5  -3   4 1370.79 49.0423   5
  -5  -3   4 1406.54 37.9308   6
   5  -3  -4 1448.62 49.1903   7
  -5  -3   4 1401.93 50.1634   3
  -5  -3   4 1410.53 40.9854   1
   5   3  -4 1339.14 45.8770   2
   5   3  -4 1428.07 49.9930   5
   5   3  -4 1421.98 53.5063   4
  -5   3   4 1388.79 51.4815   7
  -5   3   4 1452.18 46.6492   2
   5   3  -4 1459.88 40.8992   1
  -5   3   4 1430.04 45.9013   1
  -3  -3   4 609.659 19.5433   6
  -3  -3   4 609.794 30.2686   3
  -3  -3   4 618.112 28.5600   5
   3  -3  -4 574.445 26.3878   2
  -3  -3   4 628.652 38.2590   4
   3  -3  -4 567.893 27.0619   1
   3  -3  -4 642.078 30.9715   7
  -3  -3   4 590.242 21.8489   1
   3   3  -4 593.090 35.1295   4
   3   3  -4 583.605 28.5890   5
  -3   3   4 601.810 27.2286   1
   3   3  -4 583.773 29.3944   2
   3   3  -4 629.322 21.5644   1
  -3   3   4 579.123 25.1389   2
  -3   3   4 564.444 30.7321   7
  -3   3   4 627.985 28.9668   6
   1  -3  -4 663.311 30.5487   7
  -1  -3   4 633.356 28.8979   5
  -1  -3   4 660.386 21.5164   6
   1  -3  -4 620.903 24.8547   2
   1  -3  -4 631.718 23.5469   4
   1  -3  -4 659.809 28.1398   1
  -1  -3   4 656.151 40.3691   4
   1   3  -4 626.191 22.7027   1
  -1   3   4 628.306 24.5533   2
   1   3  -4 646.600 35.2902   4
  -1   3   4 656.008 26.6323   1
   1   3  -4 653.695 22.3454   6
  -1   3   4 588.505 30.6231   7
  -1   3   4 640.186 29.8328   6
   1   3  -4 645.512 29.2388   5
   1  -3   4 993.733 47.1709   4
   1  -3   4 948.514 30.7271   6
  -1  -3  -4 910.842 36.7043   6
  -1  -3  -4 932.249 29.7689   2
  -1  -3  -4 923.953 35.7860   7
  -1  -3  -4 943.989 34.8063   1
   1   3   4 1041.12 34.6182   1
  -1   3  -4 927.048 31.6378   1
  -1   3  -4 917.803 43.8432   4
   1   3   4 954.360 29.9010   2
  -1   3  -4 935.953 33.4187   5
  -1   3  -4 979.658 31.4324   6
   1   3   4 983.633 37.3556   6
   3  -3   4 1255.14 54.5820   4
  -3  -3  -4 1275.42 42.5889   7
  -3  -3  -4 1294.11 46.1087   6
  -3  -3  -4 1268.22 44.2068   1
  -3  -3  -4 1285.43 35.8186   2
   3  -3   4 1305.82 40.6589   6
  -3   3  -4 1242.90 52.8810   4
  -3   3  -4 1381.12 42.1200   6
   3   3   4 1304.54 44.8375   6
   3   3   4 1286.48 42.8660   1
  -3   3  -4 1257.02 39.1355   5
  -5  -3  -4 562.478 30.4416   6
  -5  -3  -4 586.268 30.6287   1
  -5  -3  -4 612.683 21.0427   2
   5  -3   4 583.298 27.4410   6
   5  -3   4 560.771 38.9331   4
  -5  -3  -4 607.718 26.5677   7
  -5   3  -4 607.292 22.5260   5
   5   3   4 594.375 29.5438   1
  -5   3  -4 595.293 29.5108   6
  -7  -3  -4 252.430 23.9731   1
  -7  -3  -4 314.447 19.0371   7
  -7  -3  -4 244.318 23.1761   6
  -7   3  -4 325.029 26.5560   6
  -7   3  -4 281.396 14.3818   5
  -9  -3  -4 358.331 30.9082   1
  -9  -3  -4 310.146 28.9617   6
  -9  -3  -4 315.034 18.4736   7
   9   3   4 330.531 18.1703   5
  -9   3  -4 311.200 14.3397   5
   9   3   4 390.356 36.9031   3
  -9   3  -4 333.349 29.0034   6
 -11  -3  -4 75.3965 10.1818   7
  11  -3   4 81.7587 15.9393   3
 -11  -3  -4 51.0254 19.5650   6
 -11  -3  -4 34.7286 17.0649   1
  11   3   4 82.3980 11.1281   5
 -11   3  -4 81.5488 20.8075   6
  11   3   4 90.4699 23.4071   3
 -11   3  -4 83.1286 7.12647   5
 -13  -3  -4 405.888 36.7750   1
  13  -3   4 405.564 26.9536   3
 -13  -3  -4 401.760 36.1568   6
 -13   3  -4 434.193 37.0599   6
  13   3   4 372.248 38.8155   3
  13   3   4 418.673 19.4174   5
 -15  -3  -4 225.831 31.6707   6
 -15  -3  -4 154.184 27.1402   1
  15  -3   4 189.253 21.9175   3
  15   3   4 137.825 28.2534   3
 -15   3  -4 212.614 30.3953   6
 -17  -3  -4 58.7704 24.7937   6
 -17  -3  -4 96.7490 26.8458   1
  17   3   4 60.3017 24.6907   3
 -17   3  -4 54.5067 26.5256   6
 -19  -3  -4 49.7971 23.9524   1
 -19  -3  -4 59.5981 28.7105   6
  19   3   4 60.1934 26.8781   3
 -19   3  -4 83.7061 30.9960   6
 -20  -4   4 -8.9983 20.8800   4
 -20  -4   4 60.6159 18.3462   7
 -20  -4   4 29.6607 19.5369   1
 -20  -4   4 16.3283 16.5086   6
  20   4  -4 31.5208 21.3254   5
 -20   4   4 42.9501 24.7910   6
 -18  -4   4 31.7053 23.2362   4
 -18  -4   4 54.2528 20.4429   1
 -18  -4   4 22.9213 14.7350   6
 -18   4   4 28.3375 19.9163   6
  18   4  -4 34.8313 26.0704   3
  18   4  -4 57.3944 23.6843   5
 -16  -4   4 74.0818 16.2322   6
 -16  -4   4 85.2122 27.6702   4
 -16  -4   4 104.919 20.9967   1
  16   4  -4 72.7211 25.0369   3
 -16   4   4 134.237 26.2553   7
  16   4  -4 85.7770 24.6607   5
 -14  -4   4 66.7748 14.9867   6
 -14  -4   4 87.6323 18.9239   1
 -14  -4   4 90.1240 26.9661   4
  14   4  -4 52.5185 17.1937   2
  14   4  -4 51.6334 20.2857   5
 -14   4   4 67.3899 20.5979   7
  14   4  -4 72.1245 22.8366   3
 -12  -4   4 135.194 19.0019   1
 -12  -4   4 123.028 15.5133   6
 -12  -4   4 95.4508 26.0523   4
 -12   4   4 123.787 22.5586   7
 -12   4   4 118.343 16.7933   4
  12   4  -4 94.5044 23.1527   3
  12   4  -4 119.294 22.6876   5
  12   4  -4 111.664 19.4984   2
 -10  -4   4 94.3327 15.0892   1
 -10  -4   4 103.997 13.1273   6
 -10  -4   4 103.487 25.1045   4
  10   4  -4 127.362 24.4494   3
 -10   4   4 114.829 16.1292   3
 -10   4   4 126.803 23.6376   7
  10   4  -4 123.451 18.5021   2
  10   4  -4 77.2335 19.3167   5
 -10   4   4 125.789 15.0208   4
  -8  -4   4 329.154 32.0404   4
  -8  -4   4 334.115 16.1750   6
  -8  -4   4 333.896 21.7922   1
  -8   4   4 253.186 26.3844   7
  -8   4   4 305.424 15.7333   4
   8   4  -4 348.768 28.9558   3
   8   4  -4 313.427 28.1937   5
   8   4  -4 290.597 22.8407   2
  -6  -4   4 610.638 26.2496   1
  -6  -4   4 638.840 18.8805   6
  -6  -4   4 622.125 41.0131   4
  -6  -4   4 588.663 18.7925   6
   6   4  -4 591.237 29.1074   2
   6   4  -4 606.664 25.7923   1
  -6   4   4 534.767 33.4568   7
  -6   4   4 588.430 31.0895   1
   6   4  -4 588.337 32.2594   5
  -4  -4   4 636.635 31.7301   3
  -4  -4   4 710.978 40.8641   4
   4  -4  -4 594.562 30.8365   1
  -4  -4   4 702.639 27.2098   1
  -4  -4   4 707.841 18.1412   6
   4   4  -4 651.354 32.8060   5
   4   4  -4 693.607 26.3969   1
  -4   4   4 763.075 30.2406   2
   4   4  -4 613.747 31.0219   2
  -4   4   4 779.154 32.6884   1
  -2  -4   4 547.580 28.1695   5
  -2  -4   4 521.889 15.9831   6
   2  -4  -4 525.376 30.4443   7
  -2  -4   4 492.056 27.1256   3
   2  -4  -4 485.282 23.3791   2
   2  -4  -4 540.385 17.9652   4
  -2  -4   4 522.898 36.8634   4
   2  -4  -4 517.065 28.6410   1
  -2  -4   4 561.150 24.6371   1
  -2   4   4 543.741 27.3697   6
   2   4  -4 512.109 22.4031   1
  -2   4   4 532.875 26.5287   1
  -2   4   4 509.966 23.7046   2
   2   4  -4 505.705 33.2774   4
   2   4  -4 514.695 29.0440   5
   0  -4   4 21.9965 7.31154   6
   0  -4  -4 16.8522 13.1844   7
   0  -4  -4 30.4325 8.85006   2
   0  -4   4 37.0156 18.9198   4
   0  -4   4 28.3455 11.1444   3
   0  -4  -4 22.7293 12.3595   1
   0   4  -4 32.5852 8.07055   6
   0   4   4 26.6663 11.6975   1
   0   4  -4 32.8342 16.2981   4
   0   4  -4 22.0718 10.1115   1
   0   4   4 26.5575 8.85040   2
   0   4  -4 25.8280 12.3536   5
   0   4   4 39.9780 13.4350   6
   2  -4   4 485.703 41.9599   4
  -2  -4  -4 535.035 18.8534   2
  -2  -4  -4 483.138 28.0224   6
  -2  -4  -4 541.388 29.0901   7
   2  -4   4 470.421 21.1733   6
  -2  -4  -4 552.714 29.1207   1
  -2   4  -4 511.842 23.0410   6
  -2   4  -4 492.465 25.8419   1
   2   4   4 515.893 28.5659   6
  -2   4  -4 542.393 25.8479   5
   2   4   4 518.682 27.1516   1
  -4  -4  -4 449.884 29.0314   1
   4  -4   4 470.734 22.9193   6
  -4  -4  -4 452.051 26.6102   7
  -4  -4  -4 421.410 28.8004   6
   4  -4   4 413.901 40.8276   4
  -4  -4  -4 427.994 15.0747   2
  -4   4  -4 449.046 25.6766   1
  -4   4  -4 436.985 22.8480   5
  -4   4  -4 402.882 23.9182   6
  -6  -4  -4 228.628 24.2467   6
  -6  -4  -4 159.634 20.1364   1
  -6  -4  -4 230.570 20.7274   7
  -6  -4  -4 204.564 10.1737   2
   6  -4   4 194.467 28.6737   4
  -6   4  -4 225.317 21.8291   6
  -6   4  -4 192.735 16.8766   5
  -8  -4  -4 96.6414 18.5929   1
  -8  -4  -4 66.0522 18.3143   6
   8   4   4 62.0452 23.9335   3
  -8   4  -4 92.6153 19.1720   6
   8   4   4 86.2547 14.5908   5
  10  -4   4 63.6209 10.7428   7
 -10  -4  -4 57.3152 20.2459   6
  10  -4   4 64.8346 13.6805   3
 -10  -4  -4 91.2750 19.8459   1
  10   4   4 42.6929 24.6478   3
 -10   4  -4 65.3539 19.6523   6
  10   4   4 91.6824 13.8445   5
  12  -4   4 315.548 21.4154   3
 -12  -4  -4 277.604 31.9462   6
 -12  -4  -4 231.854 29.6047   1
  12   4   4 314.063 37.3227   3
  12   4   4 311.055 19.4974   5
 -12   4  -4 253.390 30.7857   6
 -14  -4  -4 118.426 25.4941   6
 -14  -4  -4 76.8542 24.1216   1
  14  -4   4 108.797 15.4850   3
 -14   4  -4 101.533 24.2029   6
  14   4   4 104.912 13.9039   5
  14   4   4 84.8014 27.7043   3
 -16  -4  -4 15.3913 22.5604   1
 -16  -4  -4 -12.045 19.6698   6
 -16   4  -4 35.4173 24.3924   6
  16   4   4 38.6122 23.3638   3
 -18  -4  -4 7.68141 20.9206   6
 -18  -4  -4 14.1870 22.7325   1
 -18   4  -4 36.7561 26.3214   6
  18   4   4 42.6472 25.4506   3
 -20  -4  -4 29.6652 27.0062   6
 -20  -4  -4 8.63073 23.7374   1
  20   4   4 28.9645 26.5039   3
 -20   4  -4 3.82242 26.0630   6
 -21  -5   4 28.4414 29.8060   4
 -21  -5   4 -12.499 20.8331   1
  21   5  -4 -11.094 20.3638   5
 -21   5   4 28.9276 24.0600   6
  21   5  -4 14.2785 25.4394   3
 -19  -5   4 0.62488 27.3316   4
 -19  -5   4 7.56819 18.6003   1
 -19   5   4 10.0376 19.7825   6
  19   5  -4 -12.456 25.1130   3
  19   5  -4 -4.7965 20.6498   5
 -17  -5   4 5.83753 25.1331   4
 -17  -5   4 16.5141 16.6439   1
 -17  -5   4 5.66835 13.0441   6
  17   5  -4 9.15125 21.5543   3
  17   5  -4 24.9811 19.3174   5
 -15  -5   4 10.1035 12.5789   6
 -15  -5   4 55.4966 17.4816   1
 -15  -5   4 -0.2162 22.6273   4
  15   5  -4 13.5229 19.5895   5
  15   5  -4 25.3200 24.1683   3
  15   5  -4 22.5629 15.8159   2
 -13  -5   4 15.4454 22.0950   4
 -13  -5   4 7.30582 13.3022   1
 -13  -5   4 0.12378 10.6744   6
  13   5  -4 -4.9107 16.5210   5
  13   5  -4 10.0671 13.6198   2
  13   5  -4 4.71670 22.2700   3
 -11  -5   4 42.3905 14.6484   1
 -11  -5   4 56.2610 25.9938   4
 -11  -5   4 48.8870 11.1050   6
  11   5  -4 53.6331 21.9383   3
 -11   5   4 27.6542 14.2404   4
  11   5  -4 59.0106 20.9219   5
  11   5  -4 31.6387 14.4499   2
 -11   5   4 57.3008 13.9289   3
  -9  -5   4 -6.6869 11.0120   1
  -9  -5   4 -0.6775 17.7087   4
  -9  -5   4 -9.0966 6.66331   6
   9   5  -4 -1.6825 15.7744   3
   9   5  -4 10.2579 16.7785   5
  -9   5   4 -18.182 7.26978   4
   9   5  -4 10.0326 12.1726   2
  -7  -5   4 104.174 23.2030   4
  -7  -5   4 126.144 7.50094   6
  -7  -5   4 153.078 17.4297   1
   7   5  -4 131.615 17.2626   2
   7   5  -4 115.379 15.5935   1
   7   5  -4 147.372 22.6580   5
   7   5  -4 110.226 21.3193   3
  -5  -5   4 36.8902 12.7399   1
  -5  -5   4 41.1095 18.6742   4
   5   5  -4 32.2358 13.6081   2
   5   5  -4 40.4485 15.2469   5
   5   5  -4 57.6952 11.8242   1
   3  -5  -4 31.2436 6.96089   4
   3  -5  -4 33.1516 14.2712   1
  -3  -5   4 23.9537 12.4828   3
  -3  -5   4 44.5080 12.7347   1
  -3  -5   4 22.6012 19.0049   4
   3   5  -4 33.6528 10.9975   1
  -3   5   4 42.3959 11.6390   2
   3   5  -4 30.5518 16.3599   5
   3   5  -4 39.6343 14.0934   2
  -3   5   4 21.1864 20.9109   1
  -1  -5   4 0.99527 10.8823   3
   1  -5  -4 12.6193 8.30958   4
  -1  -5   4 23.4521 11.9416   1
  -1  -5   4 0.02518 17.6013   4
   1  -5  -4 -10.902 12.6245   1
   1   5  -4 2.78455 5.06864   6
   1   5  -4 14.0972 10.3459   1
  -1   5   4 -0.0364 8.11948   2
  -1   5   4 -14.593 11.2156   1
   1   5  -4 -3.9301 13.5364   5
   1  -5   4 69.7599 24.3939   4
  -1  -5  -4 105.400 15.2648   4
   1  -5   4 123.961 15.1951   3
  -1  -5  -4 79.8384 16.2394   6
  -1  -5  -4 101.449 19.3283   1
   1   5   4 121.375 10.7085   2
  -1   5  -4 99.7639 11.5660   6
  -1   5  -4 77.6283 15.2008   5
  -1   5  -4 89.8310 14.8516   1
   3  -5   4 232.434 16.5755   3
  -3  -5  -4 268.220 27.8550   7
  -3  -5  -4 268.227 24.8674   6
  -3  -5  -4 235.282 22.9030   1
   3  -5   4 210.919 30.2435   4
  -3   5  -4 222.924 20.7124   1
  -3   5  -4 258.511 19.3494   6
  -3   5  -4 211.989 20.6934   5
  -5  -5  -4 75.6103 17.4876   1
   5  -5   4 77.6873 24.9693   4
  -5  -5  -4 77.5985 16.9497   6
  -5   5  -4 88.0064 15.5101   5
  -5   5  -4 106.265 16.5210   6
  -7  -5  -4 24.8364 15.9217   6
  -7  -5  -4 37.6408 16.9477   1
   7  -5   4 34.0497 23.0547   4
   7   5   4 63.9635 22.2592   3
  -7   5  -4 27.5319 14.9127   6
  -9  -5  -4 -9.3913 14.9494   1
   9  -5   4 16.7195 10.5762   3
  -9  -5  -4 18.4506 16.5294   6
   9   5   4 -4.8490 18.6733   3
  -9   5  -4 -5.0216 15.0039   6
   9   5   4 -6.2166 12.2344   5
  11  -5   4 120.781 12.9242   3
 -11  -5  -4 81.5788 20.5073   6
 -11  -5  -4 133.408 23.7422   1
  11  -5   4 89.3941 17.8476   7
  11   5   4 71.7747 25.4322   3
  11   5   4 132.643 17.2077   5
 -11   5  -4 90.4369 22.2811   6
 -13  -5  -4 41.0606 21.1977   1
  13  -5   4 25.5031 9.08705   3
 -13  -5  -4 20.3071 21.2119   6
  13   5   4 31.5834 11.7374   5
  13   5   4 18.7458 22.5828   3
 -13   5  -4 51.8292 21.7653   6
 -15  -5  -4 23.5377 19.8313   1
 -15  -5  -4 29.7521 21.1395   6
 -15   5  -4 29.2212 21.5406   6
  15   5   4 45.6222 25.0567   3
 -17  -5  -4 -5.3225 19.7054   6
 -17  -5  -4 -4.1330 19.4326   1
  17   5   4 -7.1086 21.3821   3
 -17   5  -4 3.67928 23.0077   6
 -19  -5  -4 -12.530 20.7330   1
 -19  -5  -4 -27.135 23.2655   6
 -19   5  -4 -17.549 22.4279   6
  19   5   4 13.4904 24.5754   3
 -20  -6   4 30.0406 23.0382   1
 -20  -6   4 16.7274 28.7961   4
  20   6  -4 17.0964 22.3887   5
 -20   6   4 -10.326 20.6544   6
  20   6  -4 11.6491 25.3604   3
 -18  -6   4 -36.012 16.9142   1
 -18  -6   4 -14.454 25.4413   4
  18   6  -4 32.4136 24.8599   3
  18   6  -4 38.9255 23.4315   5
 -16  -6   4 28.9414 18.9564   1
 -16  -6   4 0.42900 24.8557   4
  16   6  -4 -13.077 15.1398   2
  16   6  -4 -25.566 20.1657   3
  16   6  -4 5.20570 18.9561   5
 -14  -6   4 10.1716 15.8896   1
 -14  -6   4 -1.6998 23.5580   4
 -14  -6   4 -13.283 9.92624   6
  14   6  -4 21.6616 24.3315   3
  14   6  -4 18.1941 20.0826   5
  14   6  -4 -10.055 13.6599   2
 -12  -6   4 12.7588 23.1564   4
 -12  -6   4 -12.195 8.78037   6
 -12  -6   4 21.0464 15.4946   1
  12   6  -4 19.7537 18.9388   3
  12   6  -4 3.03584 19.1913   5
  12   6  -4 4.58852 13.1479   2
 -10  -6   4 15.2911 13.9864   1
 -10  -6   4 20.4495 21.8829   4
 -10   6   4 -9.1703 8.33660   4
  10   6  -4 -10.686 16.0289   5
 -10   6   4 4.74584 9.82636   3
  10   6  -4 10.1725 12.9876   2
  10   6  -4 28.6671 19.1703   3
  -8  -6   4 88.0562 16.8998   1
  -8  -6   4 67.4877 24.6433   4
   8   6  -4 88.9455 20.6001   3
   8   6  -4 77.7334 19.7036   5
   8   6  -4 110.510 17.6268   2
  -8   6   4 91.7396 9.45580   4
  -6  -6   4 6.28117 13.4985   1
  -6  -6   4 18.5962 19.3255   4
   6   6  -4 0.76117 15.1369   5
   6   6  -4 -2.7988 14.3634   3
   6   6  -4 13.3441 11.8351   2
   4  -6  -4 39.5629 8.08822   4
   4  -6  -4 38.9887 16.6378   1
  -4  -6   4 36.0818 14.6491   1
  -4  -6   4 47.3412 20.7797   4
   4   6  -4 29.6194 13.2361   2
   4   6  -4 43.6733 19.0395   5
  -4   6   4 30.2950 12.4785   2
   4   6  -4 44.4523 12.6997   1
  -2  -6   4 90.9980 23.8066   4
  -2  -6   4 154.367 19.7204   3
   2  -6  -4 118.341 13.3046   4
  -2  -6   4 130.916 18.7342   1
   2  -6  -4 114.311 19.3540   1
   2   6  -4 131.327 16.9274   1
   2   6  -4 146.189 23.1402   5
  -2   6   4 144.491 15.3664   2
   0  -6  -4 4.09450 9.86870   4
   0  -6  -4 8.41077 14.8029   1
   0  -6   4 -0.4594 10.4339   3
   0  -6   4 -3.8161 12.1151   1
   0  -6   4 28.2781 22.1062   4
   0   6  -4 12.0731 13.2239   5
   0   6   4 12.5161 7.56647   2
   0   6  -4 -5.9281 11.6120   1
   0   6  -4 8.94624 6.57278   6
  -2  -6  -4 9.26531 14.3664   6
  -2  -6  -4 0.50403 11.1105   4
  -2  -6  -4 0.42295 14.4416   1
   2  -6   4 18.3985 24.4948   4
   2  -6   4 -4.4227 8.92075   3
   2   6   4 3.16429 5.32788   2
  -2   6  -4 12.8468 9.55555   6
  -2   6  -4 4.22371 15.3442   5
  -4  -6  -4 23.8687 15.4512   1
  -4  -6  -4 22.0236 14.8089   4
   4  -6   4 15.6436 8.57537   3
   4  -6   4 52.4425 28.6622   4
  -4  -6  -4 17.6744 14.3313   6
  -4   6  -4 22.6196 15.1441   5
   4   6   4 -6.0362 18.8620   3
  -4   6  -4 28.3839 11.9104   6
  -6  -6  -4 38.2327 18.0432   6
   6  -6   4 3.15730 23.3836   4
   6  -6   4 23.3242 7.39382   3
  -6  -6  -4 16.9766 16.3428   1
  -6   6  -4 15.1095 14.0652   6
   6   6   4 26.9056 22.7964   3
   8  -6   4 76.0105 28.2123   4
   8  -6   4 86.6308 8.57497   3
  -8  -6  -4 69.0033 20.6109   1
  -8  -6  -4 77.8422 19.0569   6
  -8   6  -4 75.6094 18.2566   6
   8   6   4 87.0162 24.1157   3
 -10  -6  -4 22.5111 17.8262   1
  10  -6   4 10.6565 4.73854   3
 -10  -6  -4 24.6140 18.2332   6
  10   6   4 17.8566 14.4678   5
 -10   6  -4 8.01557 16.6552   6
  10   6   4 -10.222 17.6631   3
 -12  -6  -4 29.5970 21.0901   1
 -12  -6  -4 -5.2277 18.2034   6
 -12   6  -4 6.19354 18.5515   6
  12   6   4 -14.138 19.9999   3
  12   6   4 18.1169 12.9537   5
 -14  -6  -4 1.55821 21.1707   1
 -14  -6  -4 -6.5956 19.7865   6
  14   6   4 7.33539 11.1112   5
 -14   6  -4 14.1013 21.1747   6
  14   6   4 38.2938 24.4937   3
 -16  -6  -4 -7.1136 21.5410   1
 -16  -6  -4 15.8494 22.7273   6
  16   6   4 -17.623 20.4589   3
 -16   6  -4 -30.466 21.4182   6
 -18  -6  -4 -35.171 21.6058   6
 -18  -6  -4 -17.069 23.0151   1
 -18   6  -4 -3.4258 23.1965   6
  18   6   4 46.8212 25.9574   3
 -19  -7   4 15.9253 22.2595   1
 -19  -7   4 17.6897 30.5458   4
 -19   7   4 34.8754 22.8350   6
  19   7  -4 -3.2107 21.4000   5
  19   7  -4 12.8912 26.6903   3
 -17  -7   4 28.8526 21.5287   1
 -17  -7   4 39.3646 27.8400   4
  17   7  -4 18.5345 23.6144   5
  17   7  -4 54.1986 27.9849   3
 -15  -7   4 40.2363 29.2634   4
 -15  -7   4 31.4139 19.8845   1
  15   7  -4 43.2397 27.0251   3
  15   7  -4 4.04911 19.4888   5
  15   7  -4 16.9422 13.8916   2
 -13  -7   4 11.6381 23.1702   4
 -13  -7   4 56.6757 20.1945   1
  13   7  -4 6.07612 22.9297   3
  13   7  -4 1.45178 12.9435   2
  13   7  -4 16.4674 21.4723   5
 -11  -7   4 42.4486 18.2681   1
 -11  -7   4 -9.1263 22.9680   4
  11   7  -4 24.3523 21.6704   3
  11   7  -4 37.6985 20.0721   5
  11   7  -4 15.0949 13.5575   2
  -9  -7   4 24.6107 16.9808   1
  -9  -7   4 47.2751 25.0711   4
   9   7  -4 7.34440 17.3466   5
   9   7  -4 21.3781 13.3743   2
   9   7  -4 11.6552 20.1645   3
  -7  -7   4 197.442 23.6357   1
  -7  -7   4 159.737 30.1918   4
   7   7  -4 203.452 28.4087   5
   7   7  -4 162.941 26.5872   3
   7   7  -4 125.456 18.4579   2
  -5  -7   4 105.021 19.5738   1
   5  -7  -4 120.393 23.2888   1
   5  -7  -4 163.320 14.3027   4
  -5  -7   4 113.958 28.1288   4
   5   7  -4 124.297 22.7481   5
   5   7  -4 121.478 18.8965   2
   3  -7  -4 230.704 20.6956   4
   3  -7  -4 175.540 24.2525   1
  -3  -7   4 209.394 23.9055   1
  -3  -7   4 197.706 31.0204   4
   3   7  -4 297.966 31.8407   5
  -3   7   4 261.446 20.6117   2
  -1  -7   4 185.839 20.8193   3
   1  -7  -4 169.780 25.7273   1
   1  -7  -4 192.511 20.5203   4
  -1  -7   4 157.242 31.0129   4
  -1  -7   4 225.606 24.5290   1
  -1   7   4 211.567 17.0252   2
   1   7  -4 178.216 25.3052   5
  -1  -7  -4 55.2185 18.6728   1
   1  -7   4 60.3215 25.7628   4
   1  -7   4 95.2286 14.2126   3
  -1  -7  -4 84.7988 17.1595   4
  -1   7  -4 86.9034 10.6081   6
  -1   7  -4 70.4728 19.9472   5
   1   7   4 101.628 10.2356   2
   3  -7   4 22.2784 8.63125   3
   3  -7   4 12.4754 27.4135   4
  -3  -7  -4 -5.8036 13.1934   4
  -3  -7  -4 -17.577 17.0593   1
  -3   7  -4 21.8449 10.9669   6
   3   7   4 -0.5272 19.0807   3
  -3   7  -4 41.8294 18.3215   5
   5  -7   4 7.12623 6.42432   3
  -5  -7  -4 -3.4751 15.2739   6
  -5  -7  -4 -1.3897 15.3550   4
   5  -7   4 3.82042 25.1008   4
  -5  -7  -4 -0.0745 18.1802   1
   5   7   4 15.2871 18.9977   3
  -5   7  -4 21.4484 13.6886   6
  -7  -7  -4 206.086 29.1121   4
  -7  -7  -4 317.801 29.5031   6
   7  -7   4 271.041 10.6502   3
  -7  -7  -4 303.054 31.9349   1
   7  -7   4 189.067 33.0683   4
   7   7   4 208.694 31.5842   3
  -7   7  -4 230.637 25.0205   6
  -9  -7  -4 97.2292 22.9395   6
   9  -7   4 89.5903 29.2240   4
  -9  -7  -4 116.461 26.3410   1
   9   7   4 132.699 28.3583   3
  -9   7  -4 110.504 22.4782   6
   9   7   4 63.3646 20.3137   5
 -11  -7  -4 30.1443 20.6014   6
 -11  -7  -4 79.1662 24.8004   1
  11   7   4 25.4955 22.5467   3
  11   7   4 59.4127 18.2740   5
 -11   7  -4 33.2909 20.5829   6
 -13  -7  -4 -15.529 20.0969   1
 -13  -7  -4 -7.7127 19.6431   6
  13   7   4 5.32440 13.3035   5
  13   7   4 -5.6682 20.5295   3
 -13   7  -4 21.0814 20.3808   6
 -15  -7  -4 -3.7247 21.2099   1
 -15  -7  -4 -22.669 20.5563   6
 -15   7  -4 43.0689 24.5038   6
  15   7   4 19.2177 24.6874   3
 -17  -7  -4 13.8187 23.7822   6
 -17  -7  -4 37.9345 25.4244   1
  17   7   4 91.4784 32.6287   3
 -17   7  -4 94.0766 30.1845   6
 -18  -8   4 86.7058 27.8335   1
 -18  -8   4 13.5800 27.3204   4
  18   8  -4 91.4047 29.4035   5
  18   8  -4 11.9177 27.5890   3
 -16  -8   4 87.5623 26.1139   1
 -16  -8   4 49.4937 30.5072   4
  16   8  -4 101.897 27.6458   5
  16   8  -4 75.8187 31.2914   3
 -14  -8   4 45.0344 30.7192   4
 -14  -8   4 69.9725 23.4118   1
  14   8  -4 35.8397 25.7054   3
  14   8  -4 57.4669 15.8800   2
  14   8  -4 52.5361 24.4174   5
 -12  -8   4 77.4754 30.6916   4
 -12  -8   4 98.1222 24.1900   1
  12   8  -4 96.0994 17.2613   2
  12   8  -4 132.017 29.7109   3
  12   8  -4 114.615 26.3527   5
 -10  -8   4 81.6101 31.0909   4
 -10  -8   4 135.543 24.2810   1
  10   8  -4 124.930 18.0661   2
  10   8  -4 166.063 29.3124   5
  10   8  -4 114.589 26.3858   3
  -8  -8   4 31.2096 24.5824   4
  -8  -8   4 70.5748 21.7916   1
   8   8  -4 80.3440 16.8071   2
   8   8  -4 57.8646 21.8551   5
   8   8  -4 81.9431 24.3833   3
  -6  -8   4 52.6740 26.3777   4
  -6  -8   4 68.4264 19.9494   1
   6   8  -4 66.7954 16.5009   2
   6   8  -4 61.0065 20.9873   5
   6   8  -4 77.9653 20.0879   3
   4  -8  -4 129.396 17.4367   4
   4  -8  -4 135.349 27.0079   1
  -4  -8   4 98.7393 29.1944   4
  -4  -8   4 146.186 23.6313   1
   4   8  -4 88.8452 22.2169   5
   4   8  -4 133.855 20.4944   2
  -2  -8   4 134.658 32.0225   4
  -2  -8   4 198.819 25.0652   1
   2  -8  -4 111.589 24.6597   1
   2  -8  -4 184.313 20.5221   4
  -2   8   4 188.802 18.2796   2
   2   8  -4 182.920 28.0411   5
   0  -8   4 152.321 23.0505   1
   0  -8   4 222.853 21.8641   3
   0  -8  -4 172.990 25.6302   1
   0  -8  -4 201.860 23.1333   4
   0  -8   4 154.124 32.7970   4
   0   8  -4 150.651 10.4778   6
   0   8  -4 105.560 23.5627   5
   0   8   4 190.688 15.3010   2
   0   8   4 155.038 26.7295   3
  -2  -8  -4 146.141 22.6535   4
   2  -8   4 103.235 32.0888   4
  -2  -8  -4 114.152 25.9175   1
   2  -8   4 161.987 16.7642   3
  -2   8  -4 146.996 25.7890   5
  -2   8  -4 149.064 14.7801   6
   2   8   4 148.851 27.4082   3
   2   8   4 129.186 9.58305   2
   4  -8   4 138.993 33.4796   4
   4  -8   4 173.517 14.2321   3
  -4  -8  -4 136.354 24.4082   4
  -4  -8  -4 134.342 27.0175   1
   4   8   4 143.392 25.6064   3
  -4   8  -4 140.081 25.5864   5
  -4   8  -4 170.691 18.4190   6
   6  -8   4 359.402 46.4138   4
  -6  -8  -4 300.080 29.5271   6
  -6  -8  -4 361.243 36.7086   4
  -6  -8  -4 370.049 37.2974   1
  -6   8  -4 350.164 27.1692   6
   6   8   4 335.347 37.7724   3
  -8  -8  -4 115.910 23.3570   6
  -8  -8  -4 83.5958 25.4954   1
  -8  -8  -4 68.6418 22.0275   4
   8  -8   4 114.071 30.6195   4
   8   8   4 95.0215 26.7362   3
  -8   8  -4 95.6135 19.6092   6
  10  -8   4 102.873 31.2352   4
 -10  -8  -4 99.9880 26.2837   1
 -10  -8  -4 78.9478 26.9278   4
 -10  -8  -4 150.972 25.6365   6
  10   8   4 97.5253 26.5902   3
  10   8   4 89.9068 21.4713   5
 -10   8  -4 121.240 23.0953   6
 -12  -8  -4 22.6447 20.6439   6
 -12  -8  -4 13.8974 23.6539   1
 -12  -8  -4 -0.5410 22.1101   4
  12   8   4 27.5434 17.3341   5
  12   8   4 16.4310 22.4951   3
 -12   8  -4 33.6704 21.7130   6
 -14  -8  -4 49.0046 28.6964   4
 -14  -8  -4 52.5218 23.0477   6
 -14  -8  -4 60.1265 25.2608   1
 -14   8  -4 33.1786 22.7826   6
  14   8   4 23.4877 17.2015   5
  14   8   4 27.7464 25.2497   3
 -16  -8  -4 61.7452 25.9590   6
 -16  -8  -4 83.5601 32.6358   4
 -16  -8  -4 56.7387 27.1493   1
 -16   8  -4 103.679 29.5421   6
  16   8   4 99.6833 32.7452   3
 -17  -9   4 42.6953 36.2560   4
 -17  -9   4 31.0326 25.2297   1
  17   9  -4 74.7936 31.8185   3
  17   9  -4 88.5648 28.9192   5
 -15  -9   4 58.6042 34.8101   4
 -15  -9   4 109.274 28.2802   1
  15   9  -4 92.1986 27.4585   5
  15   9  -4 88.7507 32.1436   3
 -13  -9   4 99.2685 26.3559   1
 -13  -9   4 131.744 38.2942   4
  13   9  -4 90.4469 29.1046   3
  13   9  -4 116.545 28.4584   5
 -11  -9   4 195.290 29.6484   1
 -11  -9   4 165.215 36.8996   4
  11   9  -4 150.329 31.0466   5
  11   9  -4 160.235 19.6135   2
  11   9  -4 159.798 31.3315   3
  -9  -9   4 187.746 29.1592   1
  -9  -9   4 143.847 33.3269   4
   9   9  -4 150.453 19.8292   2
   9   9  -4 163.451 28.6545   3
   9   9  -4 156.257 29.9056   5
  -7  -9   4 125.810 25.9168   1
  -7  -9   4 188.902 39.0461   4
   7   9  -4 128.663 20.0997   2
   7   9  -4 125.771 27.3050   3
   7   9  -4 94.4379 24.7736   5
   5  -9  -4 195.267 20.1932   4
  -5  -9   4 152.457 33.0679   4
  -5  -9   4 176.463 27.7356   1
   5  -9  -4 169.894 29.1882   1
   5   9  -4 174.562 22.5436   2
  -5   9   4 140.621 22.8388   3
   5   9  -4 142.676 27.2162   5
  -3  -9   4 123.589 23.8995   1
  -3  -9   4 119.346 31.5804   4
   3  -9  -4 91.4835 19.1195   4
   3  -9  -4 106.426 25.2133   1
   3   9  -4 90.3190 23.4544   5
  -3   9   4 137.581 23.7046   3
  -1  -9   4 203.069 27.4311   1
   1  -9  -4 260.949 33.9314   1
  -1  -9   4 190.151 39.5864   4
   1  -9  -4 264.762 26.9670   4
  -1   9   4 242.759 27.9127   3
   1   9  -4 224.923 30.3675   5
  -1  -9  -4 345.596 31.8893   4
   1  -9   4 252.143 39.8748   4
  -1  -9  -4 312.900 34.5976   1
  -1   9  -4 332.319 17.0108   6
  -1   9  -4 383.707 37.4402   5
   1   9   4 310.580 32.1496   3
   3  -9   4 241.864 42.4316   4
  -3  -9  -4 226.338 32.2302   1
  -3  -9  -4 177.619 27.2966   4
   3   9   4 182.292 27.5856   3
  -3   9  -4 218.058 18.6011   6
  -3   9  -4 163.382 27.9893   5
  -5  -9  -4 406.592 40.9822   1
  -5  -9  -4 279.724 34.1073   4
   5  -9   4 264.269 42.1742   4
   5   9   4 341.769 37.0044   3
  -5   9  -4 363.174 25.5833   6
  -7  -9  -4 116.368 26.7024   1
   7  -9   4 128.051 35.3355   4
  -7  -9  -4 117.976 27.5420   4
  -7  -9  -4 133.169 24.1152   6
  -7   9  -4 131.479 21.3571   6
   7   9   4 122.208 27.9300   3
  -9  -9  -4 129.798 24.9551   6
  -9  -9  -4 47.4876 25.0593   1
   9  -9   4 155.559 35.9274   4
  -9  -9  -4 110.674 28.2606   4
   9   9   4 71.1983 23.7346   5
   9   9   4 106.463 27.3888   3
  -9   9  -4 55.1937 19.9091   6
 -11  -9  -4 92.4368 29.7878   4
 -11  -9  -4 93.7534 23.6023   6
 -11  -9  -4 61.6430 26.7579   1
  11   9   4 108.796 29.9280   3
 -11   9  -4 101.043 24.5849   6
  11   9   4 108.260 24.7408   5
 -13  -9  -4 39.6864 25.4404   4
 -13  -9  -4 38.6762 28.1068   1
 -13  -9  -4 46.2933 22.2303   6
  13   9   4 45.6696 20.2209   5
 -13   9  -4 21.5122 21.7905   6
  13   9   4 62.0608 26.0849   3
 -15  -9  -4 51.4709 28.7634   4
 -15  -9  -4 84.5300 32.0220   1
 -15  -9  -4 119.431 27.6867   6
 -15   9  -4 75.3126 27.5799   6
  15   9   4 127.537 35.3993   3
 -14 -10   4 88.4666 35.3659   4
 -14 -10   4 126.405 31.3937   1
  14  10  -4 157.977 35.7492   3
  14  10  -4 92.1913 30.7191   5
 -12 -10   4 169.859 31.6571   1
 -12 -10   4 87.9959 35.1353   4
  12  10  -4 152.562 33.7588   3
  12  10  -4 167.812 33.4419   5
 -10 -10   4 190.336 30.5284   1
 -10 -10   4 154.843 38.0483   4
  10  10  -4 137.765 30.8809   3
  10  10  -4 145.261 30.2009   5
  10  10  -4 224.236 24.6249   2
  -8 -10   4 145.451 28.7463   1
  -8 -10   4 144.045 36.6735   4
   8  10  -4 203.225 31.3562   3
   8  10  -4 196.222 32.5344   5
   8  10  -4 161.702 20.5543   2
  -6 -10   4 280.399 45.6460   4
  -6 -10   4 256.194 32.5975   1
   6  10  -4 318.797 27.2319   2
   6  10  -4 270.155 35.2769   5
  -4 -10   4 259.953 42.8235   4
   4 -10  -4 272.407 28.0602   4
   4 -10  -4 389.317 40.8590   1
  -4 -10   4 314.414 34.7740   1
  -4  10   4 337.345 29.7428   3
   4  10  -4 376.757 39.7293   5
   4  10  -4 319.937 29.3127   2
   2 -10  -4 223.705 27.3542   4
  -2 -10   4 292.814 33.2714   1
   2 -10  -4 275.158 35.9462   1
  -2 -10   4 272.682 45.0842   4
   2  10  -4 250.828 35.3872   5
  -2  10   4 236.632 27.5141   3
   0 -10  -4 288.511 36.0011   1
   0 -10  -4 257.150 29.4953   4
   0 -10   4 298.891 44.2290   4
   0 -10   4 257.989 30.8124   1
   0  10  -4 289.621 36.7044   5
   0  10   4 227.563 28.3449   3
  -2 -10  -4 270.637 32.0893   4
   2 -10   4 215.367 40.4189   4
  -2 -10  -4 220.165 33.4007   1
   2  10   4 247.461 30.8993   3
  -2  10  -4 250.083 33.0088   5
   4 -10   4 275.851 47.1702   4
  -4 -10  -4 301.002 35.8057   1
  -4 -10  -4 315.856 36.1367   4
  -4  10  -4 287.639 22.6211   6
   4  10   4 326.077 35.2827   3
  -4  10  -4 291.073 36.3341   5
   6 -10   4 193.033 41.4835   4
  -6 -10  -4 164.479 31.4425   4
  -6 -10  -4 237.773 34.7986   1
   6  10   4 234.797 34.4806   3
  -6  10  -4 188.553 22.0394   6
  -8 -10  -4 150.331 31.8250   1
  -8 -10  -4 151.416 31.4619   4
   8 -10   4 159.473 35.1745   4
  -8  10  -4 162.475 24.5876   6
   8  10   4 169.707 30.3805   3
 -10 -10  -4 153.021 26.5420   6
 -10 -10  -4 121.887 31.1909   1
 -10 -10  -4 88.0602 29.0869   4
  10  10   4 116.569 26.9447   5
 -10  10  -4 142.567 26.4815   6
  10  10   4 117.347 32.2028   3
 -12 -10  -4 102.098 31.9848   1
 -12 -10  -4 125.689 25.6342   6
 -12 -10  -4 67.3417 28.2506   4
 -12  10  -4 96.6873 24.9228   6
  12  10   4 84.8476 30.5068   3
  12  10   4 107.077 25.5998   5
 -14 -10  -4 85.5062 33.5683   4
 -14 -10  -4 65.8265 29.4741   1
  14  10   4 116.795 36.3903   5
 -14  10  -4 92.5954 27.9546   6
  14  10   4 87.7544 32.5937   3
 -13 -11   4 168.134 35.0459   1
 -13 -11   4 94.5340 38.4113   4
  13  11  -4 100.870 29.2728   5
  13  11  -4 110.182 32.6791   3
 -11 -11   4 113.880 31.2208   1
 -11 -11   4 100.820 38.2520   4
  11  11  -4 118.999 31.8361   3
  11  11  -4 175.053 35.3328   5
  -9 -11   4 142.784 38.5666   4
  -9 -11   4 140.510 31.6859   1
   9  11  -4 174.228 31.5566   3
   9  11  -4 148.624 32.3399   5
  -7 -11   4 173.520 30.9002   1
  -7 -11   4 176.351 42.4417   4
   7  11  -4 185.936 33.1003   5
   7  11  -4 291.735 26.7053   2
  -5 -11   4 254.266 35.1197   1
  -5 -11   4 193.784 41.9395   4
   5  11  -4 277.192 38.1624   5
   5  11  -4 281.982 27.6935   2
  -3 -11   4 330.463 37.3167   1
  -3 -11   4 302.406 49.8945   4
   3 -11  -4 256.027 38.7001   1
   3  11  -4 280.167 37.1399   5
  -3  11   4 346.039 29.1135   3
  -1 -11   4 150.927 41.3297   4
   1 -11  -4 212.703 29.9596   4
   1 -11  -4 205.247 35.2039   1
  -1 -11   4 214.802 32.3837   1
   1  11  -4 247.325 37.2736   5
  -1  11   4 219.868 27.0808   3
  -1 -11  -4 131.299 32.2088   1
   1 -11   4 75.0211 35.4163   4
  -1 -11  -4 128.886 25.8375   4
   1  11   4 150.245 25.4261   3
  -1  11  -4 170.331 33.4994   5
  -3 -11  -4 255.686 35.1656   4
   3 -11   4 202.966 46.1730   4
  -3 -11  -4 174.882 33.5295   1
  -3  11  -4 186.838 32.3953   5
   3  11   4 274.343 34.2929   3
   5 -11   4 187.163 44.5970   4
  -5 -11  -4 135.307 29.6401   4
  -5 -11  -4 162.468 32.0477   1
  -5  11  -4 133.097 30.5362   5
   5  11   4 161.830 30.0860   3
  -7 -11  -4 142.025 32.9157   4
   7 -11   4 182.878 41.6170   4
  -7 -11  -4 140.536 31.3697   1
   7  11   4 156.264 31.1411   3
  -9 -11  -4 109.334 33.0298   1
  -9 -11  -4 126.113 33.2105   4
   9 -11   4 128.509 37.5495   4
   9  11   4 140.996 32.6118   3
   9  11   4 121.083 31.3403   5
 -11 -11  -4 84.6720 31.9200   4
 -11 -11  -4 45.9257 30.9612   1
 -11  11  -4 73.8390 23.7347   6
  11  11   4 73.3234 28.4040   3
  11  11   4 101.142 27.3811   5
 -10 -12   4 53.3975 30.5013   1
 -10 -12   4 10.4870 31.2192   4
  10  12  -4 79.1096 27.5678   3
  10  12  -4 101.424 31.3652   5
  -8 -12   4 71.4790 38.1061   4
  -8 -12   4 113.298 32.3465   1
   8  12  -4 150.737 32.4769   5
  -6 -12   4 154.818 32.6407   1
  -6 -12   4 84.8077 37.3957   4
   6  12  -4 138.701 33.0250   5
   4 -12  -4 194.374 34.9722   1
  -4 -12   4 180.385 32.7398   1
  -4 -12   4 147.225 45.1025   4
   4  12  -4 217.498 26.4377   2
   4  12  -4 134.453 33.3286   5
  -2 -12   4 136.459 41.7737   4
  -2 -12   4 190.391 32.6174   1
   2 -12  -4 171.586 34.7549   1
   2  12  -4 194.131 33.7526   5
   0 -12  -4 106.091 29.9958   1
   0 -12   4 30.0019 39.3147   4
   0  12  -4 82.8113 27.9630   5
   0  12   4 117.098 23.3281   3
  -2 -12  -4 110.308 32.5838   1
  -2 -12  -4 134.280 30.4205   4
   2 -12   4 103.234 40.7069   4
   2  12   4 174.701 27.5557   3
  -2  12  -4 149.364 33.8766   5
  -4 -12  -4 69.0930 31.8794   1
   4 -12   4 61.6912 39.2240   4
  -4 -12  -4 99.5774 29.8960   4
   4  12   4 170.683 29.7630   3
  -4  12  -4 154.029 33.4776   5
  -6 -12  -4 51.7762 30.5192   1
  -6 -12  -4 95.4951 30.2353   4
   6 -12   4 156.278 43.8948   4
   6  12   4 69.1655 24.7198   3
  -6  12  -4 38.9021 27.6524   5
   8 -12   4 144.573 38.0045   4
  -8 -12  -4 95.0329 35.9491   1
  -8 -12  -4 83.7078 31.4091   4
  -8  12  -4 38.1432 30.3968   5
   8  12   4 103.190 29.4627   3
   8  12   4 72.5664 28.5566   5
  -7 -13   4 63.7652 30.5836   1
  -7 -13   4 42.2855 38.7375   4
   7  13  -4 109.807 32.0081   5
  -5 -13   4 80.2455 44.8456   4
  -5 -13   4 57.5997 29.3927   1
   5  13  -4 80.4089 30.8153   5
   3 -13  -4 96.4239 29.4057   1
  -3 -13   4 79.7459 30.3241   1
  -3 -13   4 21.0986 38.7136   4
   3  13  -4 106.611 32.4075   5
  -1 -13   4 121.468 30.5205   1
  -1 -13   4 3.35100 42.7515   4
   1 -13  -4 63.3659 29.7467   1
   1  13  -4 95.0117 31.9993   5
   1 -13   4 -20.937 40.5635   4
  -1 -13  -4 157.038 37.6393   1
  -1  13  -4 84.8212 31.0168   5
  -3 -13  -4 70.5454 31.1503   1
   3 -13   4 17.4317 39.7715   4
  -3  13  -4 45.9883 29.3233   5
   3  13   4 130.618 26.5528   3
  -5 -13  -4 45.2123 30.0471   1
   5 -13   4 50.2260 43.7187   4
  -5  13  -4 92.1938 31.6693   5
   5  13   4 102.969 25.9527   3
 -22   0   5 3.79864 16.5137   1
 -22   0   5 7.46304 21.6080   6
 -22   0   5 -3.6193 24.2122   4
 -20   0   5 7.78218 15.2450   1
 -20   0   5 -0.6151 19.0084   4
 -20   0   5 9.42463 15.5504   7
 -20   0   5 6.71831 18.7416   6
 -18   0   5 -2.8462 17.1551   6
 -18   0   5 10.8798 15.5280   7
 -18   0   5 12.8363 19.1970   4
 -18   0   5 -11.715 10.8311   1
 -16   0   5 -5.0217 16.3524   4
 -16   0   5 3.81939 13.9770   7
 -16   0   5 -13.125 15.0658   6
 -14   0   5 -5.6644 12.8101   7
 -14   0   5 3.60348 15.7636   4
  12   0  -5 -12.975 15.0608   2
 -12   0   5 9.52850 14.1051   7
 -12   0   5 -3.3964 14.0224   4
 -10   0   5 2.13965 12.3373   4
 -10   0   5 -17.237 13.4366   7
  10   0  -5 3.94788 12.8270   2
  -8   0   5 -15.778 13.6168   7
   8   0  -5 15.8844 13.5077   2
  -8   0   5 -9.5427 11.1794   4
  -6   0   5 4.58162 10.5764   4
  -6   0   5 -13.495 12.6523   7
   6   0  -5 6.46051 9.93267   4
   6   0  -5 2.70595 11.2573   2
  -4   0   5 -8.6232 4.86381   1
  -4   0   5 -6.7245 10.8241   4
  -4   0   5 -17.254 10.2778   2
  -4   0   5 6.12240 12.9959   7
  -4   0   5 3.99688 10.1366   6
   4   0  -5 19.4289 12.3571   2
   4   0  -5 3.51693 9.90366   4
  -4   0   5 7.90696 10.7328   5
  -2   0   5 -10.374 9.89516   5
   2   0  -5 7.94498 13.0026   2
   2   0  -5 15.7481 11.7355   4
   2   0  -5 2.84239 11.9571   6
  -2   0   5 -11.790 10.4638   7
  -2   0   5 3.75661 9.93686   6
  -2   0   5 16.0949 14.2757   4
   0   0   5 4.78771 10.7795   7
   0   0   5 -4.8614 12.9693   4
   0   0   5 2.68280 9.21246   5
   0   0   5 0.93488 10.7948   6
   0   0  -5 1.05615 5.36719   1
   0   0  -5 10.6765 13.0018   6
   0   0  -5 7.44124 14.2230   4
   0   0  -5 -21.488 11.4073   2
  -2   0  -5 2.04564 7.70322   1
   2   0   5 -3.1480 8.80650   7
   2   0   5 -9.4489 9.82423   6
   2   0   5 13.3542 7.63364   5
  -2   0  -5 3.77009 12.3328   6
  -2   0  -5 16.2717 16.4777   4
  -4   0  -5 -4.4272 9.08059   1
   4   0   5 4.86754 7.41589   7
   4   0   5 1.59335 5.32969   5
  -4   0  -5 -5.6456 12.8996   6
   4   0   5 16.0080 12.8638   6
  -4   0  -5 13.6479 18.1464   4
  -6   0  -5 10.2978 11.8527   1
  -6   0  -5 4.65012 14.2819   6
   6   0   5 -0.4537 6.29466   7
  -8   0  -5 -13.962 10.2066   1
  -8   0  -5 -4.7279 15.6507   6
 -10   0  -5 13.3954 17.6007   6
 -10   0  -5 -4.1359 12.8032   1
 -12   0  -5 9.28167 18.6403   6
 -12   0  -5 -22.860 14.9958   1
  12   0   5 11.1754 19.4113   3
 -14   0  -5 -39.746 16.1478   6
  14   0   5 -39.141 17.2049   3
 -14   0  -5 -8.7062 17.2367   1
  16   0   5 17.7712 19.4677   3
 -16   0  -5 4.82219 23.2438   6
 -16   0  -5 0.29894 19.0685   1
  18   0   5 38.6920 21.8609   3
 -18   0  -5 -1.8097 23.9831   6
 -18   0  -5 -32.704 15.8189   1
 -20   0  -5 -16.899 18.5372   1
 -20   0  -5 -29.177 24.2250   6
  20   0   5 20.0260 21.1826   3
 -21  -1   5 -13.844 14.2415   7
 -21  -1   5 18.8985 20.4622   6
 -21  -1   5 1.67716 15.4344   1
 -21  -1   5 28.4386 21.1844   4
 -21   1   5 -23.247 16.0165   7
 -21   1   5 0.35011 21.1408   6
 -21   1   5 -9.2681 15.3697   1
 -19  -1   5 9.85415 18.4409   4
 -19  -1   5 5.88052 13.7657   1
 -19  -1   5 15.7672 15.8731   7
 -19  -1   5 24.4007 17.7001   6
 -19   1   5 30.4963 21.6657   6
 -19   1   5 19.7099 17.2867   7
 -19   1   5 51.8630 22.5771   4
 -17  -1   5 -2.6597 12.5610   1
 -17  -1   5 7.59359 14.0330   6
 -17  -1   5 5.04273 17.1253   4
 -17  -1   5 9.02559 14.5521   7
 -17   1   5 22.2111 18.2698   6
 -17   1   5 -6.2822 15.9020   4
 -17   1   5 -4.1893 13.8818   7
 -15  -1   5 143.778 21.5346   6
 -15  -1   5 148.220 20.2536   1
 -15  -1   5 129.520 24.8598   4
 -15  -1   5 124.722 21.4488   7
 -15   1   5 133.313 23.3530   4
 -15   1   5 146.030 23.2041   7
 -13  -1   5 -12.615 11.6591   7
 -13  -1   5 2.17696 10.6917   1
 -13  -1   5 14.9124 16.6265   4
 -13   1   5 -15.293 13.5330   7
  13   1  -5 -4.9904 15.6793   2
 -13   1   5 6.42753 13.4870   4
 -11  -1   5 38.5047 11.6407   1
  11  -1  -5 29.2395 16.8737   2
 -11  -1   5 13.6764 15.8392   7
 -11  -1   5 48.9860 16.9770   4
  11   1  -5 25.1591 14.8652   2
 -11   1   5 43.8358 14.7225   4
 -11   1   5 47.4793 16.5106   7
  11   1  -5 26.9732 17.2272   5
   9  -1  -5 63.3871 16.4010   2
  -9  -1   5 127.567 14.2346   1
  -9  -1   5 82.1830 17.1849   4
  -9   1   5 74.8589 17.0390   7
   9   1  -5 122.225 20.1231   2
  -9   1   5 114.493 16.6496   4
   9   1  -5 139.851 22.7907   5
  -7  -1   5 122.313 11.3219   1
   7  -1  -5 96.7849 16.7819   2
  -7  -1   5 85.8889 16.5763   4
   7   1  -5 106.024 18.8994   5
  -7   1   5 97.5368 13.8038   4
   7   1  -5 114.513 16.9937   4
   7   1  -5 115.809 18.1501   2
  -7   1   5 106.447 17.9276   7
  -5  -1   5 532.881 17.0916   1
  -5  -1   5 571.102 28.9138   2
  -5  -1   5 532.837 24.8849   6
   5  -1  -5 565.161 23.5571   4
  -5  -1   5 591.923 29.8842   5
   5  -1  -5 530.125 28.8250   2
  -5  -1   5 497.173 30.2783   4
  -5   1   5 526.683 21.2600   1
  -5   1   5 540.108 31.2588   7
  -5   1   5 557.010 28.6887   2
  -5   1   5 492.788 27.0389   5
  -5   1   5 495.211 24.3338   4
   5   1  -5 547.803 29.8484   4
   5   1  -5 560.444 30.2779   5
  -5   1   5 513.065 27.4523   6
   3  -1  -5 63.5800 13.9298   2
  -3  -1   5 76.6496 12.5807   6
  -3  -1   5 63.8829 13.3434   5
  -3  -1   5 70.1602 16.9441   4
   3  -1  -5 63.9234 11.5360   4
   3   1  -5 49.8795 13.1738   5
  -3   1   5 51.9201 13.7338   2
  -3   1   5 65.6393 8.02374   1
  -3   1   5 35.8998 13.3363   6
  -3   1   5 64.3069 12.7608   4
   3   1  -5 70.6830 15.5476   2
  -3   1   5 51.4044 14.3998   7
  -3   1   5 58.3970 14.5715   5
   3   1  -5 47.9445 13.7687   4
   1  -1  -5 262.418 22.1049   6
   1  -1  -5 223.718 13.7713   1
  -1  -1   5 225.995 17.9523   6
  -1  -1   5 228.867 18.0402   5
   1  -1  -5 220.112 20.8320   4
   1  -1  -5 210.331 19.3058   2
  -1  -1   5 194.588 23.7138   4
   1   1  -5 285.015 26.2926   4
  -1   1   5 202.876 18.7190   6
   1   1  -5 200.246 17.1790   6
   1   1  -5 163.317 18.7009   2
  -1   1   5 237.101 20.9673   7
  -1   1   5 183.973 17.9867   4
   1   1  -5 211.264 18.2595   5
  -1   1   5 205.881 12.1702   1
  -1   1   5 201.901 18.1918   5
   1  -1   5 14.4470 10.3787   6
  -1  -1  -5 9.83307 14.7670   4
  -1  -1  -5 8.88103 13.2215   6
   1  -1   5 1.89516 15.6175   4
  -1  -1  -5 13.7441 8.19248   1
   1  -1   5 8.09528 8.64956   5
  -1  -1  -5 10.6410 10.6953   2
   1   1   5 -5.2572 9.52789   7
  -1   1  -5 18.9838 9.24852   5
  -1   1  -5 3.50928 6.02828   1
   1   1   5 9.49958 9.15159   5
   1   1   5 8.13952 11.4232   6
  -1   1  -5 18.6517 15.5802   4
  -1   1  -5 -0.9283 11.7350   6
   1   1   5 0.45336 7.09598   1
  -3  -1  -5 11.8945 14.6215   4
   3  -1   5 5.22767 16.3558   4
   3  -1   5 1.40329 6.83770   5
  -3  -1  -5 10.4007 13.5443   6
  -3  -1  -5 -7.6554 9.10336   1
   3  -1   5 -12.695 9.53238   6
  -3   1  -5 -1.9383 13.1397   6
  -3   1  -5 -9.4375 18.4055   4
   3   1   5 6.33320 9.20525   7
   3   1   5 5.99025 11.4138   6
   3   1   5 3.28008 7.26622   5
  -5  -1  -5 38.6566 16.3626   4
   5  -1   5 30.7936 7.99833   7
  -5  -1  -5 14.7198 14.6026   6
  -5  -1  -5 40.3332 12.4006   1
  -5   1  -5 31.5251 15.2554   6
   5   1   5 46.5631 7.19697   5
  -7  -1  -5 195.899 20.1152   1
  -7  -1  -5 234.942 25.4160   6
   7  -1   5 209.681 10.0311   7
  -7   1  -5 160.847 20.4604   6
  -9  -1  -5 114.056 19.0024   1
  -9  -1  -5 107.355 21.9796   6
  -9   1  -5 105.174 21.6188   6
 -11  -1  -5 50.6213 17.8537   1
 -11  -1  -5 23.0101 18.6552   6
  11  -1   5 55.1120 23.1051   3
 -11   1  -5 31.2924 18.9568   6
  11   1   5 47.7935 22.8134   3
 -13  -1  -5 55.7719 18.9042   1
  13  -1   5 50.8413 20.0715   3
 -13  -1  -5 31.3214 21.1953   6
 -13   1  -5 34.6062 19.8287   6
  13   1   5 40.6036 20.4562   3
 -15  -1  -5 10.0164 18.8489   1
 -15  -1  -5 -1.2696 19.4113   6
  15  -1   5 5.11534 17.7389   3
 -15   1  -5 17.3514 18.3978   1
  15   1   5 14.4813 19.2903   3
 -15   1  -5 -12.179 17.1439   6
 -17  -1  -5 20.5013 22.0498   6
 -17  -1  -5 8.05117 21.8740   1
  17  -1   5 35.4346 20.4509   3
 -17   1  -5 57.6646 20.9233   1
 -17   1  -5 56.6551 25.2826   6
  17   1   5 42.8910 22.6637   3
 -19  -1  -5 8.89972 25.4212   6
  19  -1   5 35.3252 20.7654   3
 -19  -1  -5 -22.880 20.8044   1
 -19   1  -5 6.04499 22.4845   1
  19   1   5 -3.8552 21.1670   3
 -19   1  -5 39.7947 27.2473   6
 -22  -2   5 1.23802 16.9584   1
 -22  -2   5 11.3762 22.1607   4
 -20  -2   5 17.2666 17.1115   6
 -20  -2   5 39.5920 18.4440   7
 -20  -2   5 43.3839 23.5052   4
 -20  -2   5 52.5456 18.7592   1
 -20   2   5 42.8269 23.0281   6
 -20   2   5 24.8222 19.5002   7
 -18  -2   5 72.4053 24.9264   4
 -18  -2   5 34.1654 16.2660   6
 -18  -2   5 44.5538 16.4786   1
 -18  -2   5 55.5982 18.9780   7
 -18   2   5 24.9876 17.8638   7
 -18   2   5 61.0509 22.9970   6
 -18   2   5 49.3083 20.2294   4
 -16  -2   5 133.390 27.5395   4
 -16  -2   5 147.219 23.3447   7
 -16  -2   5 121.158 19.9201   6
 -16  -2   5 158.794 21.3919   1
 -16   2   5 171.943 25.2468   4
 -16   2   5 171.601 26.1566   7
 -14  -2   5 263.001 24.7664   6
 -14  -2   5 251.282 32.1563   4
 -14  -2   5 314.041 24.4820   1
  14   2  -5 272.678 28.8580   2
  14   2  -5 294.212 32.1378   5
 -14   2   5 277.978 28.2154   4
 -14   2   5 291.039 31.1608   7
 -12  -2   5 25.0766 12.0953   1
 -12  -2   5 47.8204 18.2309   4
 -12   2   5 44.6329 17.6340   7
  12   2  -5 54.5152 17.0973   2
 -12   2   5 50.0350 14.4776   4
  12   2  -5 67.9565 20.4720   5
  10  -2  -5 154.851 21.3610   2
 -10  -2   5 148.785 22.3628   4
 -10  -2   5 160.113 16.4269   1
  10   2  -5 167.167 22.6173   5
  10   2  -5 200.151 23.4327   2
 -10   2   5 180.369 19.1151   4
 -10   2   5 239.501 26.6980   7
   8  -2  -5 144.108 21.2433   2
  -8  -2   5 145.941 22.0290   4
  -8  -2   5 140.922 13.5490   1
   8   2  -5 114.253 19.4290   5
  -8   2   5 123.478 15.4530   1
   8   2  -5 149.212 20.1232   2
  -8   2   5 126.871 13.4768   4
  -8   2   5 167.026 23.2901   7
   6  -2  -5 887.140 38.6373   2
  -6  -2   5 964.093 32.0581   6
  -6  -2   5 912.220 42.7808   4
  -6  -2   5 966.367 28.9082   1
  -6   2   5 932.966 41.0828   7
  -6   2   5 928.314 29.0292   4
   6   2  -5 988.120 40.9180   5
   6   2  -5 982.978 42.3101   4
   6   2  -5 895.552 37.6393   2
  -6   2   5 954.376 33.8856   1
   4  -2  -5 1586.87 41.1393   4
  -4  -2   5 1582.27 44.7525   6
   4  -2  -5 1390.18 51.0235   7
  -4  -2   5 1563.58 38.7183   1
  -4  -2   5 1591.42 51.2903   5
   4  -2  -5 1556.53 50.5031   2
  -4  -2   5 1565.70 57.5772   4
  -4   2   5 1595.39 50.1806   2
  -4   2   5 1595.30 41.4780   4
  -4   2   5 1501.14 50.3689   6
   4   2  -5 1574.82 55.5505   4
  -4   2   5 1587.92 45.1764   1
   4   2  -5 1598.99 52.3368   2
  -4   2   5 1497.26 53.4453   7
   4   2  -5 1537.96 52.6527   5
   2  -2  -5 751.687 27.4301   4
  -2  -2   5 760.107 26.9369   6
  -2  -2   5 747.464 30.3825   5
   2  -2  -5 757.829 31.9040   7
   2  -2  -5 690.822 29.7805   2
  -2  -2   5 782.048 41.1954   4
   2  -2  -5 720.556 27.2276   1
  -2   2   5 784.005 34.0562   7
   2   2  -5 726.536 37.4195   4
   2   2  -5 727.945 18.3730   1
   2   2  -5 685.145 31.2966   5
  -2   2   5 690.096 25.8132   1
  -2   2   5 720.921 31.2995   6
   2   2  -5 699.407 31.9737   2
  -2   2   5 775.315 30.3093   2
   2   2  -5 724.997 27.5065   6
   0  -2  -5 414.381 25.0854   4
   0  -2  -5 371.159 21.1099   2
   0  -2  -5 412.729 20.9565   1
   0  -2   5 424.284 21.2232   6
   0  -2  -5 420.440 27.5916   6
   0  -2   5 373.769 33.4590   4
   0  -2   5 411.259 21.7730   5
   0  -2  -5 394.878 23.5926   7
   0   2  -5 431.793 16.1752   1
   0   2   5 409.626 25.7386   6
   0   2  -5 433.217 33.2624   4
   0   2  -5 386.255 22.1552   6
   0   2  -5 406.894 21.8066   5
   0   2   5 447.559 26.2748   7
   0   2   5 418.261 19.7908   1
   2  -2   5 250.136 19.0079   6
  -2  -2  -5 244.126 23.1641   6
  -2  -2  -5 241.076 18.3295   7
  -2  -2  -5 245.778 17.4237   2
   2  -2   5 218.380 28.3267   4
  -2  -2  -5 266.004 18.7958   1
   2  -2   5 269.673 16.9309   5
  -2  -2  -5 265.971 24.5077   4
   2   2   5 245.228 17.8461   1
   2   2   5 291.384 23.5499   6
   2   2   5 242.251 21.9924   7
  -2   2  -5 234.320 26.6362   4
  -2   2  -5 266.995 20.8502   6
  -2   2  -5 236.404 16.4288   5
  -4  -2  -5 230.014 22.2338   6
   4  -2   5 202.775 27.9198   4
  -4  -2  -5 204.665 17.0124   2
   4  -2   5 206.634 18.6490   6
  -4  -2  -5 227.305 19.9919   1
  -4  -2  -5 228.305 16.8892   7
  -4   2  -5 216.878 20.7891   6
   4   2   5 215.544 18.2770   1
  -4   2  -5 200.058 12.8225   5
  -6  -2  -5 142.895 13.4056   7
  -6  -2  -5 140.705 18.6244   1
  -6  -2  -5 141.044 20.0872   6
  -6   2  -5 158.415 21.8861   6
  -6   2  -5 141.928 7.69843   5
  -8  -2  -5 329.655 30.5354   6
  -8  -2  -5 336.804 15.2641   7
   8  -2   5 334.328 12.4657   7
  -8  -2  -5 356.822 26.2419   1
   8   2   5 333.811 13.8894   5
  -8   2  -5 313.165 26.7960   6
 -10  -2  -5 164.580 24.7351   6
 -10  -2  -5 178.213 24.9462   1
  10   2   5 274.784 34.1134   3
 -10   2  -5 159.406 24.1998   6
  10   2   5 182.125 8.36891   5
 -12  -2  -5 205.177 29.5996   6
  12  -2   5 193.990 25.5137   3
 -12  -2  -5 179.044 25.3905   1
  12   2   5 191.738 29.9584   3
 -12   2  -5 178.002 26.7147   6
  14  -2   5 38.9025 17.7782   3
 -14  -2  -5 8.86249 21.1805   6
 -14  -2  -5 22.0924 19.4425   1
  14   2   5 25.6839 22.7984   3
 -14   2  -5 46.4641 23.8705   6
  16  -2   5 70.5395 19.0058   3
 -16  -2  -5 39.9891 23.2013   1
 -16  -2  -5 44.1566 25.7976   6
  16   2   5 52.9059 23.3944   3
 -16   2  -5 3.33359 22.7420   6
 -18  -2  -5 62.0144 23.9396   1
 -18  -2  -5 80.1205 28.7741   6
  18  -2   5 70.3849 29.4189   3
 -18   2  -5 72.2780 23.8778   1
  18   2   5 48.7611 24.0747   3
 -18   2  -5 71.6777 26.8611   6
 -20  -2  -5 19.7913 24.9695   1
 -20  -2  -5 74.1388 30.9454   6
 -20   2  -5 24.5093 23.7147   1
 -20   2  -5 26.6994 28.5763   6
  20   2   5 15.8827 22.9153   3
 -21  -3   5 36.9052 23.3187   4
 -21  -3   5 36.8493 18.2586   1
 -21  -3   5 41.8495 18.8106   7
 -21  -3   5 56.4795 18.6148   6
 -21   3   5 46.3161 23.2480   6
 -21   3   5 11.9439 23.1798   7
 -19  -3   5 4.84542 20.4450   4
 -19  -3   5 51.5889 18.8338   7
 -19  -3   5 61.4128 17.4616   6
 -19  -3   5 60.6689 18.1194   1
 -19   3   5 31.1627 20.8485   7
 -19   3   5 9.55240 20.5544   6
 -17  -3   5 251.710 27.6014   1
 -17  -3   5 227.198 25.2146   6
 -17  -3   5 179.035 31.6932   4
  17   3  -5 198.511 30.3596   5
 -17   3   5 219.529 28.4802   4
 -17   3   5 234.666 30.2099   7
 -15  -3   5 324.860 24.3711   6
 -15  -3   5 273.765 35.4404   4
 -15  -3   5 313.216 27.3936   1
  15   3  -5 270.634 29.0748   2
 -15   3   5 363.946 29.7596   4
  15   3  -5 281.486 32.9267   5
 -15   3   5 394.011 36.4534   7
 -13  -3   5 511.183 28.3482   6
 -13  -3   5 550.959 31.3329   1
 -13  -3   5 599.223 43.9921   4
  13   3  -5 591.193 35.8724   2
 -13   3   5 555.542 39.5845   7
 -13   3   5 598.614 32.2722   4
  13   3  -5 642.933 40.6701   5
 -11  -3   5 158.718 17.9919   1
 -11  -3   5 226.475 18.3041   6
 -11  -3   5 193.426 28.8269   4
  11   3  -5 191.195 25.4538   5
 -11   3   5 187.994 26.2491   7
 -11   3   5 212.448 18.8418   4
  11   3  -5 186.630 23.2439   2
  -9  -3   5 210.932 18.5369   1
  -9  -3   5 254.451 27.8291   4
  -9   3   5 261.377 15.6807   4
   9   3  -5 276.213 23.1509   2
   9   3  -5 195.717 24.5995   5
  -9   3   5 224.973 25.4862   7
  -7  -3   5 373.659 33.0462   4
   7  -3  -5 381.211 26.0278   2
  -7  -3   5 405.363 20.0793   1
  -7   3   5 390.430 25.4127   1
   7   3  -5 425.295 27.7066   2
  -7   3   5 380.470 31.2272   7
   7   3  -5 414.207 28.1848   5
  -5  -3   5 759.283 25.6316   6
  -5  -3   5 796.405 25.7625   1
  -5  -3   5 824.762 43.4763   4
   5  -3  -5 787.454 34.1854   2
   5   3  -5 751.284 35.5189   5
   5   3  -5 736.226 35.0167   2
  -5   3   5 732.306 38.4757   7
  -5   3   5 752.485 31.2413   1
  -3  -3   5 1512.95 61.1887   4
  -3  -3   5 1581.48 53.2219   5
  -3  -3   5 1665.83 42.8395   1
  -3  -3   5 1611.49 43.8557   6
   3  -3  -5 1584.29 50.6184   2
   3  -3  -5 1595.75 49.4088   1
  -3   3   5 1640.19 56.8751   7
   3   3  -5 1598.61 53.8097   5
  -3   3   5 1616.24 48.5385   1
   3   3  -5 1648.23 53.1401   2
  -3   3   5 1701.97 50.7911   2
   3   3  -5 1564.50 59.1156   4
   3   3  -5 1668.03 42.3371   1
  -1  -3   5 823.619 27.7879   6
   1  -3  -5 851.617 31.5845   2
  -1  -3   5 872.827 34.2057   5
   1  -3  -5 842.067 32.9358   1
   1  -3  -5 835.380 30.1860   4
   1  -3  -5 914.882 36.8239   7
  -1  -3   5 858.548 48.2660   4
   1   3  -5 812.871 28.7574   6
   1   3  -5 833.194 34.5694   5
  -1   3   5 863.306 31.7192   1
   1   3  -5 871.970 44.0051   4
  -1   3   5 835.624 37.3470   7
  -1   3   5 843.521 31.5136   2
   1   3  -5 845.078 26.1771   1
  -1  -3  -5 1613.22 46.0368   2
  -1  -3  -5 1555.12 53.0080   6
  -1  -3  -5 1579.56 49.8895   1
  -1  -3  -5 1522.66 50.1315   4
  -1  -3  -5 1582.15 51.2316   7
   1  -3   5 1644.64 48.6969   5
   1  -3   5 1601.35 46.3817   6
   1  -3   5 1529.79 64.5882   4
   1   3   5 1607.60 48.9080   1
  -1   3  -5 1525.39 46.7981   6
  -1   3  -5 1543.44 44.9096   1
  -1   3  -5 1618.59 48.6161   5
  -3  -3  -5 445.599 24.4691   7
  -3  -3  -5 478.557 28.5853   6
   3  -3   5 451.611 23.0353   6
   3  -3   5 450.656 40.7734   4
  -3  -3  -5 465.983 20.3504   2
  -3  -3  -5 428.368 26.0958   1
  -3   3  -5 459.924 21.4845   5
   3   3   5 457.377 24.4898   1
  -3   3  -5 449.711 25.9779   6
  -5  -3  -5 520.326 21.5090   2
   5  -3   5 485.731 41.7515   4
  -5  -3  -5 502.085 32.2374   6
  -5  -3  -5 516.141 24.5101   7
  -5  -3  -5 513.392 29.1469   1
  -5   3  -5 471.045 28.8979   6
  -5   3  -5 537.484 20.7891   5
  -7  -3  -5 483.329 30.9392   1
  -7  -3  -5 443.868 21.8733   7
  -7  -3  -5 409.343 30.6716   6
  -7   3  -5 492.180 17.4122   5
  -7   3  -5 560.976 32.4699   6
  -9  -3  -5 434.068 33.0982   1
  -9  -3  -5 433.778 33.9480   6
  -9  -3  -5 422.073 20.2866   7
   9   3   5 441.659 19.7347   5
   9   3   5 436.752 37.0489   3
  -9   3  -5 507.976 34.3657   6
 -11  -3  -5 382.620 31.9177   1
 -11  -3  -5 381.689 15.9916   7
  11  -3   5 352.140 31.0925   3
 -11  -3  -5 304.730 31.9896   6
 -11   3  -5 401.579 37.0729   6
  11   3   5 373.244 38.5094   3
  11   3   5 350.425 16.6252   5
  13  -3   5 113.126 19.6610   3
 -13  -3  -5 125.238 24.5385   6
 -13  -3  -5 97.0640 24.0823   1
 -13   3  -5 90.7827 23.9186   6
  13   3   5 148.425 29.6097   3
  15  -3   5 157.444 21.2854   3
 -15  -3  -5 162.240 28.7028   1
 -15  -3  -5 132.358 29.0881   6
  15   3   5 127.641 29.3810   3
 -15   3  -5 169.740 30.7758   6
 -17  -3  -5 94.3440 25.2108   1
 -17  -3  -5 69.2455 27.5837   6
 -17   3  -5 26.4763 23.2044   6
  17   3   5 94.7927 27.4306   3
 -19  -3  -5 101.070 31.8986   6
 -19  -3  -5 40.6513 24.0166   1
 -19   3  -5 115.247 33.3458   6
  19   3   5 61.3105 28.9159   3
 -20  -4   5 51.4754 18.4805   7
 -20  -4   5 47.3705 20.2049   1
 -20  -4   5 13.7469 24.4859   4
 -20   4   5 21.0326 24.0450   6
  20   4  -5 51.7530 24.6614   5
 -18  -4   5 186.380 26.2016   1
 -18  -4   5 152.960 21.8037   6
 -18  -4   5 132.512 31.7637   4
  18   4  -5 192.821 31.8498   5
 -18   4   5 158.488 30.2991   7
 -16  -4   5 413.606 44.3289   4
 -16  -4   5 291.827 25.0929   6
 -16  -4   5 359.558 29.4482   1
 -16   4   5 340.177 37.1500   7
  16   4  -5 351.388 33.1515   2
  16   4  -5 295.637 34.5911   5
 -14  -4   5 463.299 42.8974   4
 -14  -4   5 498.064 31.5558   1
 -14  -4   5 466.571 27.6400   6
 -14   4   5 523.669 41.5286   7
 -14   4   5 464.888 28.9479   4
  14   4  -5 507.139 34.1956   2
  14   4  -5 519.363 38.0529   5
 -12  -4   5 874.525 52.9326   4
 -12  -4   5 717.846 30.8871   6
 -12  -4   5 731.357 35.2508   1
  12   4  -5 659.746 37.7010   2
  12   4  -5 759.835 43.0172   5
 -12   4   5 746.807 30.9762   4
 -12   4   5 740.442 45.0665   7
 -12   4   5 782.535 32.4609   4
 -10  -4   5 185.500 19.3477   1
 -10  -4   5 166.819 14.9104   6
 -10  -4   5 149.125 26.4864   4
 -10   4   5 171.749 12.6294   4
 -10   4   5 180.277 26.7604   7
  10   4  -5 139.149 20.1365   2
  10   4  -5 142.163 22.8926   5
 -10   4   5 155.107 13.1846   4
  -8  -4   5 645.735 28.3884   1
  -8  -4   5 633.846 43.9572   4
  -8   4   5 711.592 41.0073   7
   8   4  -5 639.202 33.1450   2
   8   4  -5 608.844 35.7131   5
   6  -4  -5 650.718 32.3303   2
  -6  -4   5 625.011 25.9266   1
  -6  -4   5 611.989 41.9205   4
  -6  -4   5 603.295 20.8910   6
  -6   4   5 612.035 38.3841   7
   6   4  -5 613.173 32.1718   2
  -6   4   5 692.338 32.7210   1
   6   4  -5 638.463 34.6371   5
   6   4  -5 677.734 25.8812   1
  -4  -4   5 845.185 29.7174   1
   4  -4  -5 776.224 35.1954   1
  -4  -4   5 802.054 24.2250   6
   4  -4  -5 851.772 34.8903   2
  -4  -4   5 830.332 47.6865   4
   4   4  -5 837.301 38.5619   5
  -4   4   5 803.472 40.0170   7
   4   4  -5 826.224 36.1993   2
  -4   4   5 866.229 35.2818   1
   4   4  -5 848.679 28.5990   1
  -4   4   5 864.020 34.2543   2
   2  -4  -5 1235.04 34.5600   4
   2  -4  -5 1282.75 41.8360   2
  -2  -4   5 1221.50 38.2720   1
  -2  -4   5 1193.54 48.6644   5
  -2  -4   5 1258.23 56.6981   4
   2  -4  -5 1286.25 34.1758   4
   2  -4  -5 1285.56 44.7906   1
  -2  -4   5 1274.46 34.7280   6
  -2  -4   5 1268.75 45.9674   3
   2   4  -5 1321.52 37.9512   1
   2   4  -5 1237.24 45.6142   2
  -2   4   5 1274.03 41.1797   2
   2   4  -5 1231.23 45.8654   5
   2   4  -5 1194.63 34.9339   6
   0  -4  -5 1102.18 36.0115   2
   0  -4   5 1136.92 56.8982   4
   0  -4  -5 1069.49 43.0003   6
   0  -4  -5 1142.82 42.0628   1
   0  -4   5 1129.97 33.9175   6
   0   4   5 1098.68 36.0120   2
   0   4  -5 1140.47 41.6710   5
   0   4  -5 1162.05 36.4148   1
   0   4   5 1110.04 40.2371   1
   0   4  -5 1075.89 34.7014   6
   2  -4   5 701.165 27.2553   6
  -2  -4  -5 623.245 33.6191   6
  -2  -4  -5 686.313 25.2085   2
   2  -4   5 712.352 46.4168   4
  -2  -4  -5 729.649 33.6753   1
  -2  -4  -5 691.323 33.3586   7
   2   4   5 712.531 32.1243   1
  -2   4  -5 722.679 28.9114   6
  -2   4  -5 727.661 30.2195   5
  -2   4  -5 695.474 29.4926   1
  -4  -4  -5 771.650 33.3356   7
  -4  -4  -5 744.710 37.7800   6
   4  -4   5 795.485 31.6316   6
  -4  -4  -5 724.622 34.5870   1
   4  -4   5 716.750 47.1599   4
  -4  -4  -5 734.135 24.6148   2
  -4   4  -5 761.797 33.0821   6
  -4   4  -5 717.604 29.4092   5
  -4   4  -5 810.989 33.0343   1
   6  -4   5 907.095 53.4760   4
  -6  -4  -5 975.418 29.3448   2
  -6  -4  -5 972.371 43.9986   6
  -6  -4  -5 978.528 37.9890   7
  -6   4  -5 955.767 40.6438   6
  -6   4  -5 991.720 33.0459   5
  -8  -4  -5 555.782 27.6142   7
  -8  -4  -5 536.514 35.5185   1
  -8  -4  -5 566.750 21.0040   2
  -8  -4  -5 577.812 35.3718   6
  -8   4  -5 583.185 22.4198   5
   8   4   5 503.198 39.3301   3
  -8   4  -5 514.732 34.1875   6
 -10  -4  -5 772.952 43.4735   6
 -10  -4  -5 781.475 44.0139   1
 -10  -4  -5 742.322 30.7016   7
  10   4   5 765.649 30.1447   5
  10   4   5 699.549 48.4267   3
 -10   4  -5 788.782 43.1204   6
 -10   4  -5 801.326 24.7220   5
 -12  -4  -5 221.275 29.0072   6
  12  -4   5 219.015 21.2787   3
 -12  -4  -5 221.489 29.7560   1
  12   4   5 217.510 16.0516   5
 -12   4  -5 226.493 30.1679   6
  12   4   5 162.804 30.7936   3
 -14  -4  -5 202.856 31.5184   1
 -14  -4  -5 158.525 27.4270   6
  14  -4   5 209.121 21.2731   3
  14   4   5 158.219 29.5464   3
 -14   4  -5 155.857 28.6162   6
 -16  -4  -5 104.345 28.3249   1
 -16  -4  -5 120.732 29.7232   6
 -16   4  -5 123.953 30.1840   6
  16   4   5 101.439 29.6373   3
 -18  -4  -5 48.9757 26.9256   1
 -18  -4  -5 82.6068 28.7584   6
  18   4   5 71.7820 27.0190   3
 -18   4  -5 52.6344 26.6667   6
 -19  -5   5 92.8010 22.4083   1
 -19  -5   5 89.3978 33.2330   4
  19   5  -5 77.8761 25.9372   5
 -17  -5   5 268.561 29.9922   1
 -17  -5   5 179.624 36.8504   4
  17   5  -5 172.052 31.7960   5
  17   5  -5 262.214 29.9054   2
 -15  -5   5 348.690 43.9145   4
 -15  -5   5 361.612 29.9680   1
 -15  -5   5 270.257 23.2598   6
  15   5  -5 382.028 31.7592   2
  15   5  -5 346.976 36.8270   5
 -13  -5   5 463.611 24.7664   6
 -13  -5   5 492.473 47.6680   4
 -13  -5   5 452.461 30.5037   1
 -13   5   5 447.823 24.4536   4
  13   5  -5 461.808 32.1959   2
  13   5  -5 468.544 39.2488   5
 -11  -5   5 647.776 50.8043   4
 -11  -5   5 653.833 25.6705   6
 -11  -5   5 640.508 33.5188   1
 -11   5   5 653.729 21.9662   4
  11   5  -5 618.192 35.2465   2
 -11   5   5 636.127 23.2968   4
  11   5  -5 677.444 40.9349   5
  -9  -5   5 379.144 25.2176   1
  -9  -5   5 355.599 38.3830   4
  -9  -5   5 363.728 16.4132   6
   9   5  -5 362.596 35.1514   5
   9   5  -5 363.696 27.3781   2
  -7  -5   5 878.675 35.0819   1
  -7  -5   5 885.303 23.0264   6
  -7  -5   5 841.028 52.6850   4
  -7  -5   5 809.919 22.8489   6
   7   5  -5 833.456 42.1817   5
   7   5  -5 932.688 34.2452   1
   7   5  -5 848.346 38.4496   2
  -5  -5   5 1045.98 56.3144   4
  -5  -5   5 1079.43 37.6197   1
   5   5  -5 926.097 43.5172   5
   5   5  -5 1101.91 36.7921   1
   5   5  -5 972.289 41.4521   2
   3  -5  -5 1044.11 43.0002   1
  -3  -5   5 1070.38 56.6326   4
  -3  -5   5 1044.09 37.7350   1
   3   5  -5 1025.34 43.5564   5
   3   5  -5 1071.96 36.3114   1
   3   5  -5 1053.94 43.2690   2
  -3   5   5 1062.62 38.4421   2
   1  -5  -5 946.240 31.9303   4
  -1  -5   5 888.148 53.5072   4
  -1  -5   5 927.300 27.3086   6
   1  -5  -5 910.765 33.1893   2
  -1  -5   5 934.833 38.1144   3
   1  -5  -5 1001.85 40.1401   1
   1   5  -5 934.779 27.7493   6
   1   5  -5 968.452 40.5366   5
   1   5  -5 924.206 34.0396   1
  -1   5   5 920.628 32.8192   2
  -1  -5  -5 484.742 20.6322   2
  -1  -5  -5 403.273 29.7070   1
  -1  -5  -5 451.797 30.6234   6
   1  -5   5 482.372 25.4434   3
   1  -5   5 455.596 20.1914   6
   1  -5   5 465.685 41.5337   4
   1   5   5 486.073 20.3834   2
  -1   5  -5 439.513 21.3041   6
  -1   5  -5 414.234 24.7445   1
  -1   5  -5 452.136 27.4939   5
  -3  -5  -5 941.789 42.2886   1
   3  -5   5 945.470 55.1742   4
  -3  -5  -5 982.782 43.5890   6
   3  -5   5 970.534 34.4488   6
  -3  -5  -5 972.189 28.9043   2
  -3   5  -5 943.615 38.5576   1
  -3   5  -5 994.241 38.6531   5
  -3   5  -5 908.993 35.6437   6
  -5  -5  -5 625.030 36.8203   6
  -5  -5  -5 671.531 19.9622   2
   5  -5   5 667.468 48.5283   4
  -5  -5  -5 768.906 38.8821   1
  -5   5  -5 657.683 30.0436   5
  -5   5  -5 679.351 33.5188   6
  -7  -5  -5 701.904 38.2959   7
  -7  -5  -5 690.982 39.7312   6
   7  -5   5 655.616 52.8281   4
  -7  -5  -5 724.529 39.0920   1
   7   5   5 594.212 42.5614   3
  -7   5  -5 669.337 35.8481   6
  -7   5  -5 729.914 29.8028   5
  -9  -5  -5 965.367 41.0590   7
  -9  -5  -5 1086.67 49.8827   6
  -9   5  -5 972.787 46.8875   6
   9   5   5 976.546 39.3910   5
  -9   5  -5 1040.82 35.7075   5
   9   5   5 940.725 52.0682   3
 -11  -5  -5 432.021 37.2472   6
 -11  -5  -5 336.346 34.8726   1
  11  -5   5 394.601 23.6862   3
 -11   5  -5 428.397 20.9561   5
 -11   5  -5 419.938 36.8645   6
  11   5   5 448.077 39.3257   3
  11   5   5 370.739 23.7040   5
 -13  -5  -5 130.969 26.3622   6
 -13  -5  -5 184.975 30.1622   1
  13   5   5 170.659 31.1745   3
  13   5   5 183.771 17.9325   5
 -13   5  -5 188.206 30.7050   6
 -15  -5  -5 93.8638 27.8125   6
 -15  -5  -5 135.524 27.9917   1
  15   5   5 147.345 33.5487   3
 -15   5  -5 65.3844 23.9881   6
 -17  -5  -5 150.527 31.2705   6
 -17  -5  -5 79.4908 27.1062   1
 -17   5  -5 66.3993 26.4362   6
  17   5   5 96.8389 29.7527   3
 -19  -5  -5 65.0011 28.7803   1
 -20  -6   5 109.872 27.7059   1
 -18  -6   5 95.6283 22.9753   1
 -18  -6   5 105.909 34.8417   4
  18   6  -5 103.152 27.7687   5
 -16  -6   5 229.885 28.6955   1
 -16  -6   5 235.622 42.2977   4
  16   6  -5 219.229 27.5313   2
  16   6  -5 172.911 31.1137   5
 -14  -6   5 491.093 34.6863   1
 -14  -6   5 340.210 44.9243   4
  14   6  -5 403.837 31.4607   2
  14   6  -5 453.273 43.2736   5
 -12  -6   5 451.571 31.5236   1
 -12  -6   5 351.315 44.0031   4
 -12  -6   5 369.516 20.0032   6
  12   6  -5 388.585 30.7554   2
  12   6  -5 368.225 37.9836   5
 -10  -6   5 662.782 50.7222   4
 -10  -6   5 604.811 19.5830   6
 -10  -6   5 672.161 35.2206   1
  10   6  -5 607.759 39.6640   5
  10   6  -5 625.328 35.1270   2
  -8  -6   5 485.192 46.7272   4
  -8  -6   5 535.319 30.9593   1
   8   6  -5 462.237 30.2765   2
   8   6  -5 511.823 35.8321   5
  -6  -6   5 928.165 55.8463   4
  -6  -6   5 973.773 40.3532   1
   6   6  -5 990.729 38.2320   1
   6   6  -5 1000.43 46.6291   5
   6   6  -5 975.539 41.7183   2
   4  -6  -5 806.182 42.2880   1
  -4  -6   5 878.246 36.8752   1
  -4  -6   5 856.008 55.2556   4
   4   6  -5 851.456 38.9810   2
   4   6  -5 831.498 33.9347   1
   4   6  -5 837.828 41.6042   5
  -2  -6   5 1082.46 58.6409   4
  -2  -6   5 1087.83 41.7428   1
   2  -6  -5 1104.14 34.4610   4
   2  -6  -5 1107.53 48.1134   1
  -2   6   5 1111.37 38.6976   2
   2   6  -5 1095.97 46.4109   5
   2   6  -5 1102.18 40.0654   1
   0  -6  -5 767.118 39.8992   1
   0  -6  -5 725.748 31.3596   4
   0  -6   5 764.373 51.3756   4
   0  -6   5 662.320 32.3996   3
   0   6   5 696.309 27.0078   2
   0   6  -5 699.857 35.5291   5
   0   6  -5 698.003 23.8942   6
   0   6  -5 692.573 31.9227   1
   2  -6   5 344.227 22.3667   3
  -2  -6  -5 328.828 26.0390   4
  -2  -6  -5 367.342 31.1581   6
  -2  -6  -5 265.615 26.7015   1
   2  -6   5 366.054 42.2772   4
  -2   6  -5 309.737 19.8989   6
  -2   6  -5 325.520 26.9207   5
   4  -6   5 463.111 50.7841   4
   4  -6   5 455.130 23.9676   3
  -4  -6  -5 514.774 35.9555   1
  -4  -6  -5 545.999 35.1329   6
  -4   6  -5 525.866 30.4950   5
  -4   6  -5 523.732 28.1122   6
  -6  -6  -5 679.379 39.2226   6
  -6  -6  -5 645.321 40.4574   1
   6  -6   5 650.120 50.8217   4
   6   6   5 651.746 43.7875   3
  -6   6  -5 710.185 33.9134   5
  -6   6  -5 695.381 35.2407   6
  -8  -6  -5 847.240 45.1936   6
   8  -6   5 921.930 58.7193   4
  -8  -6  -5 877.587 47.9350   1
   8   6   5 740.502 47.7113   3
  -8   6  -5 939.487 43.3512   6
  -8   6  -5 839.515 36.8675   5
  10  -6   5 266.596 17.4433   3
 -10  -6  -5 239.090 29.9855   6
 -10  -6  -5 243.557 31.9759   1
  10   6   5 298.855 36.7049   3
  10   6   5 271.018 24.4896   5
 -10   6  -5 268.124 29.8821   6
 -10   6  -5 308.785 23.4130   5
 -12  -6  -5 244.711 30.6691   6
 -12  -6  -5 212.343 31.5476   1
  12   6   5 250.327 36.1184   3
  12   6   5 285.642 22.9090   5
 -12   6  -5 228.055 31.4132   6
 -14  -6  -5 94.6695 26.0409   1
 -14  -6  -5 133.870 28.8674   6
  14   6   5 48.3416 24.8153   3
 -14   6  -5 121.928 28.7789   6
 -16  -6  -5 110.920 29.1337   6
 -16  -6  -5 94.6466 29.1533   1
 -16   6  -5 133.595 31.3317   6
  16   6   5 126.349 33.3463   3
 -18  -6  -5 88.7643 31.2182   1
 -18  -6  -5 125.189 33.1319   6
  18   6   5 151.531 34.7421   3
 -18   6  -5 131.268 33.6836   6
 -19  -7   5 30.3230 34.4635   4
 -19  -7   5 61.4241 24.7160   1
  19   7  -5 139.742 32.8662   5
 -17  -7   5 51.2243 31.8685   4
 -17  -7   5 52.2924 21.8248   1
  17   7  -5 51.1180 20.3527   2
  17   7  -5 58.1568 23.6920   5
 -15  -7   5 194.646 40.6922   4
 -15  -7   5 227.619 28.8738   1
  15   7  -5 224.092 33.9362   5
  15   7  -5 212.982 26.2629   2
 -13  -7   5 381.357 34.2359   1
 -13  -7   5 300.591 42.4849   4
  13   7  -5 315.318 35.8258   5
  13   7  -5 344.749 30.8644   2
 -11  -7   5 476.734 33.0804   1
 -11  -7   5 327.509 43.2646   4
  11   7  -5 422.258 29.4617   2
  11   7  -5 396.563 40.6961   5
  -9  -7   5 503.978 34.6601   1
  -9  -7   5 500.907 47.4937   4
   9   7  -5 442.822 36.6327   5
   9   7  -5 458.033 31.2283   2
  -7  -7   5 265.957 25.9725   1
  -7  -7   5 305.205 42.0632   4
   7   7  -5 311.802 28.4026   2
   7   7  -5 272.134 32.4299   5
  -5  -7   5 791.101 39.4688   1
  -5  -7   5 769.952 53.7589   4
   5  -7  -5 786.586 44.3385   1
   5   7  -5 807.749 43.2972   5
   5   7  -5 743.840 38.2947   2
   3  -7  -5 882.614 29.9329   4
  -3  -7   5 865.885 59.0491   4
  -3  -7   5 879.417 40.6493   1
   3  -7  -5 872.520 45.7647   1
   3   7  -5 858.025 45.3420   5
   3   7  -5 908.241 40.5711   2
  -1  -7   5 612.296 34.9073   1
  -1  -7   5 714.463 55.0754   4
   1  -7  -5 695.192 30.0944   4
   1  -7  -5 584.945 40.4654   1
   1   7  -5 666.989 39.6551   5
  -1   7   5 651.959 27.3673   2
  -1  -7  -5 619.622 40.8980   1
   1  -7   5 625.505 30.3986   3
   1  -7   5 530.345 52.7775   4
  -1  -7  -5 580.080 32.4457   4
   1   7   5 617.161 22.7512   2
  -1   7  -5 583.399 23.3401   6
  -1   7  -5 589.952 36.5341   5
   3  -7   5 490.446 53.9278   4
   3  -7   5 558.044 26.0834   3
  -3  -7  -5 492.047 38.5571   1
  -3  -7  -5 519.237 33.5227   6
  -3  -7  -5 538.342 35.0090   4
  -3   7  -5 505.163 33.2212   5
  -3   7  -5 500.182 25.5635   6
   5  -7   5 540.528 55.9305   4
  -5  -7  -5 599.794 37.8841   6
  -5  -7  -5 659.323 42.1492   4
  -5  -7  -5 682.708 43.1215   1
   5  -7   5 611.036 25.6496   3
  -5   7  -5 615.368 31.9396   6
  -5   7  -5 588.754 35.8514   5
   5   7   5 530.006 45.2043   3
  -7  -7  -5 534.300 40.9563   1
  -7  -7  -5 538.884 37.3236   6
   7  -7   5 509.084 48.6793   4
   7   7   5 502.091 43.5165   3
  -7   7  -5 451.239 32.8973   6
  -7   7  -5 500.666 32.0992   5
  -9  -7  -5 213.413 28.9577   6
  -9  -7  -5 232.157 32.5663   1
   9  -7   5 181.133 35.6886   4
   9   7   5 187.760 33.2576   3
  -9   7  -5 216.557 27.1955   6
  -9   7  -5 183.908 22.9744   5
 -11  -7  -5 185.016 29.1908   6
 -11  -7  -5 169.350 30.3720   1
  11   7   5 137.370 29.6339   3
 -11   7  -5 121.657 21.4170   5
  11   7   5 154.913 22.0794   5
 -11   7  -5 138.932 25.8181   6
 -13  -7  -5 136.519 31.0153   1
 -13  -7  -5 166.134 30.4103   6
  13   7   5 171.397 20.8137   5
  13   7   5 145.509 32.1351   3
 -13   7  -5 149.948 28.5054   6
 -15  -7  -5 108.116 28.8638   1
 -15  -7  -5 112.583 28.0550   6
  15   7   5 107.049 32.1152   3
 -15   7  -5 143.823 30.8398   6
 -17  -7  -5 123.416 32.7067   1
 -17  -7  -5 110.261 30.2427   6
 -17   7  -5 144.464 34.5468   6
  17   7   5 131.245 34.5594   3
 -16  -8   5 45.3403 22.9800   1
 -16  -8   5 47.3386 30.7101   4
  16   8  -5 39.7854 26.0178   5
 -14  -8   5 120.825 25.4108   1
 -14  -8   5 99.9607 35.1316   4
  14   8  -5 173.896 33.4397   5
  14   8  -5 128.794 21.4867   2
 -12  -8   5 220.236 28.9586   1
 -12  -8   5 211.856 40.0204   4
  12   8  -5 216.141 33.2116   5
  12   8  -5 257.888 26.7065   2
 -10  -8   5 247.721 29.7594   1
 -10  -8   5 269.097 43.8428   4
  10   8  -5 299.576 37.2020   5
  10   8  -5 303.933 28.2259   2
  -8  -8   5 180.959 25.5314   1
  -8  -8   5 211.048 38.7130   4
   8   8  -5 212.252 24.2972   2
   8   8  -5 200.455 29.3485   5
  -6  -8   5 170.105 25.0419   1
  -6  -8   5 138.030 33.2640   4
   6   8  -5 174.687 23.5032   2
   6   8  -5 152.264 27.4857   5
   4  -8  -5 603.119 24.1631   4
  -4  -8   5 559.611 37.6623   1
   4  -8  -5 658.961 43.7654   1
  -4  -8   5 630.278 56.3450   4
   4   8  -5 651.359 40.6399   5
   4   8  -5 628.182 35.8974   2
  -2  -8   5 577.232 55.5201   4
  -2  -8   5 581.898 36.0291   1
   2  -8  -5 568.807 29.0366   4
   2  -8  -5 572.384 42.5072   1
  -2   8   5 558.985 26.9613   2
   2   8  -5 613.410 41.0377   5
   0  -8  -5 609.176 32.8406   4
   0  -8   5 582.619 57.9334   4
   0  -8  -5 490.014 41.2192   1
   0   8  -5 554.593 18.2174   6
   0   8  -5 623.894 40.4923   5
   0   8   5 561.474 23.8055   2
  -2  -8  -5 454.046 32.0611   4
   2  -8   5 384.521 48.7481   4
  -2  -8  -5 479.286 37.6947   1
   2  -8   5 408.563 24.0681   3
  -2   8  -5 474.932 35.0313   5
  -2   8  -5 426.770 21.7448   6
   2   8   5 391.762 17.0835   2
   2   8   5 351.405 36.6735   3
  -4  -8  -5 259.749 32.8571   1
  -4  -8  -5 222.636 28.0988   4
   4  -8   5 196.407 38.3871   4
   4   8   5 280.490 36.1349   3
  -4   8  -5 276.884 30.8399   5
  -4   8  -5 271.021 22.2834   6
  -6  -8  -5 310.723 35.2708   1
   6  -8   5 264.804 41.6030   4
  -6  -8  -5 321.529 34.9617   4
  -6  -8  -5 365.553 32.9704   6
  -6   8  -5 352.231 32.7626   5
  -6   8  -5 339.684 27.0899   6
   6   8   5 292.922 37.0744   3
  -8  -8  -5 191.223 32.2992   4
   8  -8   5 178.044 36.5002   4
  -8  -8  -5 134.422 26.5516   1
  -8  -8  -5 149.406 25.9413   6
  -8   8  -5 164.769 24.7711   5
  -8   8  -5 178.918 23.9694   6
   8   8   5 164.806 30.1280   3
  10  -8   5 101.158 29.8187   4
 -10  -8  -5 105.483 24.5588   6
 -10  -8  -5 115.816 28.9504   1
 -10  -8  -5 127.410 31.0197   4
 -10   8  -5 113.965 21.5955   5
 -10   8  -5 88.0192 22.1045   6
  10   8   5 91.6850 26.5323   3
  10   8   5 100.538 23.6278   5
 -12  -8  -5 117.680 29.9266   1
 -12  -8  -5 99.3449 25.2055   6
 -12  -8  -5 102.867 30.8198   4
 -12   8  -5 117.260 25.7581   6
  12   8   5 77.9823 30.0271   3
  12   8   5 91.0158 21.0845   5
 -14  -8  -5 99.9794 27.0898   6
 -14  -8  -5 84.6210 27.6728   1
 -14  -8  -5 77.0529 30.3985   4
  14   8   5 83.8727 28.9713   3
 -14   8  -5 80.1873 26.9787   6
 -16  -8  -5 106.302 34.4772   4
 -16  -8  -5 127.413 30.3611   6
 -16  -8  -5 79.0750 30.2996   1
  16   8   5 42.6354 28.6240   3
 -16   8  -5 66.0111 28.5095   6
 -15  -9   5 58.1936 32.6977   4
 -15  -9   5 23.9848 23.0428   1
  15   9  -5 25.9089 23.8843   5
 -13  -9   5 80.6839 25.8843   1
 -13  -9   5 50.8723 33.9991   4
  13   9  -5 69.1440 18.1928   2
  13   9  -5 35.1084 25.9308   5
 -11  -9   5 82.1888 23.9121   1
 -11  -9   5 83.1648 32.8358   4
  11   9  -5 96.9363 26.6534   5
  11   9  -5 121.329 20.0377   2
  -9  -9   5 63.2786 29.5139   4
  -9  -9   5 67.8108 23.1688   1
   9   9  -5 88.5397 25.4438   5
   9   9  -5 66.0553 18.4475   2
  -7  -9   5 131.443 37.7511   4
  -7  -9   5 109.756 25.2523   1
   7   9  -5 149.880 22.2149   2
   7   9  -5 107.823 27.0986   5
  -5  -9   5 86.3159 23.1455   1
   5  -9  -5 43.3985 20.9354   1
  -5  -9   5 89.7807 31.5373   4
   5   9  -5 58.2853 22.9617   5
   5   9  -5 80.8460 19.5002   2
  -3  -9   5 196.330 26.6523   1
   3  -9  -5 163.042 19.7711   4
  -3  -9   5 166.963 38.5325   4
   3  -9  -5 182.337 30.1466   1
   3   9  -5 176.216 28.8592   5
   1  -9  -5 111.410 27.3678   1
  -1  -9   5 165.523 25.1067   1
   1  -9  -5 185.089 21.6238   4
  -1  -9   5 71.3767 32.3140   4
  -1   9   5 185.321 29.7567   3
   1   9  -5 165.991 28.4902   5
  -1  -9  -5 74.1379 18.3221   4
  -1  -9  -5 76.8563 24.6509   1
   1  -9   5 76.7158 35.4223   4
   1   9   5 77.1332 26.4971   3
  -1   9  -5 156.039 28.0330   5
  -1   9  -5 114.852 11.7613   6
  -3  -9  -5 32.2724 23.4777   1
  -3  -9  -5 59.8962 19.3058   4
   3  -9   5 55.3127 32.9578   4
  -3   9  -5 60.0899 20.9531   5
   3   9   5 55.0096 23.4080   3
  -3   9  -5 57.7804 12.6702   6
  -5  -9  -5 87.8858 26.6009   1
  -5  -9  -5 124.635 26.4798   4
   5  -9   5 140.471 39.0266   4
  -5   9  -5 142.208 18.9451   6
  -5   9  -5 85.8735 23.8558   5
   5   9   5 113.893 26.6884   3
  -7  -9  -5 152.478 26.1237   6
  -7  -9  -5 139.666 28.4504   1
  -7  -9  -5 133.513 28.0014   4
   7  -9   5 147.646 37.5785   4
   7   9   5 152.140 29.7091   3
  -7   9  -5 147.024 26.2724   5
  -7   9  -5 133.470 21.7376   6
  -9  -9  -5 56.7975 24.5711   4
  -9  -9  -5 102.707 23.7568   6
   9  -9   5 114.954 35.8522   4
  -9  -9  -5 94.0966 27.5419   1
  -9   9  -5 61.5756 23.2100   5
   9   9   5 102.299 28.1952   3
  -9   9  -5 65.2739 21.9956   6
 -11  -9  -5 63.1003 23.8657   6
 -11  -9  -5 53.3753 26.0897   1
 -11  -9  -5 45.8016 26.2670   4
  11   9   5 44.4695 21.2654   5
 -11   9  -5 36.4593 21.5585   6
  11   9   5 53.6629 26.3428   3
 -13  -9  -5 16.6394 24.6734   1
 -13  -9  -5 45.8341 26.7506   4
 -13  -9  -5 34.1782 22.3228   6
 -13   9  -5 14.6365 22.7182   6
  13   9   5 30.0714 25.7179   3
 -14 -10   5 4.85494 31.3764   4
 -14 -10   5 -30.180 23.3439   1
  14  10  -5 -6.0464 22.5015   5
 -12 -10   5 36.1064 30.7910   4
 -12 -10   5 22.3712 24.9257   1
  12  10  -5 31.9605 26.6353   5
 -10 -10   5 -1.9601 26.5734   4
 -10 -10   5 -8.4164 21.2215   1
  10  10  -5 6.06677 13.4357   2
  10  10  -5 52.8019 25.9408   5
  -8 -10   5 36.1796 23.2508   1
  -8 -10   5 35.0991 32.8684   4
   8  10  -5 13.9666 23.6037   5
   8  10  -5 31.3365 16.3577   2
  -6 -10   5 93.5216 38.6321   4
  -6 -10   5 17.3797 21.5597   1
  -6  10   5 1.31503 20.4404   3
   6  10  -5 42.5403 17.6982   2
   6  10  -5 13.6155 21.6871   5
  -4 -10   5 34.5799 33.7546   4
  -4 -10   5 53.4738 22.3824   1
   4 -10  -5 22.8039 21.8148   1
   4  10  -5 0.12237 16.8239   2
  -4  10   5 -40.030 18.6972   3
   4  10  -5 1.65192 20.5966   5
   2 -10  -5 38.6412 23.5314   1
  -2 -10   5 73.2345 22.7062   1
  -2 -10   5 44.5193 32.3982   4
  -2  10   5 55.7679 23.2043   3
   2  10  -5 77.2276 24.7657   5
   0 -10  -5 16.4331 23.8428   1
   0 -10   5 14.4643 33.3993   4
   0 -10  -5 5.01824 14.5646   4
   0  10  -5 26.3115 20.1211   5
   0  10   5 0.90313 19.8021   3
   2 -10   5 -37.650 32.2143   4
  -2 -10  -5 18.0477 15.8992   4
  -2 -10  -5 2.28978 21.5730   1
  -2  10  -5 -36.133 18.5845   5
   2  10   5 1.37902 20.5957   3
  -4 -10  -5 64.1491 27.9850   1
  -4 -10  -5 44.6491 21.0128   4
   4 -10   5 69.9841 35.3596   4
   4  10   5 50.6723 22.5560   3
  -4  10  -5 39.1727 22.7716   5
  -6 -10  -5 80.9730 29.9378   1
  -6 -10  -5 62.7015 22.9999   4
   6 -10   5 56.1796 32.8840   4
  -6  10  -5 53.2279 16.5422   6
   6  10   5 16.2362 22.3610   3
  -6  10  -5 59.9310 23.1547   5
  -8 -10  -5 52.0955 21.8206   6
  -8 -10  -5 31.3190 23.5213   4
   8 -10   5 43.3549 31.7366   4
  -8 -10  -5 63.2005 26.7482   1
   8  10   5 76.5994 26.3461   3
  -8  10  -5 51.5273 17.9666   6
  -8  10  -5 12.9481 22.4551   5
 -10 -10  -5 59.9982 22.8001   6
 -10 -10  -5 39.3993 27.4453   1
 -10 -10  -5 6.28899 21.7470   4
  10 -10   5 79.6543 31.8665   4
  10  10   5 8.82889 23.0567   3
  10  10   5 16.2887 22.2649   5
 -10  10  -5 10.3766 19.7740   6
 -12 -10  -5 5.91050 24.8344   4
 -12 -10  -5 -17.279 24.1602   1
 -12 -10  -5 0.09528 20.6459   6
  12  10   5 34.4070 25.3638   3
  12  10   5 6.71843 18.2196   5
 -12  10  -5 -5.8710 20.4195   6
 -11 -11   5 -2.1227 29.9215   4
 -11 -11   5 -22.612 23.9130   1
  11  11  -5 19.2649 25.2182   5
  -9 -11   5 -36.638 29.7820   4
  -9 -11   5 -2.7554 24.2005   1
   9  11  -5 29.8820 23.6372   5
  -7 -11   5 -1.7778 22.4901   1
  -7 -11   5 18.4128 34.1465   4
   7  11  -5 3.41017 23.5932   5
   7  11  -5 0.94731 15.5329   2
   5 -11  -5 25.6056 22.6779   1
  -5 -11   5 2.77089 22.1774   1
  -5 -11   5 3.11478 33.5826   4
   5  11  -5 15.7489 24.5945   5
   5  11  -5 -0.8111 16.1234   2
  -3 -11   5 -0.7251 20.9042   1
   3 -11  -5 7.79625 22.8105   1
  -3 -11   5 -25.410 33.2261   4
  -3  11   5 40.1884 19.4366   3
   3  11  -5 -24.448 19.4895   5
   3  11  -5 19.1194 19.5584   2
  -1 -11   5 -11.014 34.0459   4
   1 -11  -5 37.4160 27.1972   1
  -1 -11   5 7.79504 19.1893   1
   1  11  -5 38.5310 23.1705   5
  -1  11   5 35.4370 19.4009   3
  -1 -11  -5 23.2157 26.8327   1
   1 -11   5 -1.8222 35.2330   4
   1  11   5 15.2831 19.4499   3
  -1  11  -5 15.2924 23.3046   5
  -3 -11  -5 -2.3623 18.9610   4
   3 -11   5 -12.720 35.4626   4
  -3 -11  -5 -35.298 25.1387   1
  -3  11  -5 -7.8156 22.8385   5
   3  11   5 31.0186 21.2637   3
  -5 -11  -5 3.15197 21.4463   4
   5 -11   5 46.3295 38.3264   4
  -5 -11  -5 -29.138 24.6949   1
   5  11   5 41.6358 23.5578   3
  -5  11  -5 2.83786 21.9860   5
  -7 -11  -5 -18.803 25.9751   1
  -7 -11  -5 -2.9989 21.8910   4
   7 -11   5 19.8903 32.2592   4
   7  11   5 30.7155 25.0625   3
  -7  11  -5 22.9472 22.9796   5
  -9 -11  -5 4.09015 24.0294   4
   9 -11   5 61.9993 33.1229   4
  -9 -11  -5 -17.868 23.9457   1
  -9  11  -5 -33.503 21.1385   5
   9  11   5 10.4525 21.6805   3
   9  11   5 -27.609 23.5344   5
 -11 -11  -5 -1.0375 29.5588   1
 -11 -11  -5 7.14240 26.6413   4
  11  11   5 28.6667 23.6384   5
  11  11   5 21.2704 25.6854   3
 -10 -12   5 -29.987 32.4117   4
 -10 -12   5 -34.299 24.8050   1
  10  12  -5 11.6403 26.4768   5
  -8 -12   5 1.32765 34.1186   4
  -8 -12   5 -0.5613 26.3747   1
   8  12  -5 34.4563 26.9825   5
  -6 -12   5 55.2216 26.9116   1
  -6 -12   5 0.40008 34.1177   4
   6  12  -5 21.6311 24.8294   5
  -4 -12   5 -52.523 30.5586   4
  -4 -12   5 36.4594 24.8054   1
   4 -12  -5 8.47509 22.3335   1
   4  12  -5 -12.941 16.1637   2
   4  12  -5 24.8024 24.6095   5
  -2 -12   5 4.91373 20.5630   1
  -2 -12   5 -52.947 32.4672   4
   2 -12  -5 21.7693 26.8202   1
   2  12  -5 17.7166 24.0411   5
   0 -12   5 -17.698 37.6680   4
   0 -12  -5 2.50402 24.9212   1
   0  12  -5 6.16760 21.4646   5
   0  12   5 24.0286 19.0865   3
  -2 -12  -5 -30.960 25.4668   1
   2 -12   5 -24.446 35.5847   4
   2  12   5 17.9624 19.3699   3
  -2  12  -5 34.2229 24.7809   5
   4 -12   5 -15.354 38.9796   4
  -4 -12  -5 13.1395 30.8789   1
   4  12   5 38.5654 22.5797   3
  -4  12  -5 -27.467 20.8389   5
  -6 -12  -5 4.17507 23.9774   4
  -6 -12  -5 -60.535 26.2600   1
   6 -12   5 17.0418 35.9757   4
  -6  12  -5 -6.2550 23.5050   5
   6  12   5 16.7092 21.8747   3
  -8 -12  -5 -41.477 25.6214   1
   8 -12   5 24.9535 33.2778   4
  -8 -12  -5 3.76794 24.2672   4
  -8  12  -5 7.75819 24.4700   5
   8  12   5 6.14186 22.6677   3
  -5 -13   5 -1.9854 24.9111   1
  -5 -13   5 -14.145 39.6197   4
   5  13  -5 -18.845 21.7629   5
  -3 -13   5 -39.211 36.6018   4
  -3 -13   5 2.86692 22.6702   1
   3 -13  -5 13.0931 27.3357   1
   3  13  -5 26.6687 25.6232   5
   1 -13  -5 33.3280 28.6304   1
  -1 -13   5 -95.907 33.4034   4
   1  13  -5 18.8596 26.8249   5
   1 -13   5 -85.371 40.4702   4
  -1 -13  -5 -9.3013 29.4852   1
  -1  13  -5 5.96735 22.3469   5
   3 -13   5 -66.753 41.4554   4
  -3 -13  -5 0.35877 26.8135   1
  -3  13  -5 32.5912 23.9893   5
   3  13   5 28.7278 21.8478   3
 -20   0   6 176.426 28.2414   7
 -20   0   6 177.868 28.3317   6
 -20   0   6 165.974 24.9700   1
 -20   0   6 174.174 32.3962   4
 -18   0   6 233.620 33.7665   4
 -18   0   6 151.298 25.5079   6
 -18   0   6 177.272 27.7447   7
 -18   0   6 219.425 25.5977   1
 -16   0   6 244.191 30.2477   7
 -16   0   6 196.762 22.5528   1
 -16   0   6 242.472 31.7260   4
 -14   0   6 854.372 46.6128   7
 -14   0   6 809.481 45.2902   4
  14   0  -6 684.397 41.6931   2
  12   0  -6 994.689 46.5783   2
 -12   0   6 1006.00 48.0861   4
 -12   0   6 1010.33 50.0244   7
  10   0  -6 1358.21 52.7223   2
 -10   0   6 1270.34 55.6879   7
 -10   0   6 1367.30 53.2637   4
  -8   0   6 1149.19 45.2566   4
   8   0  -6 1064.60 44.7718   2
  -8   0   6 1162.56 48.6561   7
  -6   0   6 518.137 33.6621   7
  -6   0   6 575.428 31.0458   4
   6   0  -6 557.979 30.0684   2
   6   0  -6 608.133 29.5185   4
  -6   0   6 537.089 19.4656   1
  -6   0   6 566.304 28.8395   6
  -4   0   6 1510.43 52.7575   4
   4   0  -6 1576.65 52.7934   2
   4   0  -6 1517.05 51.2600   4
  -4   0   6 1535.48 49.1441   6
  -4   0   6 1527.52 54.0553   7
   2   0  -6 1870.64 59.7830   4
   2   0  -6 1752.36 55.8420   6
   2   0  -6 1798.21 57.6414   2
  -2   0   6 1768.97 60.2053   4
  -2   0   6 1737.31 54.7598   6
  -2   0   6 1867.65 55.9674   5
  -2   0   6 1833.87 59.3486   7
   0   0  -6 1854.65 57.9340   2
   0   0  -6 1745.26 56.5919   6
   0   0   6 1857.71 54.0463   5
   0   0  -6 1891.32 46.7541   1
   0   0  -6 1889.63 63.1502   4
   0   0   6 1826.77 57.9144   7
   0   0   6 1826.16 56.3284   6
   0   0   6 1854.34 62.6899   4
   2   0   6 1146.34 40.5262   7
  -2   0  -6 1218.03 36.3260   1
  -2   0  -6 1127.53 42.4757   2
  -2   0  -6 1194.26 44.7829   6
  -2   0  -6 1193.60 51.0609   4
   2   0   6 1206.02 37.0153   5
  -4   0  -6 1373.53 43.9759   1
   4   0   6 1390.39 43.1068   7
   4   0   6 1417.02 38.5099   5
  -4   0  -6 1352.24 50.7977   6
  -6   0  -6 1022.61 39.4558   1
  -6   0  -6 1014.17 44.3822   6
   6   0   6 988.098 31.8107   7
  -8   0  -6 1256.59 53.4361   6
  -8   0  -6 1310.11 48.9399   1
 -10   0  -6 928.660 44.1727   1
 -10   0  -6 1018.96 49.2932   6
  12   0   6 549.404 42.9656   3
 -12   0  -6 564.718 38.3082   1
 -12   0  -6 530.721 41.3380   6
 -14   0  -6 325.789 35.2259   6
  14   0   6 358.864 36.8703   3
 -14   0  -6 316.991 33.4464   1
 -16   0  -6 13.3771 21.0921   1
  16   0   6 99.5316 25.6501   3
 -16   0  -6 30.2529 24.0710   6
  18   0   6 158.049 30.0797   3
 -18   0  -6 92.0784 29.7576   6
 -18   0  -6 133.538 29.8414   1
 -21  -1   6 99.5084 29.4091   4
 -21  -1   6 132.724 26.5031   6
 -21  -1   6 135.481 26.9259   7
 -21  -1   6 140.390 24.4007   1
 -21   1   6 155.059 25.2450   1
 -21   1   6 168.529 30.2788   6
 -21   1   6 143.270 27.8046   7
 -19  -1   6 235.340 27.6662   1
 -19  -1   6 231.808 30.3661   7
 -19  -1   6 173.339 25.7063   6
 -19  -1   6 162.786 32.1453   4
 -19   1   6 195.745 30.5197   7
 -19   1   6 216.468 30.4341   6
 -17  -1   6 225.072 27.1813   6
 -17  -1   6 185.772 23.7275   1
 -17  -1   6 170.229 31.2611   4
 -17  -1   6 189.820 29.1372   7
 -17   1   6 182.080 28.7900   4
 -17   1   6 169.622 26.2394   7
 -15  -1   6 342.432 27.4124   1
 -15  -1   6 356.106 35.9040   4
 -15  -1   6 334.591 35.1723   7
  15   1  -6 321.699 33.1813   2
 -15   1   6 397.528 36.0857   7
 -15   1   6 401.039 34.7553   4
 -13  -1   6 889.098 49.4557   4
 -13  -1   6 916.989 48.4779   7
  13  -1  -6 895.774 47.0749   2
 -13  -1   6 882.944 38.1306   1
  13   1  -6 939.622 46.8346   2
 -13   1   6 870.481 44.6425   4
 -13   1   6 950.039 47.6154   7
 -11  -1   6 839.026 44.8825   4
 -11  -1   6 863.655 34.2888   1
  11  -1  -6 831.798 42.3054   2
 -11  -1   6 881.051 44.8880   7
  11   1  -6 955.440 43.2239   2
 -11   1   6 927.174 47.4355   7
 -11   1   6 875.532 40.4002   4
  -9  -1   6 1026.23 46.9126   4
   9  -1  -6 994.905 43.6394   2
  -9  -1   6 996.445 33.3969   1
  -9   1   6 1004.85 47.4558   7
   9   1  -6 955.554 43.7937   2
   9   1  -6 988.033 46.0507   5
  -9   1   6 996.092 39.7147   4
   7  -1  -6 768.143 36.7645   2
  -7  -1   6 818.245 39.9173   4
  -7  -1   6 811.011 25.9274   1
  -7  -1   6 903.620 34.5520   6
   7   1  -6 838.859 38.9077   2
   7   1  -6 846.535 40.6835   5
  -7   1   6 858.793 29.7608   1
  -7   1   6 757.949 33.6728   4
   7   1  -6 862.102 38.9834   4
  -7   1   6 925.550 43.1771   7
   5  -1  -6 876.474 37.2719   2
  -5  -1   6 956.613 34.6179   6
   5  -1  -6 928.227 33.8656   4
  -5  -1   6 908.102 41.6659   4
  -5   1   6 948.113 35.6081   4
  -5   1   6 919.415 42.1983   7
   5   1  -6 951.071 41.0667   5
  -5   1   6 903.561 28.3433   1
   5   1  -6 879.155 38.8688   2
   5   1  -6 925.276 40.1312   4
  -3  -1   6 1543.26 51.1826   5
  -3  -1   6 1632.33 58.6033   4
   3  -1  -6 1537.29 51.9387   2
  -3  -1   6 1626.04 49.2321   6
   3  -1  -6 1608.91 50.0330   4
  -3   1   6 1678.76 55.7640   6
   3   1  -6 1610.92 53.2005   5
  -3   1   6 1559.85 55.2702   7
   3   1  -6 1481.56 52.2635   2
  -3   1   6 1582.35 40.9478   1
   3   1  -6 1573.83 56.0642   4
  -3   1   6 1539.96 51.6977   5
  -3   1   6 1556.10 50.5047   4
  -1  -1   6 1520.75 46.3013   6
   1  -1  -6 1426.26 49.8219   4
   1  -1  -6 1417.74 49.0754   6
   1  -1  -6 1436.69 47.6930   2
  -1  -1   6 1485.92 46.7048   5
   1  -1  -6 1436.40 39.2536   1
  -1  -1   6 1448.99 56.4997   4
  -1   1   6 1436.94 46.4846   5
  -1   1   6 1420.54 38.4324   1
  -1   1   6 1439.97 49.6543   4
   1   1  -6 1376.40 46.5710   5
  -1   1   6 1495.07 52.7224   6
   1   1  -6 1392.19 46.7209   6
  -1   1   6 1490.50 50.9368   7
   1   1  -6 1370.42 48.6000   2
   1   1  -6 1450.10 53.6992   4
  -1  -1  -6 1649.88 46.8699   1
   1  -1   6 1617.24 48.8798   5
   1  -1   6 1701.38 51.7929   6
  -1  -1  -6 1703.16 58.7444   4
   1  -1   6 1623.56 62.4026   4
  -1  -1  -6 1637.07 52.2474   2
  -1  -1  -6 1757.33 55.7756   6
  -1   1  -6 1699.62 53.4307   6
   1   1   6 1679.92 53.5968   7
  -1   1  -6 1697.70 43.8658   1
   1   1   6 1658.15 49.5331   5
  -1   1  -6 1632.21 62.0519   4
   3  -1   6 1420.09 45.3786   7
   3  -1   6 1429.38 41.0027   5
  -3  -1  -6 1430.48 44.8130   1
  -3  -1  -6 1421.33 47.0643   2
  -3  -1  -6 1403.70 55.5836   4
  -3  -1  -6 1438.83 50.7881   6
   3  -1   6 1473.26 60.3485   4
   3   1   6 1415.99 41.8200   5
   3   1   6 1418.38 46.2667   7
  -3   1  -6 1430.93 42.7775   1
  -3   1  -6 1446.05 50.5028   6
  -5  -1  -6 721.105 37.8481   6
   5  -1   6 671.610 26.2243   7
  -5  -1  -6 675.666 31.2164   1
   5   1   6 697.885 22.5596   5
  -5   1  -6 711.273 34.4764   6
  -5   1  -6 681.529 30.0282   1
   5   1   6 687.320 28.2306   7
  -7  -1  -6 538.291 36.1126   6
   7  -1   6 621.242 21.2956   7
  -7  -1  -6 577.449 31.7686   1
  -7   1  -6 671.308 37.2221   6
  -9  -1  -6 798.783 39.3643   1
  -9  -1  -6 812.054 44.6903   6
  -9   1  -6 807.685 39.4130   1
  -9   1  -6 794.762 43.6244   6
 -11  -1  -6 682.681 39.2443   1
 -11  -1  -6 568.706 38.9001   6
  11   1   6 569.629 44.7217   3
 -11   1  -6 613.031 39.4969   6
 -11   1  -6 583.148 37.2504   1
  13  -1   6 459.543 37.2068   3
 -13  -1  -6 467.290 37.4012   1
 -13  -1  -6 388.242 38.2776   6
 -13   1  -6 434.316 35.7297   1
  13   1   6 513.856 42.3066   3
 -13   1  -6 476.536 40.7313   6
 -15  -1  -6 139.117 27.2320   1
  15  -1   6 234.038 31.0162   3
 -15  -1  -6 204.665 32.8609   6
  15   1   6 169.991 30.4457   3
 -15   1  -6 159.666 30.7900   6
 -15   1  -6 148.074 27.3298   1
 -17  -1  -6 49.1523 25.1715   6
 -17  -1  -6 91.4082 24.8764   1
  17  -1   6 154.210 27.8078   3
 -17   1  -6 112.632 31.5500   6
  17   1   6 95.3532 27.3182   3
 -17   1  -6 112.570 26.8228   1
 -19  -1  -6 145.194 30.6242   1
 -19  -1  -6 118.142 33.6818   6
  19   1   6 123.638 28.8427   3
 -19   1  -6 95.8383 32.8041   6
 -19   1  -6 122.490 30.3534   1
 -20  -2   6 65.6319 25.3800   4
 -20  -2   6 81.6059 21.6500   7
 -20  -2   6 101.172 20.9629   6
 -20  -2   6 124.360 22.9196   1
 -20   2   6 135.872 28.9354   7
 -20   2   6 77.4937 24.2984   6
 -18  -2   6 146.945 22.0523   1
 -18  -2   6 129.747 21.4263   6
 -18  -2   6 140.787 25.5752   7
 -18  -2   6 89.7783 25.4104   4
 -18   2   6 134.141 26.9876   7
 -16  -2   6 188.527 28.0548   7
 -16  -2   6 254.303 26.1060   1
 -16  -2   6 263.063 25.8223   6
 -16  -2   6 269.311 35.0429   4
  16   2  -6 281.680 30.9692   2
 -16   2   6 215.445 28.2738   4
 -16   2   6 303.045 34.9873   7
 -14  -2   6 293.110 25.2154   1
 -14  -2   6 350.687 36.4316   4
 -14  -2   6 261.068 30.6680   7
 -14   2   6 315.699 32.4902   7
  14   2  -6 304.730 31.9877   2
  14   2  -6 307.043 34.7946   5
 -14   2   6 275.004 28.1725   4
 -12  -2   6 744.747 33.0420   1
 -12  -2   6 700.570 44.5213   4
  12  -2  -6 752.827 40.4958   2
 -12   2   6 726.169 35.2920   4
  12   2  -6 728.931 42.0175   5
 -12   2   6 717.201 44.1253   7
  12   2  -6 715.366 40.3406   2
  10  -2  -6 606.135 36.9212   2
 -10  -2   6 576.942 26.6502   1
 -10  -2   6 541.154 38.0317   4
 -10   2   6 613.441 31.1488   1
 -10   2   6 650.358 30.0930   4
  10   2  -6 631.524 36.5850   2
 -10   2   6 678.209 40.8080   7
  10   2  -6 602.449 38.3853   5
  -8  -2   6 487.067 33.8710   4
  -8  -2   6 514.818 21.2426   1
   8  -2  -6 457.771 29.6892   2
  -8   2   6 496.398 35.4271   7
   8   2  -6 517.718 32.6659   5
  -8   2   6 499.515 26.4463   1
   8   2  -6 463.482 29.3984   2
  -8   2   6 484.630 23.5816   4
  -6  -2   6 795.276 23.2880   1
  -6  -2   6 788.987 30.2556   6
   6  -2  -6 766.719 35.4574   2
  -6  -2   6 731.483 40.8297   4
  -6   2   6 749.206 29.7051   1
  -6   2   6 781.015 40.4934   7
   6   2  -6 800.600 38.7683   5
   6   2  -6 756.405 36.6370   2
   6   2  -6 783.975 39.6475   4
  -6   2   6 763.593 27.0029   4
  -4  -2   6 937.581 45.7162   4
   4  -2  -6 905.074 29.9714   4
  -4  -2   6 903.961 32.6543   6
   4  -2  -6 896.453 37.6888   2
  -4   2   6 967.109 30.8592   4
   4   2  -6 806.298 37.4330   2
  -4   2   6 958.791 30.9486   1
   4   2  -6 899.357 39.7416   5
  -4   2   6 913.620 41.1676   7
   4   2  -6 931.871 43.3217   4
  -2  -2   6 1588.14 50.8517   5
   2  -2  -6 1587.70 45.0186   1
  -2  -2   6 1555.84 62.2171   4
   2  -2  -6 1561.48 48.0536   4
  -2  -2   6 1483.86 46.1140   6
   2  -2  -6 1539.01 50.1958   2
   2   2  -6 1566.42 51.7927   5
   2   2  -6 1563.02 53.5952   2
  -2   2   6 1461.85 49.3708   2
   2   2  -6 1565.20 47.7365   6
   2   2  -6 1539.41 58.5503   4
  -2   2   6 1567.71 43.9146   1
  -2   2   6 1517.34 55.0678   7
   0  -2   6 1691.81 66.9933   4
   0  -2   6 1796.99 52.4531   5
   0  -2  -6 1701.54 55.8788   4
   0  -2   6 1680.90 50.7746   6
   0  -2  -6 1655.28 49.0958   1
   0  -2  -6 1682.11 52.7832   2
   0  -2  -6 1727.15 56.8068   6
   0  -2  -6 1644.75 54.4010   7
   0   2  -6 1700.15 43.2174   1
   0   2  -6 1661.83 52.0925   6
   0   2   6 1690.23 56.7513   7
   0   2  -6 1851.21 71.9935   4
   0   2   6 1751.63 48.5461   1
   0   2  -6 1661.09 52.5884   5
   2  -2   6 1532.44 44.9141   5
  -2  -2  -6 1531.00 46.9638   1
   2  -2   6 1464.52 47.7010   6
  -2  -2  -6 1443.29 46.6149   2
  -2  -2  -6 1456.42 52.4549   6
  -2  -2  -6 1514.74 48.5942   7
  -2  -2  -6 1499.58 55.1355   4
   2  -2   6 1442.16 62.2729   4
   2   2   6 1461.46 50.0136   7
  -2   2  -6 1509.30 50.0100   6
  -2   2  -6 1494.15 45.0352   5
   2   2   6 1522.84 45.9333   1
  -4  -2  -6 427.453 22.3446   7
  -4  -2  -6 405.701 32.1288   4
  -4  -2  -6 432.029 28.9928   6
  -4  -2  -6 371.435 22.3662   2
  -4  -2  -6 408.733 24.6987   1
   4  -2   6 388.960 38.3976   4
  -4   2  -6 432.376 28.1138   6
  -4   2  -6 407.573 18.2780   5
  -6  -2  -6 361.459 29.1895   6
  -6  -2  -6 356.240 26.1396   1
  -6   2  -6 331.248 28.5146   6
  -8  -2  -6 236.345 26.5727   6
   8  -2   6 287.867 12.9335   7
  -8  -2  -6 290.054 25.3722   1
   8   2   6 280.027 12.4994   5
  -8   2  -6 221.214 25.9309   6
 -10  -2  -6 463.959 33.5990   1
 -10  -2  -6 401.773 33.7337   6
 -10   2  -6 403.779 33.4993   6
  12  -2   6 441.076 38.5831   3
 -12  -2  -6 358.395 35.7087   6
 -12  -2  -6 523.950 38.0348   1
  12   2   6 435.284 38.9912   3
 -12   2  -6 378.950 36.6199   6
 -14  -2  -6 135.681 26.7280   6
  14  -2   6 235.419 29.7211   3
 -14  -2  -6 188.272 29.3917   1
 -14   2  -6 165.969 29.8149   6
  14   2   6 184.931 32.4753   3
  16  -2   6 143.539 25.3724   3
 -16  -2  -6 156.338 28.4840   1
 -16  -2  -6 135.186 31.5414   6
 -16   2  -6 151.455 30.5255   6
  16   2   6 165.025 31.8831   3
 -16   2  -6 150.823 28.1637   1
 -18  -2  -6 83.9281 28.5040   6
 -18  -2  -6 40.6822 25.0554   1
  18   2   6 60.1965 25.7008   3
 -18   2  -6 70.7357 29.4242   6
 -18   2  -6 43.4544 23.2459   1
 -21  -3   6 68.9495 28.8308   4
 -21  -3   6 66.8658 21.8497   7
 -21  -3   6 98.7910 22.7754   1
 -21   3   6 36.3175 25.5810   7
 -21   3   6 125.286 30.4248   6
 -19  -3   6 32.1722 16.2270   1
 -19  -3   6 63.2303 18.5099   6
 -19  -3   6 64.7303 24.9789   4
 -19  -3   6 79.3887 22.5739   7
 -19   3   6 112.924 28.6444   7
 -17  -3   6 87.6699 26.0388   4
 -17  -3   6 97.9036 23.3005   7
 -17  -3   6 117.634 21.1024   1
 -17  -3   6 99.1983 18.0402   6
 -17   3   6 136.677 27.8220   7
  17   3  -6 119.999 27.3962   5
  17   3  -6 81.4053 23.1921   2
 -15  -3   6 164.194 20.8863   1
 -15  -3   6 164.156 20.1956   6
 -15  -3   6 145.297 28.4760   4
 -15   3   6 130.213 20.2712   4
 -15   3   6 161.000 27.4726   7
  15   3  -6 174.573 29.2255   5
  15   3  -6 150.706 24.7862   2
 -13  -3   6 90.9965 24.3830   4
 -13  -3   6 144.564 18.2789   1
 -13  -3   6 137.938 17.4878   6
  13   3  -6 115.430 24.7181   5
  13   3  -6 115.145 22.3760   2
 -13   3   6 63.3831 21.5592   7
 -13   3   6 119.702 17.1712   4
 -11  -3   6 544.746 28.1527   1
 -11  -3   6 556.879 41.5769   4
 -11   3   6 551.362 25.4924   4
  11   3  -6 473.532 32.3621   2
 -11   3   6 563.056 40.3244   7
  11   3  -6 553.985 37.0817   5
   9  -3  -6 388.324 29.2843   2
  -9  -3   6 346.792 21.2714   1
  -9  -3   6 348.632 34.2869   4
   9   3  -6 382.316 30.5319   5
   9   3  -6 390.679 29.2838   2
  -9   3   6 372.877 34.4684   7
  -9   3   6 360.836 16.4643   4
  -7  -3   6 445.314 34.5002   4
  -7  -3   6 410.627 20.8040   6
   7  -3  -6 353.435 28.2010   2
  -7  -3   6 378.943 18.8441   1
   7   3  -6 397.098 30.7847   5
  -7   3   6 438.144 25.9790   1
  -7   3   6 451.499 34.4704   7
   7   3  -6 440.246 28.4967   2
  -5  -3   6 504.275 21.5232   6
  -5  -3   6 450.833 17.2444   1
   5  -3  -6 388.015 26.9455   2
  -5  -3   6 470.241 37.5710   4
   5   3  -6 436.601 29.9581   2
  -5   3   6 489.710 24.6172   1
   5   3  -6 471.602 29.4469   5
   3  -3  -6 699.793 29.1849   1
   3  -3  -6 643.937 30.6245   2
  -3  -3   6 699.895 44.7118   4
  -3  -3   6 665.583 25.5569   6
   3  -3  -6 675.303 22.1517   4
  -3   3   6 688.693 27.7351   1
   3   3  -6 661.633 33.5526   2
   3   3  -6 628.543 32.1912   5
   3   3  -6 678.073 19.2016   1
  -3   3   6 668.206 33.8380   2
  -3   3   6 637.798 35.4079   7
   1  -3  -6 1787.59 53.5776   1
   1  -3  -6 1758.94 53.7810   2
  -1  -3   6 1759.42 55.5044   5
   1  -3  -6 1745.39 53.1623   4
  -1  -3   6 1753.78 70.2469   4
  -1  -3   6 1789.15 50.8773   6
   1   3  -6 1734.97 56.4380   5
  -1   3   6 1769.21 51.9884   1
   1   3  -6 1758.60 59.7262   2
  -1   3   6 1771.89 53.9200   2
   1   3  -6 1779.09 45.3734   1
   1   3  -6 1768.71 51.5018   6
  -1   3   6 1833.63 61.1619   7
  -1  -3  -6 891.840 33.7025   2
   1  -3   6 964.662 35.7984   5
  -1  -3  -6 924.101 38.2269   7
  -1  -3  -6 947.520 36.2430   1
  -1  -3  -6 904.736 40.3194   6
  -1  -3  -6 959.208 39.0473   4
   1  -3   6 935.855 33.9300   6
   1  -3   6 903.617 53.2952   4
   1   3   6 946.834 41.1305   7
  -1   3  -6 956.554 30.8096   1
  -1   3  -6 944.404 35.3302   5
  -1   3  -6 886.676 34.9889   6
   1   3   6 955.202 34.7084   1
   3  -3   6 488.870 25.9448   6
  -3  -3  -6 483.968 23.1019   2
  -3  -3  -6 474.864 25.8323   7
  -3  -3  -6 484.892 27.9791   1
  -3  -3  -6 482.630 31.6590   4
   3  -3   6 460.735 39.5988   4
  -3  -3  -6 466.768 31.8655   6
   3   3   6 499.021 25.7711   1
  -3   3  -6 442.653 26.7913   6
  -3   3  -6 474.235 22.7779   5
   5  -3   6 289.603 34.4429   4
  -5  -3  -6 367.048 29.1649   6
  -5  -3  -6 400.899 22.8993   7
  -5  -3  -6 332.054 20.0924   2
  -5  -3  -6 350.050 26.8922   1
  -5   3  -6 410.770 28.1399   6
  -5   3  -6 393.077 18.4107   5
  -7  -3  -6 251.583 18.7922   2
  -7  -3  -6 254.955 25.6648   1
  -7  -3  -6 254.630 30.5144   6
  -7  -3  -6 205.772 17.7405   7
  -7   3  -6 212.989 11.4513   5
  -7   3  -6 199.950 23.8739   6
  -9  -3  -6 195.050 25.1822   1
  -9  -3  -6 190.515 28.1404   6
  -9  -3  -6 191.433 14.9456   7
  -9   3  -6 202.987 27.2802   6
   9   3   6 195.551 13.5894   5
 -11  -3  -6 319.373 34.0176   1
 -11  -3  -6 295.086 33.4252   6
  11   3   6 357.716 40.5571   3
  11   3   6 351.808 14.0318   5
 -11   3  -6 371.735 35.1139   6
 -13  -3  -6 79.1015 23.5703   1
  13  -3   6 122.513 22.2580   3
 -13  -3  -6 101.147 24.9341   6
 -13   3  -6 72.5688 23.0744   6
  13   3   6 133.799 29.4607   3
  15  -3   6 44.7259 16.9251   3
 -15  -3  -6 87.4330 25.7187   6
 -15  -3  -6 60.9420 24.5148   1
 -15   3  -6 120.885 29.2199   6
  15   3   6 75.2891 27.1246   3
 -17  -3  -6 46.3254 26.4941   6
 -17  -3  -6 3.79543 22.0725   1
  17   3   6 57.7080 25.8570   3
 -17   3  -6 83.7875 30.4065   6
 -19  -3  -6 -4.7570 23.1279   1
 -19  -3  -6 5.96360 26.8571   6
  19   3   6 90.5040 28.9058   3
 -19   3  -6 51.6210 25.4906   1
 -19   3  -6 23.1414 27.3719   6
 -20  -4   6 56.1041 20.7257   7
 -20  -4   6 68.3889 29.7363   4
 -20  -4   6 57.2546 20.2864   1
 -20   4   6 22.5219 28.3404   7
 -18  -4   6 50.7823 17.5766   1
 -18  -4   6 43.4879 24.8598   4
 -18   4   6 48.2203 25.2375   7
  18   4  -6 64.5746 26.6623   5
 -16  -4   6 16.9399 13.2780   6
 -16  -4   6 44.8453 24.4623   4
 -16  -4   6 41.5068 16.3762   1
  16   4  -6 57.5127 20.0313   2
 -16   4   6 6.98163 20.9470   7
  16   4  -6 34.2016 20.7484   5
 -14  -4   6 33.7085 13.1230   6
 -14  -4   6 4.45822 19.0925   4
 -14  -4   6 20.3684 12.8282   1
  14   4  -6 32.6541 18.1687   2
 -14   4   6 40.3015 21.2951   7
  14   4  -6 27.0080 21.7092   5
 -12  -4   6 47.7097 14.2963   1
 -12  -4   6 75.0499 23.9281   4
 -12  -4   6 71.8649 13.7126   6
 -12   4   6 40.5277 20.1786   7
  12   4  -6 98.0551 21.7152   2
 -12   4   6 74.2181 10.5324   4
  12   4  -6 58.7222 21.7186   5
 -10  -4   6 381.380 39.7834   4
 -10  -4   6 369.761 23.4800   1
  10   4  -6 374.357 32.1439   5
 -10   4   6 420.042 38.1804   7
  10   4  -6 384.828 28.3635   2
  -8  -4   6 228.051 18.0349   1
  -8  -4   6 221.549 31.3637   4
  -8  -4   6 225.299 15.7312   6
   8  -4  -6 268.501 27.3293   2
  -8   4   6 235.748 27.2394   7
   8   4  -6 232.276 26.7234   5
   8   4  -6 277.283 27.2288   2
   6  -4  -6 279.121 26.1167   2
  -6  -4   6 336.609 17.0782   6
  -6  -4   6 308.454 17.9689   1
  -6  -4   6 237.779 29.9093   4
   6   4  -6 313.153 27.3131   5
  -6   4   6 307.633 23.8634   1
  -6   4   6 303.162 30.3770   7
   6   4  -6 332.771 25.5411   2
   4  -4  -6 87.1462 15.6507   1
  -4  -4   6 140.186 12.0309   1
  -4  -4   6 92.0956 25.0398   4
  -4  -4   6 125.755 11.5198   6
   4  -4  -6 107.872 16.8608   2
   4   4  -6 126.998 10.7685   1
  -4   4   6 123.862 16.5120   1
  -4   4   6 106.428 20.6173   7
   4   4  -6 122.350 19.8299   5
   4   4  -6 82.4753 19.3060   2
   2  -4  -6 137.758 16.6524   2
  -2  -4   6 159.927 12.8245   6
   2  -4  -6 136.598 13.9507   4
   2  -4  -6 103.279 16.7376   1
  -2  -4   6 195.813 31.2958   4
  -2   4   6 112.393 21.8531   7
   2   4  -6 140.600 12.3612   1
  -2   4   6 160.299 17.8782   1
   2   4  -6 140.798 20.1452   2
  -2   4   6 165.282 17.2481   2
   2   4  -6 128.798 19.9799   5
   2   4  -6 149.037 13.2897   6
   0  -4  -6 459.430 23.8722   2
   0  -4  -6 503.141 26.3257   4
   0  -4   6 471.194 41.4694   4
   0  -4  -6 425.780 31.6814   6
   0  -4   6 466.227 21.9164   6
   0  -4  -6 454.894 28.8682   1
   0   4  -6 432.109 26.5013   5
   0   4   6 438.682 24.9581   1
   0   4  -6 471.783 22.7216   6
   0   4  -6 474.443 21.6639   1
   0   4   6 468.812 23.6413   2
   2  -4   6 251.063 34.8082   4
  -2  -4  -6 222.038 24.5904   6
  -2  -4  -6 225.410 16.6706   2
   2  -4   6 267.571 19.0746   6
  -2  -4  -6 252.910 23.2328   1
  -2   4  -6 237.775 20.7936   6
  -2   4  -6 279.442 20.3751   5
  -2   4  -6 252.326 19.3046   1
  -4  -4  -6 177.143 21.2506   7
   4  -4   6 143.982 29.3058   4
  -4  -4  -6 173.583 14.7067   2
  -4  -4  -6 157.822 20.2269   1
  -4  -4  -6 157.981 24.1524   6
  -4   4  -6 193.537 17.3065   5
  -4   4  -6 187.323 21.5005   6
  -4   4  -6 216.125 19.4433   1
   6  -4   6 90.3086 26.5694   4
  -6  -4  -6 121.551 21.8158   6
  -6  -4  -6 126.564 12.7309   2
  -6  -4  -6 163.913 17.9487   7
  -6  -4  -6 128.827 20.4073   1
  -6   4  -6 94.3105 18.6496   6
  -6   4  -6 129.539 13.4268   5
  -8  -4  -6 313.121 22.0434   7
  -8  -4  -6 301.649 18.2019   2
  -8  -4  -6 258.491 27.8177   1
  -8  -4  -6 347.307 35.3606   6
  -8   4  -6 345.725 16.1449   5
  -8   4  -6 343.994 31.3018   6
 -10  -4  -6 140.175 27.2035   6
 -10  -4  -6 163.492 25.5069   1
 -10   4  -6 206.328 29.0534   6
  10   4   6 130.348 30.6976   3
  10   4   6 175.024 15.3642   5
  12  -4   6 62.1524 18.6553   3
 -12  -4  -6 19.7484 19.9091   6
 -12  -4  -6 36.9037 19.4134   1
 -12   4  -6 54.7953 23.3966   6
  12   4   6 36.6985 25.8886   3
  14  -4   6 26.7631 14.8019   3
 -14  -4  -6 47.5498 22.8598   1
 -14  -4  -6 17.4409 20.8722   6
 -14   4  -6 26.3832 21.2665   6
  14   4   6 1.98975 21.6744   3
 -16  -4  -6 35.1975 22.0778   1
 -16  -4  -6 6.45630 24.0521   6
  16   4   6 42.9678 27.7190   3
 -16   4  -6 26.6023 25.8988   6
 -18  -4  -6 39.6517 23.6723   1
 -18  -4  -6 52.8254 28.0977   6
  18   4   6 27.5132 27.1155   3
 -18   4  -6 0.38656 24.4544   6
 -19  -5   6 8.50701 25.3514   4
 -19  -5   6 56.8600 19.2284   1
  19   5  -6 22.4942 23.9010   5
 -17  -5   6 41.7822 27.2111   4
 -17  -5   6 14.7442 15.4802   1
  17   5  -6 1.41847 16.8645   2
  17   5  -6 1.56917 21.8132   5
 -15  -5   6 3.22240 23.1391   4
 -15  -5   6 -5.1196 13.1896   1
  15   5  -6 -13.051 15.3909   2
  15   5  -6 0.13396 20.8625   5
 -15   5   6 -8.1572 22.9814   7
 -13  -5   6 18.8968 11.2739   6
 -13  -5   6 -8.6957 11.7994   1
 -13  -5   6 16.1488 21.2995   4
  13   5  -6 13.5924 18.5386   5
 -13   5   6 -12.000 20.9019   7
  13   5  -6 -0.0009 16.2824   2
 -11  -5   6 -12.878 10.5894   1
 -11  -5   6 12.9408 20.8871   4
 -11  -5   6 18.3659 8.97200   6
 -11   5   6 5.79555 20.4806   7
  11   5  -6 -16.240 13.9066   2
  11   5  -6 24.2738 20.2001   5
  -9  -5   6 205.722 13.2902   6
  -9  -5   6 208.451 13.5723   6
  -9  -5   6 183.290 18.8997   1
  -9  -5   6 160.574 28.6023   4
   9   5  -6 225.801 29.3534   5
   9   5  -6 217.701 25.6076   2
  -9   5   6 159.944 28.0254   7
  -7  -5   6 59.6418 7.47878   6
  -7  -5   6 71.7825 13.2549   1
  -7  -5   6 37.2621 24.4329   4
  -7   5   6 51.5205 20.4971   7
   7   5  -6 42.4325 19.8685   5
   7   5  -6 65.2229 11.0799   1
   7   5  -6 57.2805 17.3311   2
  -5  -5   6 4.39325 10.3520   1
  -5  -5   6 -20.993 18.6142   4
  -5  -5   6 1.64369 4.77296   6
   5   5  -6 5.56449 7.91538   1
   5   5  -6 -7.7040 16.0318   5
   5   5  -6 -2.7492 13.9038   2
   3  -5  -6 -0.9131 13.7565   1
  -3  -5   6 10.6878 21.6682   4
  -3  -5   6 6.69384 5.78649   6
  -3  -5   6 12.1159 10.1821   1
   3  -5  -6 10.1712 12.0239   2
   3   5  -6 -0.1703 7.33601   1
   3   5  -6 0.85170 14.6813   5
   3   5  -6 8.46655 14.9740   2
   1  -5  -6 16.4862 7.88592   4
   1  -5  -6 33.4055 9.92400   4
  -1  -5   6 5.44857 25.2408   4
   1  -5  -6 42.1010 16.5816   1
   1  -5  -6 17.3375 10.5126   2
  -1  -5   6 18.8565 7.68370   6
   1   5  -6 28.9550 14.9163   5
   1   5  -6 30.2204 8.61848   6
   1   5  -6 14.0205 9.69962   1
  -1   5   6 26.5287 11.1306   2
  -1  -5  -6 65.3659 11.5527   2
  -1  -5  -6 41.7944 17.1580   1
   1  -5   6 71.8392 11.6903   6
  -1  -5  -6 41.9660 17.1773   6
   1  -5   6 23.5149 27.9536   4
  -1   5  -6 56.4691 12.4245   6
  -1   5  -6 42.5824 15.1185   5
  -1   5  -6 59.2786 13.0868   1
  -3  -5  -6 26.6044 8.80097   2
   3  -5   6 16.3124 25.5117   4
   3  -5   6 1.97100 9.53366   6
  -3  -5  -6 10.6637 15.8013   1
  -3  -5  -6 11.9576 18.9774   6
  -3   5  -6 15.7788 13.0540   1
  -3   5  -6 -0.1892 11.5196   6
  -3   5  -6 18.5790 12.4105   5
   5  -5   6 62.1745 25.5619   4
  -5  -5  -6 51.8563 18.6576   1
  -5  -5  -6 51.7101 8.66248   2
  -5  -5  -6 49.4453 18.4646   6
  -5   5  -6 66.2653 13.5621   5
  -5   5  -6 54.7219 16.1897   6
  -7  -5  -6 96.7186 8.97134   2
  -7  -5  -6 123.031 25.4518   6
   7  -5   6 47.7090 28.3411   4
  -7  -5  -6 53.9809 20.3306   1
  -7   5  -6 97.8584 20.5585   6
  -7   5  -6 89.2625 13.6732   5
  -9  -5  -6 83.0797 24.3552   6
  -9  -5  -6 57.7608 21.5078   1
  -9  -5  -6 98.9729 8.93093   2
   9   5   6 72.0426 28.0208   3
  -9   5  -6 67.9512 22.1812   6
  -9   5  -6 82.4945 11.9038   5
 -11  -5  -6 3.69910 17.6597   1
 -11  -5  -6 2.77359 20.8792   6
  11   5   6 25.7217 10.6645   5
  11   5   6 3.85330 21.9667   3
 -11   5  -6 5.62900 18.8028   6
 -13  -5  -6 8.65871 21.8710   6
 -13  -5  -6 -1.4943 18.2686   1
  13   5   6 -20.679 19.6584   3
 -13   5  -6 21.6749 21.8654   6
 -15  -5  -6 19.7951 21.8291   1
 -15  -5  -6 -19.223 22.4286   6
  15   5   6 9.29463 21.9259   3
 -15   5  -6 2.65038 24.5786   6
 -17  -5  -6 2.56914 20.7950   1
 -17  -5  -6 -15.018 25.9726   6
  17   5   6 -8.8623 24.1763   3
 -17   5  -6 1.80839 25.7899   6
 -18  -6   6 -3.1245 15.7544   1
 -18  -6   6 -12.749 28.1653   4
  18   6  -6 10.0480 19.3902   2
  18   6  -6 -24.890 19.4073   5
 -16  -6   6 8.01099 25.9673   4
 -16  -6   6 -9.8306 14.1209   1
  16   6  -6 17.3464 21.3946   5
  16   6  -6 31.5992 18.6815   2
 -14  -6   6 16.4879 25.6037   4
 -14  -6   6 0.53517 14.1734   1
  14   6  -6 2.96941 15.1206   2
  14   6  -6 22.2088 20.8294   5
 -12  -6   6 0.25963 21.6748   4
 -12  -6   6 0.22507 13.1745   1
  12   6  -6 -6.7647 17.7437   5
  12   6  -6 27.0719 17.4578   2
 -10  -6   6 10.6887 13.4374   1
 -10  -6   6 4.40880 23.6472   4
  10   6  -6 -7.7500 19.7782   5
  10   6  -6 -21.084 13.4874   2
  -8  -6   6 37.4409 23.8785   4
  -8  -6   6 53.7366 14.8503   1
   8   6  -6 52.3901 18.2057   2
   8   6  -6 55.7043 20.2503   5
  -6  -6   6 62.3669 15.6845   1
  -6  -6   6 56.2428 27.6507   4
   6   6  -6 41.8887 15.8069   2
   6   6  -6 55.4794 12.1185   1
   6   6  -6 51.0489 18.9935   5
  -4  -6   6 52.8341 14.4870   1
   4  -6  -6 34.5038 17.9622   1
  -4  -6   6 42.4089 27.0751   4
   4   6  -6 25.6873 10.7246   1
   4   6  -6 38.6799 16.3614   2
   4   6  -6 39.1648 18.0969   5
   2  -6  -6 30.3062 18.8067   1
  -2  -6   6 14.6066 25.5769   4
   2  -6  -6 26.1334 7.22350   4
   2  -6  -6 40.4611 8.06112   4
   2   6  -6 25.8670 11.3709   1
  -2   6   6 17.3040 11.2972   2
   2   6  -6 43.7451 17.6317   5
   0  -6  -6 -2.7894 8.77014   4
   0  -6   6 20.6293 29.2099   4
   0  -6  -6 6.19001 17.7424   1
   0   6  -6 12.9716 11.5884   1
   0   6  -6 18.3739 8.56052   6
   0   6   6 9.63223 9.14245   2
   0   6  -6 12.2815 14.6656   5
  -2  -6  -6 35.0890 18.9358   6
   2  -6   6 14.7551 27.1706   4
  -2  -6  -6 6.39002 17.5502   1
  -2   6  -6 13.6417 11.0469   6
  -2   6  -6 22.1263 14.7357   5
  -4  -6  -6 0.46446 17.7281   6
   4  -6   6 6.90887 10.2931   3
  -4  -6  -6 5.81566 18.0211   1
   4  -6   6 -0.2182 26.2720   4
  -4   6  -6 8.82983 12.6194   6
  -4   6  -6 -6.8858 12.3428   5
   6  -6   6 17.2495 24.0047   4
  -6  -6  -6 4.59914 17.9371   6
  -6  -6  -6 -9.0819 18.0014   1
  -6   6  -6 6.77062 12.4525   5
  -6   6  -6 21.3673 15.7725   6
  -8  -6  -6 -5.7111 17.2331   6
  -8  -6  -6 8.24897 17.2909   1
   8  -6   6 24.3339 28.5913   4
  -8   6  -6 9.88458 16.9629   6
  -8   6  -6 1.28345 11.3986   5
   8   6   6 -15.647 25.5727   3
 -10  -6  -6 -6.0829 19.2592   6
 -10  -6  -6 -5.8769 19.7323   1
 -10   6  -6 6.66189 19.3484   6
  10   6   6 -1.3783 23.6295   3
  10   6   6 -7.6230 12.3252   5
 -12  -6  -6 21.7517 20.5897   1
 -12  -6  -6 0.01975 20.8750   6
  12   6   6 17.3565 22.8233   3
 -12   6  -6 -4.2449 18.9149   6
 -14  -6  -6 -4.0248 23.1768   6
 -14  -6  -6 -13.227 19.6621   1
  14   6   6 -0.1010 23.2451   3
 -14   6  -6 -9.2199 19.3572   6
 -16  -6  -6 19.1112 26.1873   6
 -16  -6  -6 -13.803 23.6898   1
 -16   6  -6 -45.125 21.0447   6
  16   6   6 32.4375 27.8611   3
 -17  -7   6 1.73818 27.2675   4
 -17  -7   6 5.12340 17.9734   1
  17   7  -6 44.7855 20.1171   2
  17   7  -6 27.1476 22.9418   5
 -15  -7   6 6.23786 17.3491   1
 -15  -7   6 32.9291 31.2931   4
  15   7  -6 30.1102 22.4622   5
  15   7  -6 13.4606 17.4127   2
 -13  -7   6 52.8745 32.3542   4
 -13  -7   6 73.2018 19.4306   1
  13   7  -6 40.2883 22.5349   5
  13   7  -6 62.0405 19.4794   2
 -11  -7   6 40.8874 16.9335   1
 -11  -7   6 16.7154 27.3915   4
  11   7  -6 71.5795 19.0189   2
  11   7  -6 23.7966 22.5523   5
  -9  -7   6 11.2325 26.0952   4
  -9  -7   6 51.7904 17.4733   1
   9   7  -6 61.4656 21.8158   5
   9   7  -6 58.2993 18.6628   2
  -7  -7   6 2.49487 23.4278   4
  -7  -7   6 31.8370 16.9745   1
   7   7  -6 38.8043 18.1798   2
   7   7  -6 50.0712 21.8743   5
  -5  -7   6 116.094 33.4115   4
  -5  -7   6 148.716 19.9668   1
   5  -7  -6 116.391 22.2573   1
   5   7  -6 149.207 26.8595   5
   5   7  -6 157.967 24.4817   2
  -3  -7   6 94.6392 18.0641   1
  -3  -7   6 55.5609 29.8641   4
   3  -7  -6 60.2728 20.1264   1
   3   7  -6 87.0781 22.2854   5
   3   7  -6 79.2709 20.9224   2
   1  -7  -6 29.1927 20.6691   1
   1  -7  -6 52.8599 10.8956   4
  -1  -7   6 49.1958 29.7590   4
   1   7  -6 79.2485 21.0171   5
   1   7  -6 58.7285 6.61070   6
  -1   7   6 74.7387 12.9917   2
   1  -7   6 60.1457 31.9081   4
  -1  -7  -6 3.24623 18.2042   1
  -1  -7  -6 41.3525 12.8181   4
  -1   7  -6 38.8266 18.0546   5
  -1   7  -6 24.9489 9.49305   6
   1   7   6 33.5065 9.58267   2
  -3  -7  -6 69.5870 21.0665   6
  -3  -7  -6 69.6664 22.7199   1
   3  -7   6 64.9335 14.4673   3
  -3  -7  -6 81.7789 17.7095   4
   3  -7   6 63.6439 34.1788   4
  -3   7  -6 74.3197 14.4343   6
  -3   7  -6 63.7815 18.3999   5
   5  -7   6 207.904 40.2605   4
  -5  -7  -6 196.107 27.8879   6
  -5  -7  -6 191.249 28.5213   1
  -5   7  -6 177.722 23.2688   5
  -5   7  -6 179.702 21.5949   6
   7  -7   6 51.9160 30.2816   4
  -7  -7  -6 68.1016 22.9457   6
  -7  -7  -6 58.7335 22.7747   1
  -7   7  -6 26.2019 14.7058   5
   7   7   6 62.2475 27.3843   3
  -7   7  -6 41.8117 18.0866   6
  -9  -7  -6 17.7273 20.1784   1
  -9  -7  -6 42.2427 21.1473   6
   9  -7   6 25.3109 28.2249   4
   9   7   6 -11.941 21.8111   3
  -9   7  -6 18.9211 13.7507   5
  -9   7  -6 48.2290 20.1755   6
 -11  -7  -6 38.7327 21.9008   1
 -11  -7  -6 27.8687 22.2072   6
 -11   7  -6 1.37495 19.7220   6
  11   7   6 29.3426 14.9791   5
  11   7   6 -23.873 20.2392   3
 -13  -7  -6 13.3547 23.4144   1
 -13  -7  -6 54.4473 24.4240   6
  13   7   6 27.5120 26.6097   3
 -13   7  -6 19.9207 23.8575   6
 -15  -7  -6 -12.269 23.5388   6
 -15  -7  -6 16.6579 24.8598   1
  15   7   6 3.59004 23.6050   3
 -15   7  -6 9.10906 23.3420   6
 -16  -8   6 30.6514 32.8849   4
 -16  -8   6 22.3798 22.4629   1
  16   8  -6 22.4549 25.3492   5
 -14  -8   6 76.7766 36.2516   4
 -14  -8   6 104.063 24.3958   1
  14   8  -6 103.031 22.4651   2
  14   8  -6 83.8966 27.7149   5
 -12  -8   6 117.101 37.7292   4
 -12  -8   6 108.497 24.2862   1
  12   8  -6 121.436 22.1079   2
  12   8  -6 107.998 28.8665   5
 -10  -8   6 31.5307 19.7859   1
 -10  -8   6 41.2534 30.0964   4
  10   8  -6 40.5591 21.3939   5
  10   8  -6 38.7520 18.0641   2
  -8  -8   6 81.5848 21.6294   1
  -8  -8   6 90.9834 33.2755   4
   8   8  -6 75.0910 25.6534   5
   8   8  -6 155.004 22.8567   2
  -6  -8   6 70.5651 19.0167   1
  -6  -8   6 50.6409 31.1266   4
   6   8  -6 87.3946 20.3253   2
   6   8  -6 55.7613 21.6837   5
  -4  -8   6 155.202 39.3896   4
   4  -8  -6 235.379 30.6979   1
  -4  -8   6 210.291 24.3413   1
   4   8  -6 246.410 29.1726   2
   4   8  -6 238.059 31.4271   5
   2  -8  -6 139.436 27.4317   1
  -2  -8   6 101.644 19.4175   1
   2  -8  -6 93.2802 13.3894   4
  -2  -8   6 88.0899 32.0661   4
   2   8  -6 115.620 23.8632   5
   0  -8  -6 103.536 25.2456   1
   0  -8   6 67.5331 32.3165   4
   0  -8  -6 107.912 16.2258   4
   0   8  -6 103.863 8.46723   6
   0   8  -6 109.654 22.7846   5
  -2  -8  -6 227.611 25.0856   4
   2  -8   6 152.260 37.4302   4
  -2  -8  -6 202.006 29.7220   1
  -2   8  -6 231.522 27.8986   5
  -2   8  -6 238.748 18.0354   6
   4  -8   6 96.7453 35.5353   4
  -4  -8  -6 104.555 21.7289   4
  -4  -8  -6 93.0319 24.4408   1
  -4   8  -6 132.790 17.5379   6
   4   8   6 102.930 30.9683   3
  -4   8  -6 132.399 23.6279   5
   6  -8   6 68.4651 31.3735   4
  -6  -8  -6 92.0070 23.0963   6
  -6  -8  -6 67.8436 25.1584   1
  -6  -8  -6 111.576 24.5648   4
  -6   8  -6 79.0105 17.9296   6
   6   8   6 112.827 32.1757   3
  -6   8  -6 111.034 21.5494   5
  -8  -8  -6 38.1992 22.1198   1
  -8  -8  -6 47.0320 21.7937   6
  -8  -8  -6 49.9029 22.5486   4
   8  -8   6 85.6669 31.3149   4
  -8   8  -6 68.6578 17.7812   5
  -8   8  -6 66.3312 20.6530   6
   8   8   6 80.0231 27.1846   3
 -10  -8  -6 73.7097 23.3221   6
  10  -8   6 127.982 31.7649   4
 -10  -8  -6 49.2859 25.7967   1
 -10   8  -6 26.7018 20.6248   6
  10   8   6 43.0452 20.8878   5
  10   8   6 58.5001 26.0598   3
 -12  -8  -6 76.4087 25.9467   6
 -12  -8  -6 22.9829 25.8584   1
  12   8   6 28.8722 24.8670   3
 -12   8  -6 52.9435 24.5166   6
 -14  -8  -6 40.5928 24.7433   6
 -14  -8  -6 61.6491 28.7887   1
  14   8   6 87.5615 29.1667   3
 -14   8  -6 34.8363 24.3435   6
 -15  -9   6 43.6346 34.9310   4
  15   9  -6 36.2980 27.0132   5
 -13  -9   6 134.954 39.5502   4
 -13  -9   6 104.612 25.8727   1
  13   9  -6 169.038 34.0074   5
  13   9  -6 156.281 24.3471   2
 -11  -9   6 87.5141 25.8234   1
 -11  -9   6 113.763 35.0490   4
  11   9  -6 139.276 23.2066   2
  11   9  -6 108.751 28.4588   5
  -9  -9   6 147.998 37.8932   4
  -9  -9   6 153.524 27.2126   1
   9   9  -6 170.439 33.0625   5
   9   9  -6 151.921 23.8032   2
  -7  -9   6 132.982 39.8134   4
  -7  -9   6 152.190 25.5913   1
   7   9  -6 143.256 29.4844   5
   7   9  -6 163.684 25.7102   2
   5  -9  -6 42.4651 22.5978   1
  -5  -9   6 126.965 23.7971   1
  -5  -9   6 77.1572 35.1266   4
   5   9  -6 116.390 23.4406   2
   5   9  -6 135.691 28.9263   5
  -3  -9   6 347.799 31.7089   1
   3  -9  -6 256.449 32.1520   1
  -3  -9   6 246.162 45.2126   4
   3   9  -6 258.243 30.9336   2
   3   9  -6 211.771 31.2115   5
   1  -9  -6 173.088 21.7611   4
  -1  -9   6 146.722 40.7114   4
   1  -9  -6 152.588 27.9243   1
   1   9  -6 192.975 28.5190   5
  -1  -9  -6 154.776 29.1887   1
  -1  -9  -6 209.740 23.5583   4
   1  -9   6 163.983 38.5413   4
  -1   9  -6 154.894 27.4170   5
  -3  -9  -6 156.091 28.5683   1
   3  -9   6 117.924 40.7356   4
  -3  -9  -6 130.168 22.1872   4
   3   9   6 113.971 29.1095   3
  -3   9  -6 176.351 26.2283   6
  -3   9  -6 106.363 24.5882   5
  -5  -9  -6 114.901 30.0159   1
  -5  -9  -6 127.847 24.9333   4
   5  -9   6 159.634 38.5641   4
  -5   9  -6 97.6569 23.7036   5
  -5   9  -6 148.629 19.9287   6
   5   9   6 91.1889 29.5114   3
  -7  -9  -6 119.691 26.7112   4
   7  -9   6 139.678 36.6509   4
  -7  -9  -6 107.367 29.2958   1
  -7  -9  -6 131.270 27.2710   6
   7   9   6 135.763 31.9025   3
  -7   9  -6 103.586 22.6712   5
  -7   9  -6 122.036 21.4976   6
  -9  -9  -6 106.588 30.7548   1
   9  -9   6 128.105 37.5358   4
  -9  -9  -6 95.4779 27.6984   4
  -9  -9  -6 70.6188 25.0932   6
  -9   9  -6 94.8669 23.7355   6
   9   9   6 124.958 30.3016   3
 -11  -9  -6 69.8413 26.7586   1
 -11  -9  -6 84.8620 26.8894   6
 -11  -9  -6 85.7542 28.0926   4
  11   9   6 80.7021 23.1330   5
 -11   9  -6 80.4887 24.7694   6
  11   9   6 79.4134 27.5956   3
 -13  -9  -6 59.4027 25.7403   6
 -13  -9  -6 42.8504 26.7314   1
 -13  -9  -6 64.4584 27.7378   4
  13   9   6 57.5852 29.7269   3
 -13   9  -6 33.8082 24.7085   6
 -14 -10   6 25.5037 34.2980   4
  14  10  -6 63.3359 28.9755   5
 -12 -10   6 141.692 29.5307   1
 -12 -10   6 74.3366 38.3900   4
  12  10  -6 69.6527 29.3098   5
 -10 -10   6 250.458 34.2905   1
 -10 -10   6 186.315 44.8496   4
  10  10  -6 188.839 25.5678   2
  10  10  -6 241.615 38.0729   5
  -8 -10   6 191.909 30.5607   1
  -8 -10   6 167.715 41.2697   4
   8  10  -6 208.305 33.2243   5
   8  10  -6 200.928 26.4457   2
  -6 -10   6 257.088 32.1697   1
  -6 -10   6 217.294 45.3511   4
   6  10  -6 234.063 36.8484   5
   6  10  -6 217.398 27.4528   2
  -4 -10   6 198.416 44.5427   4
   4 -10  -6 164.293 31.3307   1
  -4 -10   6 209.424 28.5276   1
   4  10  -6 187.028 26.8840   2
   4  10  -6 201.564 32.6577   5
   2 -10  -6 279.082 35.8255   1
  -2 -10   6 225.412 45.1889   4
   2  10  -6 238.240 33.0123   5
  -2  10   6 185.404 32.6949   3
   0 -10   6 182.303 42.3441   4
   0 -10  -6 216.095 35.3370   1
   0  10  -6 187.003 31.6483   5
   0  10   6 200.892 33.6152   3
  -2 -10  -6 174.139 25.1158   4
  -2 -10  -6 150.542 30.7786   1
   2 -10   6 95.2421 41.0568   4
  -2  10  -6 171.168 29.0921   5
   2  10   6 128.023 30.3332   3
  -4 -10  -6 172.994 28.4582   4
   4 -10   6 195.490 44.1184   4
  -4 -10  -6 141.822 32.4212   1
   4  10   6 215.682 33.5652   3
  -4  10  -6 164.550 28.4079   5
  -6 -10  -6 125.765 31.2056   1
  -6 -10  -6 115.821 28.1291   4
   6 -10   6 88.9492 36.8514   4
  -6  10  -6 158.468 27.1745   5
   6  10   6 127.333 30.1625   3
  -8 -10  -6 168.168 29.9503   6
  -8 -10  -6 255.511 39.9001   1
  -8 -10  -6 143.192 31.0114   4
   8 -10   6 240.884 43.6601   4
   8  10   6 135.629 32.7017   3
  -8  10  -6 184.429 28.3335   5
 -10 -10  -6 86.8488 26.3497   6
  10 -10   6 122.955 36.8745   4
 -10 -10  -6 121.098 31.5617   4
 -10 -10  -6 72.5605 31.6242   1
  10  10   6 81.8187 29.0403   3
  10  10   6 66.3221 27.0248   5
 -12 -10  -6 82.6256 31.3695   4
 -12 -10  -6 28.1315 30.0821   1
 -12 -10  -6 97.3336 27.6288   6
 -12  10  -6 99.3458 34.5824   6
  12  10   6 105.334 30.7948   3
 -11 -11   6 149.041 42.8090   4
  11  11  -6 194.459 35.5794   5
  -9 -11   6 135.091 45.8883   4
  -9 -11   6 126.593 30.0774   1
   9  11  -6 141.773 31.8805   5
   9  11  -6 155.911 24.6843   2
  -7 -11   6 118.230 40.4949   4
  -7 -11   6 177.488 30.9197   1
   7  11  -6 210.345 27.9262   2
   7  11  -6 218.902 36.0082   5
  -5 -11   6 255.753 32.1661   1
  -5 -11   6 90.7262 42.0123   4
   5  11  -6 218.047 35.5672   5
   5  11  -6 220.287 30.2236   2
  -3 -11   6 113.477 45.1339   4
   3 -11  -6 150.417 33.5051   1
  -3 -11   6 157.036 27.4346   1
   3  11  -6 109.096 25.2735   2
   3  11  -6 139.863 29.2134   5
  -3  11   6 100.728 26.2866   3
  -1 -11   6 136.700 43.2601   4
   1 -11  -6 216.728 34.5507   1
   1  11  -6 253.745 36.8751   5
  -1  11   6 200.638 30.8499   3
   1 -11   6 158.233 48.1705   4
  -1 -11  -6 110.919 30.5589   1
   1  11   6 174.311 31.1600   3
  -1  11  -6 161.103 30.4254   5
  -3 -11  -6 171.493 35.0808   1
   3 -11   6 170.541 48.7858   4
  -3  11  -6 171.055 31.4452   5
   3  11   6 212.145 33.7745   3
  -5 -11  -6 107.317 34.3034   1
   5 -11   6 111.788 42.0513   4
  -5  11  -6 172.469 30.0950   5
   5  11   6 151.173 30.3045   3
  -7 -11  -6 149.701 36.4217   1
   7 -11   6 131.484 37.7234   4
  -7 -11  -6 144.108 31.9436   4
   7  11   6 173.407 34.4015   3
  -7  11  -6 141.689 28.4177   5
  -9 -11  -6 134.681 33.8626   4
  -9 -11  -6 117.855 36.3751   1
   9 -11   6 170.734 42.0539   4
   9  11   6 106.404 29.3286   3
   9  11   6 40.8634 29.5369   5
  -8 -12   6 147.928 50.3171   4
  -8 -12   6 90.5389 32.7164   1
   8  12  -6 121.254 34.1411   5
  -6 -12   6 37.2244 39.4587   4
  -6 -12   6 121.381 28.6390   1
   6  12  -6 108.121 23.0969   2
   6  12  -6 134.790 33.3056   5
   4 -12  -6 104.984 30.6030   1
  -4 -12   6 17.1747 39.0654   4
  -4 -12   6 99.1364 26.5892   1
   4  12  -6 143.938 34.2781   5
   4  12  -6 125.431 25.7351   2
   2 -12  -6 85.6228 30.7820   1
  -2 -12   6 43.2551 45.0431   4
   2  12  -6 94.4109 26.2695   2
   2  12  -6 150.136 31.1340   5
   0 -12   6 87.9410 44.5462   4
   0 -12  -6 221.758 39.7828   1
   0  12  -6 228.875 37.9423   5
   0  12   6 202.702 30.4760   3
  -2 -12  -6 48.0091 28.0602   1
   2 -12   6 34.9770 41.4666   4
   2  12   6 139.478 29.1894   3
  -2  12  -6 114.642 30.0610   5
  -4 -12  -6 68.7442 34.9116   1
   4 -12   6 93.9880 47.5142   4
   4  12   6 112.841 29.0552   3
  -4  12  -6 162.292 31.5122   5
  -6 -12  -6 86.6943 36.3471   1
   6 -12   6 87.3272 43.2379   4
   6  12   6 103.442 29.6291   3
  -6  12  -6 77.0953 26.1905   5
 -20   0   7 1.03042 13.8528   1
 -20   0   7 -3.9258 15.8906   6
 -20   0   7 2.70307 17.5684   7
 -18   0   7 18.0326 14.5902   1
 -18   0   7 -12.306 18.6664   4
 -18   0   7 8.65399 18.6806   7
 -16   0   7 -12.887 18.4879   7
 -16   0   7 27.6085 13.6937   1
 -16   0   7 -9.4499 17.6871   4
 -14   0   7 -3.5935 15.7850   7
  14   0  -7 0.45747 17.5456   2
 -14   0   7 3.23914 16.3663   4
 -14   0   7 -0.9808 11.2374   1
 -12   0   7 -13.787 16.4129   7
 -12   0   7 6.29923 10.5577   1
  12   0  -7 10.6601 16.4459   2
 -12   0   7 -11.944 15.4174   4
 -10   0   7 -21.799 14.1163   7
 -10   0   7 -24.743 12.8046   4
  10   0  -7 -11.496 13.9849   2
  -8   0   7 -9.2454 7.11694   1
  -8   0   7 -2.3754 16.5018   7
   8   0  -7 1.58253 14.1561   2
  -8   0   7 -12.356 13.4688   4
   6   0  -7 6.91703 10.8394   4
  -6   0   7 -3.7173 4.72288   1
  -6   0   7 1.29363 13.9404   7
  -6   0   7 -16.143 12.9903   4
   6   0  -7 -3.0714 12.5430   2
  -6   0   7 3.45008 3.88737   1
   4   0  -7 1.12591 13.8909   2
   4   0  -7 10.6214 11.5417   4
  -4   0   7 -11.223 14.7905   4
  -4   0   7 1.23326 14.8223   7
  -2   0   7 14.5010 13.7335   7
  -2   0   7 -5.0105 12.6026   5
   2   0  -7 17.0443 14.3008   6
   2   0  -7 11.1794 12.7432   2
   2   0  -7 -8.4578 12.8343   4
  -2   0   7 -13.412 14.8448   4
   0   0  -7 -2.3598 14.0551   6
   0   0   7 6.42770 10.1832   5
   0   0  -7 -0.8243 12.2489   2
   0   0  -7 -6.3773 15.1907   4
   0   0   7 5.81696 12.3454   7
   0   0   7 -5.1807 14.8507   4
   0   0  -7 -3.7849 5.24957   1
  -2   0  -7 -6.1363 14.4993   6
  -2   0  -7 3.41425 7.75419   1
  -2   0  -7 7.23911 13.5323   2
   2   0   7 -15.583 9.86709   7
   2   0   7 -12.776 7.96471   5
   4   0   7 5.18646 6.47432   5
  -4   0  -7 5.27561 9.58406   1
   4   0   7 -7.1877 8.98360   7
  -4   0  -7 26.5752 16.9721   6
  -6   0  -7 2.01338 10.9360   1
   6   0   7 3.45193 4.44316   5
  -6   0  -7 14.5562 17.9402   6
   6   0   7 -5.9157 8.00566   7
  -8   0  -7 -2.3553 18.9025   6
  -8   0  -7 -3.5120 12.3139   1
 -10   0  -7 9.20546 18.2057   6
 -10   0  -7 -13.876 13.8559   1
  12   0   7 -48.876 23.7992   3
 -12   0  -7 11.0580 16.6768   1
 -12   0  -7 23.5122 20.2232   6
 -14   0  -7 -23.472 20.1820   6
 -14   0  -7 3.69993 18.0402   1
  14   0   7 6.36010 22.3281   3
 -16   0  -7 0.73561 18.8386   1
 -16   0  -7 -0.0735 22.0955   6
  16   0   7 26.4664 22.7469   3
 -18   0  -7 30.1725 22.4690   1
  18   0   7 71.0903 24.3424   3
 -18   0  -7 -43.857 20.1539   6
 -21  -1   7 10.4673 17.6705   7
 -21   1   7 3.66518 20.1451   7
 -19  -1   7 18.1207 15.4762   1
 -19  -1   7 7.37043 15.6446   6
 -19  -1   7 -9.5228 19.1664   4
 -19  -1   7 0.14697 17.1144   7
 -19   1   7 49.1982 15.8971   1
 -19   1   7 2.38830 19.8020   7
 -17  -1   7 5.66055 17.5636   7
 -17  -1   7 5.21070 14.3898   1
 -17  -1   7 -15.920 17.2302   4
 -17   1   7 19.2216 19.7631   7
 -15  -1   7 7.13129 17.8224   4
 -15  -1   7 -10.447 17.8088   7
 -15  -1   7 10.3551 13.0570   1
  15   1  -7 -3.6624 18.4121   2
 -15   1   7 11.7781 19.0782   7
 -15   1   7 3.66850 16.0770   4
 -13  -1   7 21.2667 18.2386   4
 -13  -1   7 56.2534 21.4935   7
 -13  -1   7 53.0695 14.1308   1
  13  -1  -7 20.9601 19.2274   2
 -13   1   7 27.3058 16.7700   4
  13   1  -7 52.5331 20.6456   2
 -13   1   7 9.29768 19.4493   7
 -11  -1   7 90.0941 21.3062   4
 -11  -1   7 110.354 23.8648   7
 -11  -1   7 74.2087 13.0615   1
  11  -1  -7 85.1926 20.9601   2
 -11   1   7 120.090 15.9250   1
 -11   1   7 99.2267 24.7062   7
  11   1  -7 166.831 25.5451   2
 -11   1   7 74.6472 16.9395   4
   9  -1  -7 22.1536 16.4818   2
  -9  -1   7 67.5674 20.3348   7
  -9  -1   7 56.8435 9.29029   1
  -9  -1   7 27.6382 16.6897   4
  -9   1   7 27.3063 17.5975   7
  -9   1   7 21.7933 10.6774   1
   9   1  -7 37.4890 18.3594   2
  -9   1   7 17.1512 14.0152   4
  -7  -1   7 30.0465 17.1800   4
  -7  -1   7 17.4090 17.8958   7
  -7  -1   7 44.0377 6.19525   1
  -7  -1   7 44.2881 5.78127   1
   7  -1  -7 57.4279 18.8916   2
  -7   1   7 57.9720 10.4920   1
  -7   1   7 46.9221 19.2165   7
   7   1  -7 30.9550 14.2347   4
   7   1  -7 42.2649 17.2176   2
  -7   1   7 38.5907 13.3826   4
  -5  -1   7 43.7623 13.6226   6
   5  -1  -7 42.4484 16.2815   2
  -5  -1   7 36.2939 17.3715   4
   5  -1  -7 43.5548 11.4750   4
  -5   1   7 44.3513 7.34018   1
  -5   1   7 57.4526 15.0013   4
   5   1  -7 37.7639 15.3585   4
  -5   1   7 26.5154 15.0081   7
   5   1  -7 39.8769 15.0712   2
   3  -1  -7 111.849 17.4386   2
  -3  -1   7 118.932 22.2773   4
   3  -1  -7 102.914 15.7617   4
  -3  -1   7 144.423 17.7334   6
   3   1  -7 129.998 20.8783   4
  -3   1   7 115.069 8.78592   1
  -3   1   7 120.321 16.9825   4
   3   1  -7 74.2813 17.6427   2
  -3   1   7 151.466 22.3238   7
  -1  -1   7 99.7232 21.8293   4
   1  -1  -7 160.293 20.9439   4
   1  -1  -7 153.438 19.9966   6
   1  -1  -7 131.498 18.6449   2
  -1  -1   7 160.604 18.5527   5
  -1  -1   7 114.191 17.7591   7
   1  -1  -7 154.375 12.7261   1
   1   1  -7 137.106 20.1869   2
  -1   1   7 158.144 17.8170   5
  -1   1   7 140.827 18.7624   4
  -1   1   7 115.733 18.8363   7
   1   1  -7 157.892 23.9998   4
   1   1  -7 157.153 19.2793   6
   1  -1   7 2.19730 12.3773   7
   1  -1   7 17.5175 9.74584   5
  -1  -1  -7 -10.434 16.5319   4
  -1  -1  -7 10.9353 12.3274   2
  -1  -1  -7 13.9006 8.62122   1
   1  -1   7 9.78463 17.2339   4
  -1  -1  -7 10.3011 13.7962   6
  -1   1  -7 2.32401 5.68582   1
  -1   1  -7 17.8006 13.2797   2
   1   1   7 -7.3610 9.10792   5
  -1   1  -7 15.3948 14.5873   6
   1   1   7 -2.1725 11.2503   7
  -3  -1  -7 161.411 22.7109   6
  -3  -1  -7 158.143 15.6937   1
   3  -1   7 145.960 16.8042   7
   3  -1   7 151.479 13.8939   5
   3  -1   7 155.789 26.1988   4
  -3  -1  -7 146.817 19.4439   2
   3   1   7 158.910 18.0569   7
  -3   1  -7 161.851 20.3519   6
   3   1   7 151.478 14.2534   5
  -3   1  -7 161.929 14.4194   1
  -5  -1  -7 160.370 18.0456   1
  -5  -1  -7 134.811 21.8227   6
   5  -1   7 160.307 15.4552   7
   5  -1   7 147.041 11.6508   5
   5   1   7 153.134 12.3968   5
   5   1   7 136.264 16.1218   7
  -5   1  -7 143.305 16.4878   1
  -5   1  -7 140.772 21.5591   6
  -7  -1  -7 19.3620 20.8144   6
  -7  -1  -7 36.6809 14.9884   1
   7  -1   7 36.1948 8.80177   7
   7   1   7 42.6021 4.40607   5
  -7   1  -7 43.0831 14.8985   1
  -7   1  -7 16.4196 18.6176   6
  -9  -1  -7 20.1453 15.3532   1
  -9  -1  -7 30.8694 20.6380   6
  -9   1  -7 29.4758 15.9010   1
  -9   1  -7 26.7020 18.9259   6
 -11  -1  -7 13.8671 19.3653   6
 -11  -1  -7 -8.4185 16.0448   1
 -11   1  -7 6.94717 15.5445   1
 -11   1  -7 -1.6576 18.2043   6
  13  -1   7 -10.912 23.9072   3
 -13  -1  -7 -5.4952 17.2491   1
 -13  -1  -7 -9.0558 19.3554   6
 -13   1  -7 17.0513 21.0344   6
 -13   1  -7 17.9313 16.9275   1
  13   1   7 18.2041 26.0453   3
  15  -1   7 45.8540 22.5824   3
 -15  -1  -7 3.64129 19.3141   1
 -15  -1  -7 3.57174 21.5666   6
 -15   1  -7 36.0602 26.6810   6
  15   1   7 26.8215 22.4104   3
 -15   1  -7 27.4852 20.8776   1
  17  -1   7 16.9153 19.9731   3
 -17  -1  -7 -3.9314 21.5833   1
 -17  -1  -7 3.86199 22.9989   6
  17   1   7 -20.181 20.3283   3
 -17   1  -7 -28.028 23.9934   6
 -17   1  -7 13.0803 20.8616   1
 -20  -2   7 28.0485 18.6165   7
 -20  -2   7 41.8545 18.4578   6
 -20  -2   7 27.9242 23.3386   4
 -20   2   7 43.4273 24.7427   7
 -20   2   7 60.0846 24.8942   6
 -18  -2   7 63.5491 16.9473   6
 -18  -2   7 34.7611 21.3645   7
 -18  -2   7 38.0193 16.8020   1
 -18  -2   7 22.3598 21.1652   4
 -18   2   7 42.8820 21.7868   7
 -16  -2   7 32.8422 15.5889   1
 -16  -2   7 48.0904 15.3639   6
 -16  -2   7 46.6108 22.0674   4
 -16  -2   7 34.0350 21.2296   7
 -16   2   7 55.1203 24.1781   7
  16   2  -7 57.4632 23.0785   2
 -14  -2   7 73.3824 23.1015   4
 -14  -2   7 97.4744 24.5113   7
 -14  -2   7 58.2111 14.9882   1
 -14   2   7 63.3308 17.0237   4
 -14   2   7 47.7604 23.9698   7
  14   2  -7 36.0827 18.9353   2
  12  -2  -7 235.704 28.2214   2
 -12  -2   7 233.445 20.6976   1
 -12  -2   7 270.428 33.7551   4
 -12   2   7 283.932 24.3986   4
 -12   2   7 225.711 31.1710   7
  12   2  -7 265.149 32.2587   5
  12   2  -7 265.207 29.9648   2
 -10  -2   7 185.438 27.3074   4
  10  -2  -7 215.029 28.0408   2
 -10  -2   7 201.851 16.3101   1
 -10   2   7 207.573 28.6519   7
 -10   2   7 204.400 19.3236   4
  10   2  -7 200.234 27.4422   5
 -10   2   7 207.409 20.9985   1
  10   2  -7 198.572 27.3925   2
  -8  -2   7 225.247 13.5740   1
  -8  -2   7 182.098 27.5116   4
   8  -2  -7 160.270 22.6918   2
  -8  -2   7 247.559 21.4525   6
  -8   2   7 156.374 24.7453   7
   8   2  -7 192.662 25.2127   2
   8   2  -7 206.452 25.7673   5
  -8   2   7 235.309 19.8609   1
  -8   2   7 179.724 18.3768   4
  -6  -2   7 204.774 27.1544   4
  -6  -2   7 241.623 20.0585   6
   6  -2  -7 198.168 22.9795   2
  -6   2   7 207.338 17.6528   4
   6   2  -7 203.413 24.2287   2
  -6   2   7 154.269 23.5606   7
   6   2  -7 174.584 23.3882   5
  -6   2   7 210.324 16.3151   1
   4  -2  -7 109.290 12.7998   4
   4  -2  -7 96.5904 18.5174   2
  -4  -2   7 58.7079 20.8200   4
  -4  -2   7 100.910 15.5999   6
   4   2  -7 66.6782 18.0936   5
   4   2  -7 95.0590 18.5581   2
  -4   2   7 100.916 20.5438   7
  -4   2   7 108.764 11.6609   1
   2  -2  -7 533.676 22.9976   1
   2  -2  -7 545.086 28.4962   4
  -2  -2   7 489.471 25.7357   6
  -2  -2   7 531.987 41.5515   4
   2  -2  -7 508.958 28.6687   2
   2   2  -7 596.229 30.7625   5
   2   2  -7 485.702 30.8419   2
   2   2  -7 505.857 27.7383   6
  -2   2   7 541.963 33.9165   7
  -2   2   7 544.553 21.8935   1
   0  -2  -7 501.747 23.6069   1
   0  -2  -7 447.370 31.9878   4
   0  -2   7 504.719 41.7366   4
   0  -2  -7 474.564 27.6036   2
   0  -2  -7 450.064 30.3453   6
   0  -2   7 421.722 25.0681   6
   0  -2   7 489.681 25.2583   5
   0   2  -7 448.616 25.6174   5
   0   2   7 457.424 21.1949   1
   0   2   7 476.377 30.1671   7
   0   2  -7 488.013 15.7354   1
   0   2   7 493.807 26.2944   5
   0   2  -7 460.883 29.5602   2
   0   2  -7 467.810 27.3161   6
   0   2  -7 499.415 15.0811   1
   2  -2   7 280.857 31.9963   4
  -2  -2  -7 286.847 21.9046   2
  -2  -2  -7 307.703 21.4776   1
  -2  -2  -7 316.879 28.7936   6
  -2  -2  -7 315.654 30.5318   4
   2  -2   7 316.082 19.8411   5
  -2   2  -7 315.896 16.3871   1
   2   2   7 343.112 25.3038   7
  -2   2  -7 297.276 25.2070   6
   2   2   7 279.710 20.1185   5
  -2   2  -7 284.355 19.6255   5
  -4  -2  -7 248.948 27.0941   6
   4  -2   7 283.161 35.5902   4
  -4  -2  -7 283.548 22.3199   2
  -4  -2  -7 257.290 22.8705   1
  -4   2  -7 295.671 27.2526   6
   4   2   7 238.353 17.0283   5
  -6  -2  -7 266.523 22.8480   2
  -6  -2  -7 201.926 27.2102   6
  -6  -2  -7 199.827 21.9251   1
   6  -2   7 238.240 17.4030   7
  -6   2  -7 229.287 27.0251   6
   6   2   7 224.176 13.9372   5
  -8  -2  -7 87.6804 25.0991   6
  -8  -2  -7 102.143 19.6775   1
   8  -2   7 104.711 10.3953   7
   8   2   7 106.220 7.71212   5
  -8   2  -7 113.203 22.6828   6
 -10  -2  -7 104.126 25.9257   6
 -10  -2  -7 77.3578 19.1408   1
 -10   2  -7 47.1137 20.6903   6
 -12  -2  -7 19.6116 22.8447   6
 -12  -2  -7 45.6065 19.1807   1
 -12   2  -7 50.0983 23.4576   6
  12   2   7 42.9882 30.8159   3
  14  -2   7 91.2618 24.8484   3
 -14  -2  -7 103.118 24.9591   1
 -14  -2  -7 103.042 27.0181   6
 -14   2  -7 42.5445 24.6062   6
 -14   2  -7 82.2022 23.1593   1
  14   2   7 70.9564 28.3813   3
 -16  -2  -7 32.5998 24.9620   6
 -16  -2  -7 51.6370 23.6446   1
  16  -2   7 143.210 26.1655   3
 -16   2  -7 70.1941 24.6553   1
 -16   2  -7 26.0749 24.0112   6
  16   2   7 65.0154 26.3978   3
 -18  -2  -7 -21.148 26.2367   6
 -18  -2  -7 0.05290 21.6285   1
 -18   2  -7 1.40808 20.7146   1
  18   2   7 83.3144 27.7433   3
 -18   2  -7 -35.480 24.4224   6
 -19  -3   7 62.4661 23.6282   7
 -19  -3   7 61.6233 27.2609   4
 -19   3   7 60.6088 25.2268   7
 -17  -3   7 130.430 30.0466   4
 -17  -3   7 119.796 19.9660   6
 -17  -3   7 114.548 20.7876   1
 -17  -3   7 130.059 25.8715   7
 -17   3   7 76.3958 26.8571   7
  17   3  -7 93.2346 25.0186   2
 -15  -3   7 104.057 18.9654   1
 -15  -3   7 162.251 19.9582   6
 -15  -3   7 120.770 27.8681   4
  15   3  -7 99.8154 26.0739   5
  15   3  -7 165.622 26.5335   2
 -15   3   7 152.952 29.6258   7
 -13  -3   7 225.738 21.5391   1
 -13  -3   7 227.194 31.8165   4
  13   3  -7 268.122 30.2976   2
  13   3  -7 215.471 30.2182   5
 -13   3   7 230.877 31.8135   7
 -11  -3   7 490.389 41.0986   4
  11  -3  -7 448.482 36.6333   2
 -11  -3   7 458.327 25.2538   1
 -11   3   7 469.186 37.6636   7
  11   3  -7 431.619 34.7929   5
  11   3  -7 475.214 33.5092   2
 -11   3   7 427.647 21.6343   4
  -9  -3   7 361.559 36.6740   4
   9  -3  -7 216.665 26.1959   2
  -9  -3   7 280.249 20.8750   6
  -9  -3   7 290.431 18.2943   1
  -9   3   7 370.296 35.5046   7
   9   3  -7 285.229 28.2955   2
  -9   3   7 268.869 24.1861   1
   9   3  -7 264.762 29.8822   5
   7  -3  -7 322.313 30.1421   2
  -7  -3   7 277.251 14.0485   1
  -7  -3   7 248.318 32.2878   4
  -7  -3   7 296.892 20.6724   6
  -7   3   7 295.811 23.2072   1
   7   3  -7 297.257 30.3154   5
  -7   3   7 330.861 33.4843   7
   7   3  -7 256.372 26.0986   2
  -5  -3   7 334.872 20.8959   6
   5  -3  -7 306.972 26.6778   2
  -5  -3   7 346.946 34.6617   4
  -5   3   7 307.502 20.9513   1
  -5   3   7 334.675 30.5639   7
   5   3  -7 352.088 27.6137   2
   5   3  -7 311.687 28.1066   5
   3  -3  -7 739.445 34.5921   2
  -3  -3   7 776.634 30.0038   6
   3  -3  -7 753.349 27.1209   4
   3  -3  -7 719.622 31.1287   1
  -3  -3   7 797.397 50.0842   4
   3   3  -7 729.023 35.6047   5
  -3   3   7 761.206 41.5495   7
   3   3  -7 744.389 39.0188   2
  -3   3   7 770.136 29.8008   1
   1  -3  -7 698.280 31.2919   1
  -1  -3   7 754.476 30.0922   6
   1  -3  -7 734.921 32.6798   2
   1  -3  -7 725.119 33.4693   4
  -1  -3   7 761.316 48.4898   4
   1   3  -7 732.996 20.4171   1
   1   3  -7 734.327 31.6127   6
   1   3  -7 712.747 38.1569   2
  -1   3   7 701.966 38.7378   7
   1   3  -7 690.231 33.9262   5
  -1   3   7 724.183 29.5558   1
  -1  -3  -7 589.593 28.6426   2
  -1  -3  -7 607.142 30.1324   1
   1  -3   7 644.624 29.0257   6
   1  -3   7 627.855 29.8885   5
   1  -3   7 609.753 48.6513   4
  -1  -3  -7 621.622 35.6187   4
  -1  -3  -7 610.010 37.1388   6
  -1   3  -7 612.901 30.1154   6
  -1   3  -7 629.874 23.4615   1
  -1   3  -7 666.615 29.7550   5
   1   3   7 590.053 35.1978   7
   1   3   7 627.262 27.9523   1
  -3  -3  -7 602.478 40.0277   4
   3  -3   7 463.130 41.6777   4
  -3  -3  -7 541.178 29.8870   1
  -3  -3  -7 488.779 25.5502   2
  -3  -3  -7 530.705 33.8206   6
  -3   3  -7 478.217 30.1795   6
   3   3   7 450.680 26.7738   1
  -3   3  -7 571.054 24.9645   1
  -3   3  -7 496.024 24.7137   5
  -5  -3  -7 338.880 26.5953   1
  -5  -3  -7 295.522 30.2398   6
  -5  -3  -7 317.905 21.1950   2
   5  -3   7 211.125 34.1165   4
  -5  -3  -7 366.130 22.8597   7
  -5   3  -7 395.376 29.7370   6
  -5   3  -7 327.567 17.9530   5
  -7  -3  -7 253.944 29.0700   6
  -7  -3  -7 245.451 25.3236   1
  -7  -3  -7 253.521 20.8041   2
  -7   3  -7 182.120 26.0026   6
  -9  -3  -7 98.2702 19.8287   1
  -9  -3  -7 145.753 26.5436   6
   9  -3   7 149.083 11.6130   7
   9   3   7 154.764 12.3324   5
  -9   3  -7 174.250 26.0761   6
 -11  -3  -7 159.873 28.3059   6
 -11  -3  -7 177.850 26.7271   1
  11   3   7 146.243 35.4845   3
 -11   3  -7 217.304 31.1400   6
  13  -3   7 207.923 29.8845   3
 -13  -3  -7 154.514 30.9463   6
 -13  -3  -7 165.249 28.3432   1
  13   3   7 160.091 34.3010   3
 -13   3  -7 165.398 30.5287   6
 -15  -3  -7 136.377 32.1816   6
 -15  -3  -7 122.270 28.9019   1
  15  -3   7 148.823 23.8394   3
 -15   3  -7 156.513 32.7964   6
  15   3   7 166.166 32.0221   3
 -17  -3  -7 55.7645 27.9008   6
 -17  -3  -7 18.4230 21.1276   1
 -17   3  -7 13.5947 20.9594   1
  17   3   7 37.7602 24.9776   3
 -17   3  -7 70.4446 30.3015   6
 -20  -4   7 50.4577 28.8144   4
 -20  -4   7 154.473 30.4288   7
 -20   4   7 84.0675 31.3926   7
 -18  -4   7 101.554 26.7162   7
 -18  -4   7 160.720 33.8256   4
 -18   4   7 117.217 30.5093   7
  18   4  -7 141.690 29.0778   2
  18   4  -7 103.053 28.7597   5
 -16  -4   7 183.135 34.2076   4
 -16  -4   7 143.231 21.3230   1
 -16   4   7 148.341 31.8777   7
  16   4  -7 82.7485 26.2650   5
  16   4  -7 155.587 27.7524   2
 -14  -4   7 287.915 26.5376   1
 -14  -4   7 293.694 39.7811   4
 -14  -4   7 315.939 23.7373   6
 -14   4   7 259.592 36.1726   7
  14   4  -7 292.941 36.6394   5
  14   4  -7 297.461 31.9120   2
 -12  -4   7 365.214 25.4092   1
 -12  -4   7 398.602 42.4417   4
  12   4  -7 308.114 32.5850   2
 -12   4   7 295.729 34.5311   7
  12   4  -7 337.435 36.2364   5
 -10  -4   7 687.595 49.3008   4
 -10  -4   7 640.508 29.2108   1
  10   4  -7 603.801 36.6957   2
  10   4  -7 697.387 43.4440   5
 -10   4   7 718.315 46.9159   7
  -8  -4   7 464.544 22.2430   1
  -8  -4   7 573.400 45.7251   4
   8  -4  -7 446.627 31.5791   2
  -8  -4   7 425.133 22.3532   6
   8   4  -7 423.212 33.4125   5
   8   4  -7 435.286 31.4101   2
  -8   4   7 494.715 37.6550   7
  -6  -4   7 339.975 16.8210   1
  -6  -4   7 319.491 37.6974   4
  -6  -4   7 283.473 18.3769   6
   6  -4  -7 332.533 27.8617   2
  -6   4   7 302.726 32.5061   7
   6   4  -7 264.935 28.1205   5
   6   4  -7 315.155 29.4367   2
  -6   4   7 298.711 24.9550   1
   4  -4  -7 657.467 34.6998   2
  -4  -4   7 757.289 52.1762   4
  -4  -4   7 784.683 27.9720   6
   4  -4  -7 740.760 34.1258   1
   4   4  -7 740.069 38.1615   5
   4   4  -7 770.213 38.6183   2
   4   4  -7 807.879 23.0439   1
  -4   4   7 753.755 33.1229   1
  -4   4   7 788.705 44.9385   7
   2  -4  -7 594.085 30.4931   2
   2  -4  -7 582.594 31.0521   1
  -2  -4   7 547.069 45.7648   4
  -2  -4   7 569.054 24.6780   6
   2  -4  -7 568.855 24.8634   4
  -2   4   7 548.150 28.4085   1
   2   4  -7 595.425 25.4874   6
  -2   4   7 534.305 38.2275   7
   2   4  -7 595.828 33.6893   5
   2   4  -7 605.967 34.4328   2
   2   4  -7 591.152 19.6800   1
   0  -4  -7 782.104 35.6261   4
   0  -4  -7 732.025 34.3780   1
   0  -4  -7 707.060 38.6226   6
   0  -4   7 672.756 53.2960   4
   0  -4   7 740.309 30.1626   6
   0  -4  -7 751.501 32.5548   2
   0   4  -7 729.843 30.8467   6
   0   4  -7 731.832 35.4684   5
   0   4   7 772.675 33.3567   1
   0   4  -7 732.020 26.2142   1
  -2  -4  -7 520.606 37.0690   6
   2  -4   7 585.187 30.3883   6
   2  -4   7 578.121 47.8381   4
  -2  -4  -7 617.074 35.5625   4
  -2  -4  -7 560.733 26.7682   2
  -2  -4  -7 626.119 33.4955   1
  -2   4  -7 572.838 26.3530   1
  -2   4  -7 614.031 30.1198   5
  -2   4  -7 558.441 30.4546   6
  -4  -4  -7 480.061 31.2421   1
  -4  -4  -7 481.932 23.9284   2
   4  -4   7 467.138 47.8809   4
  -4  -4  -7 455.195 33.8505   6
  -4   4  -7 478.572 25.1759   5
  -4   4  -7 522.528 27.9882   1
  -4   4  -7 472.518 31.1840   6
  -6  -4  -7 453.525 22.8114   2
  -6  -4  -7 454.617 33.3220   1
  -6  -4  -7 418.867 34.5253   6
   6  -4   7 446.632 45.6086   4
  -6   4  -7 449.309 32.3492   6
  -6   4  -7 460.392 21.8885   5
  -8  -4  -7 313.584 31.5011   1
  -8  -4  -7 335.207 34.6225   6
  -8  -4  -7 351.475 20.3429   2
  -8   4  -7 333.757 15.0582   5
  -8   4  -7 301.802 31.1081   6
 -10  -4  -7 248.823 33.1488   6
 -10  -4  -7 224.596 29.4189   1
 -10  -4  -7 272.408 19.7001   2
 -10   4  -7 191.095 28.6718   6
  10   4   7 243.226 16.3551   5
  10   4   7 308.373 40.3124   3
  12  -4   7 221.838 30.2385   3
 -12  -4  -7 238.061 34.6161   6
 -12  -4  -7 287.208 34.0699   1
 -12   4  -7 181.546 30.7823   6
  12   4   7 198.942 34.6524   3
 -14  -4  -7 200.590 32.1949   1
 -14  -4  -7 226.019 34.1659   6
  14   4   7 141.617 31.0234   3
 -14   4  -7 186.935 33.4154   6
 -16  -4  -7 157.157 34.9809   6
 -16  -4  -7 92.4856 27.9812   1
 -16   4  -7 82.2710 31.3858   6
  16   4   7 104.842 31.5527   3
 -19  -5   7 125.613 34.8975   4
  19   5  -7 134.120 28.4745   2
  19   5  -7 98.7300 32.2248   5
 -17  -5   7 77.1600 31.8764   4
 -17   5   7 100.615 33.6426   7
  17   5  -7 101.811 24.6968   2
  17   5  -7 162.283 32.1412   5
 -15  -5   7 279.422 42.6182   4
 -15  -5   7 242.259 25.6177   1
 -15   5   7 188.615 33.6646   7
  15   5  -7 250.645 35.8096   5
  15   5  -7 211.442 30.0743   2
 -13  -5   7 284.744 25.4680   1
 -13  -5   7 348.924 44.3942   4
 -13   5   7 278.185 36.4990   7
  13   5  -7 311.831 32.7434   2
  13   5  -7 252.619 35.0950   5
 -11  -5   7 365.427 43.7621   4
 -11  -5   7 414.460 26.6415   1
 -11  -5   7 404.670 20.3261   6
  11   5  -7 359.955 34.1307   2
  11   5  -7 338.463 35.8151   5
 -11   5   7 439.211 43.8109   7
  -9  -5   7 878.098 58.1833   4
  -9  -5   7 800.664 33.5389   1
  -9   5   7 797.769 49.3237   7
   9   5  -7 800.304 45.2133   5
   9   5  -7 737.512 41.7438   2
  -7  -5   7 418.580 18.1665   6
  -7  -5   7 466.154 24.3061   1
  -7  -5   7 395.967 43.0867   4
   7   5  -7 438.852 33.2550   2
   7   5  -7 479.665 34.6985   5
  -7   5   7 484.771 39.5384   7
  -5  -5   7 830.046 57.4308   4
   5  -5  -7 793.681 38.0883   2
  -5  -5   7 772.709 25.3647   6
  -5  -5   7 826.719 29.9214   1
   5   5  -7 747.825 40.8968   5
   5   5  -7 806.295 27.2343   1
   5   5  -7 687.762 38.4189   2
   3  -5  -7 467.242 28.6337   2
   3  -5  -7 444.597 30.1774   1
  -3  -5   7 500.261 49.4218   4
  -3  -5   7 491.688 20.1247   6
   3   5  -7 458.383 20.0851   1
   3   5  -7 461.771 32.2719   2
   3   5  -7 495.888 33.5794   5
   1  -5  -7 476.831 25.7173   4
   1  -5  -7 478.322 25.9076   2
  -1  -5   7 503.006 47.8604   4
  -1  -5   7 472.069 21.7598   6
   1  -5  -7 489.262 33.1666   1
   1   5  -7 444.709 30.5611   5
   1   5  -7 452.834 22.4414   6
   1   5  -7 481.512 22.2322   1
   1  -5   7 644.441 52.4941   4
  -1  -5  -7 597.821 35.1083   1
   1  -5   7 565.263 26.4254   6
  -1  -5  -7 703.571 34.4234   4
  -1  -5  -7 628.010 37.4140   6
  -1  -5  -7 562.380 26.9626   2
  -1   5  -7 555.665 31.9265   5
  -1   5  -7 545.576 27.0467   1
  -1   5  -7 605.228 28.0767   6
  -3  -5  -7 367.601 20.7371   2
  -3  -5  -7 275.663 26.9154   1
   3  -5   7 396.847 46.7557   4
  -3  -5  -7 367.880 33.9680   6
  -3   5  -7 328.340 24.6922   5
  -3   5  -7 319.356 24.6906   1
  -3   5  -7 349.736 25.9152   6
   5  -5   7 603.621 51.8334   4
  -5  -5  -7 607.713 38.4240   1
  -5  -5  -7 628.803 41.5512   6
  -5  -5  -7 653.402 25.5336   2
  -5   5  -7 647.520 30.3949   5
  -5   5  -7 657.780 36.1424   6
  -7  -5  -7 629.211 42.6667   6
   7  -5   7 611.239 52.3698   4
  -7  -5  -7 632.622 40.2149   1
  -7  -5  -7 589.546 23.1906   2
  -7   5  -7 533.440 36.9217   6
  -7   5  -7 604.077 26.8434   5
  -9  -5  -7 326.849 35.9329   6
  -9  -5  -7 268.098 32.5589   1
  -9   5  -7 394.584 35.7557   6
   9   5   7 299.775 39.8200   3
 -11  -5  -7 196.785 29.6099   1
 -11  -5  -7 173.687 29.4622   6
 -11   5  -7 173.255 28.8734   6
  11   5   7 205.012 36.4661   3
 -13  -5  -7 171.808 30.5329   1
 -13  -5  -7 189.195 33.2658   6
 -13   5  -7 148.677 31.0143   6
  13   5   7 240.910 37.2023   3
 -15  -5  -7 121.530 31.9884   6
 -15  -5  -7 109.218 28.3361   1
  15   5   7 109.306 30.4551   3
 -15   5  -7 74.6230 29.3561   6
 -17  -5  -7 44.3333 24.9207   1
  17   5   7 127.155 34.2491   3
 -18  -6   7 99.3174 36.2510   4
  18   6  -7 155.491 32.4586   5
  18   6  -7 124.864 27.0014   2
 -16  -6   7 144.557 36.3372   4
  16   6  -7 145.482 26.4127   2
  16   6  -7 211.793 36.3510   5
 -14  -6   7 176.080 23.2060   1
 -14  -6   7 236.948 43.1030   4
  14   6  -7 129.604 28.9725   5
  14   6  -7 214.788 29.5423   2
 -12  -6   7 259.027 41.8353   4
 -12  -6   7 272.547 25.5757   1
  12   6  -7 236.850 28.3119   2
  12   6  -7 267.089 35.8550   5
 -10  -6   7 478.679 51.4303   4
 -10  -6   7 472.954 29.1714   1
  10   6  -7 366.494 32.2797   2
  10   6  -7 493.274 38.9583   5
  -8  -6   7 652.813 31.9181   1
  -8  -6   7 599.043 54.9080   4
   8   6  -7 575.901 37.8271   2
   8   6  -7 594.744 42.4629   5
  -6  -6   7 671.615 31.5271   1
  -6  -6   7 706.947 57.8977   4
   6   6  -7 631.560 27.7026   1
   6   6  -7 681.068 39.4240   2
   6   6  -7 654.611 42.3146   5
  -4  -6   7 574.619 27.6396   1
  -4  -6   7 494.734 48.6061   4
   4  -6  -7 523.901 35.3702   1
   4   6  -7 508.481 24.1793   1
   4   6  -7 516.555 35.4082   5
   4   6  -7 512.608 36.2738   2
  -2  -6   7 545.034 55.9198   4
   2  -6  -7 494.187 17.8324   4
   2  -6  -7 522.749 35.6284   1
  -2  -6   7 509.721 19.0471   6
   2  -6  -7 487.931 27.8359   2
   2  -6  -7 440.418 19.6143   4
   2   6  -7 440.511 35.7989   2
   2   6  -7 468.463 24.1862   1
   2   6  -7 489.443 34.4938   5
   0  -6  -7 351.926 22.8636   2
   0  -6  -7 297.984 29.6422   1
   0  -6   7 283.235 41.0201   4
   0  -6   7 361.636 18.8829   6
   0  -6  -7 355.785 22.2302   4
   0  -6  -7 419.035 25.4445   4
   0   6  -7 359.565 19.7080   6
   0   6  -7 322.552 28.2005   5
   0   6   7 259.665 21.0349   2
   0   6  -7 329.243 22.6295   1
  -2  -6  -7 528.187 36.8248   6
  -2  -6  -7 577.488 38.3325   1
   2  -6   7 577.170 26.7632   6
  -2  -6  -7 527.855 24.5226   2
   2  -6   7 503.323 52.8670   4
  -2   6  -7 527.604 27.9129   6
  -2   6  -7 536.241 31.8740   5
  -2   6  -7 536.339 33.5876   1
   4  -6   7 713.238 60.8225   4
  -4  -6  -7 718.865 44.7199   6
  -4  -6  -7 763.630 43.0889   1
  -4  -6  -7 728.953 26.3348   2
  -4   6  -7 692.934 35.2563   5
  -4   6  -7 766.886 36.2520   6
  -6  -6  -7 417.003 38.8867   6
   6  -6   7 402.380 48.9327   4
  -6  -6  -7 374.777 33.6116   1
  -6   6  -7 426.150 33.2096   6
  -6   6  -7 438.307 27.0774   5
  -8  -6  -7 268.272 31.1248   1
  -8  -6  -7 267.726 32.3270   6
   8  -6   7 279.945 41.6074   4
   8   6   7 237.223 40.4570   3
  -8   6  -7 312.725 21.5873   5
  -8   6  -7 271.510 29.0354   6
 -10  -6  -7 151.701 27.6187   1
 -10  -6  -7 169.720 31.4032   6
  10   6   7 169.708 20.9659   5
 -10   6  -7 168.013 28.6178   6
  10   6   7 175.199 36.8445   3
 -12  -6  -7 161.805 31.1888   6
 -12  -6  -7 191.783 33.5056   1
 -12   6  -7 123.714 27.5071   6
  12   6   7 137.091 33.1226   3
 -14  -6  -7 104.772 29.4187   6
 -14  -6  -7 104.742 29.4645   1
 -14   6  -7 107.153 29.3216   6
  14   6   7 120.705 33.0299   3
 -16  -6  -7 91.0174 29.5695   1
 -16  -6  -7 50.4069 27.1385   6
  16   6   7 145.664 34.0263   3
 -16   6  -7 60.7639 28.0473   6
 -17  -7   7 135.740 40.4103   4
  17   7  -7 185.335 28.8883   2
  17   7  -7 190.944 36.8093   5
 -15  -7   7 103.654 35.4244   4
  15   7  -7 117.543 24.4137   2
  15   7  -7 102.858 28.3949   5
 -13  -7   7 117.794 33.3191   4
 -13  -7   7 122.785 24.1472   1
  13   7  -7 140.998 29.1417   5
  13   7  -7 157.939 25.9162   2
 -11  -7   7 229.431 25.0961   1
 -11  -7   7 204.377 40.1599   4
  11   7  -7 227.514 28.8526   2
  11   7  -7 244.791 33.8648   5
  -9  -7   7 114.353 35.5494   4
  -9  -7   7 238.459 24.4131   1
   9   7  -7 209.558 27.4266   2
   9   7  -7 182.823 31.7293   5
  -7  -7   7 713.305 61.3501   4
  -7  -7   7 743.299 36.9674   1
   7   7  -7 714.904 46.5759   5
   7   7  -7 736.831 40.6652   2
  -5  -7   7 414.697 28.3634   1
  -5  -7   7 416.325 50.0924   4
   5  -7  -7 388.813 34.7333   1
   5   7  -7 373.368 31.0547   2
   5   7  -7 330.017 35.3817   5
  -3  -7   7 495.061 54.3506   4
   3  -7  -7 466.840 36.2058   1
   3   7  -7 397.474 32.3528   2
   3   7  -7 433.585 33.9432   5
  -1  -7   7 397.119 49.8890   4
   1  -7  -7 571.192 40.0014   1
   1  -7  -7 535.004 24.0984   4
   1   7  -7 471.640 33.7846   5
  -1  -7  -7 562.008 30.0831   4
   1  -7   7 382.582 47.7565   4
  -1  -7  -7 530.084 39.6269   1
  -1   7  -7 543.686 35.5954   5
  -1   7  -7 490.346 23.4969   6
  -3  -7  -7 597.397 35.8262   4
  -3  -7  -7 646.335 42.7542   6
  -3  -7  -7 595.266 42.0010   1
   3  -7   7 585.776 60.9669   4
  -3   7  -7 554.505 34.8154   5
  -3   7  -7 588.067 29.6446   6
  -5  -7  -7 233.831 29.9518   6
  -5  -7  -7 236.381 31.8552   1
   5  -7   7 219.216 41.0794   4
  -5   7  -7 264.777 25.5135   6
  -5   7  -7 282.872 26.7425   5
  -7  -7  -7 212.118 30.5144   1
  -7  -7  -7 248.161 32.8130   6
   7  -7   7 231.025 41.8489   4
   7   7   7 114.959 32.9328   3
  -7   7  -7 236.297 23.6292   5
  -7   7  -7 215.163 26.6904   6
  -9  -7  -7 71.0890 25.1573   1
   9  -7   7 193.137 39.4753   4
  -9  -7  -7 105.291 26.5681   6
  -9   7  -7 139.265 26.1730   6
   9   7   7 117.332 31.4185   3
 -11  -7  -7 148.493 31.7112   1
 -11  -7  -7 156.479 29.6598   6
 -11   7  -7 161.613 30.2925   6
  11   7   7 144.035 33.1383   3
 -13  -7  -7 93.8413 31.1777   1
 -13  -7  -7 94.7352 30.3635   6
  13   7   7 131.014 31.3370   3
 -13   7  -7 89.6106 28.0264   6
 -15  -7  -7 82.3343 30.3643   6
 -15  -7  -7 79.7781 29.6201   1
 -15   7  -7 114.916 32.2310   6
  15   7   7 120.727 34.0676   3
 -16  -8   7 56.3245 35.7721   4
  16   8  -7 139.203 33.6248   5
  16   8  -7 96.8063 23.8273   2
 -14  -8   7 124.133 36.6897   4
  14   8  -7 94.2626 28.6264   5
  14   8  -7 89.0119 23.2576   2
 -12  -8   7 118.596 37.3060   4
  12   8  -7 99.2782 27.6297   5
  12   8  -7 113.136 23.2046   2
 -10  -8   7 84.6215 20.9816   1
 -10  -8   7 48.5668 32.7432   4
  10   8  -7 78.8430 26.0489   5
  10   8  -7 86.6214 22.6320   2
  -8  -8   7 239.671 44.7309   4
  -8  -8   7 219.439 25.9734   1
   8   8  -7 271.595 30.6306   2
   8   8  -7 279.965 37.0944   5
  -6  -8   7 361.255 49.6162   4
  -6  -8   7 412.357 31.9945   1
   6   8  -7 424.783 41.4904   5
   6   8  -7 411.706 36.8499   2
  -4  -8   7 241.384 24.8233   1
   4  -8  -7 286.560 33.1778   1
  -4  -8   7 249.707 45.7717   4
   4   8  -7 238.128 28.8719   2
   4   8  -7 262.364 33.1836   5
   2  -8  -7 228.905 30.5759   1
  -2  -8   7 199.185 40.4883   4
   2   8  -7 308.508 34.4129   5
   2   8  -7 295.600 31.5885   2
   0  -8  -7 218.776 20.9463   4
   0  -8   7 291.173 49.7671   4
   0  -8  -7 224.849 29.9411   1
   0   8  -7 307.447 33.8263   5
   2  -8   7 299.998 47.8828   4
  -2  -8  -7 275.957 26.1506   4
  -2  -8  -7 247.778 32.3925   1
  -2   8  -7 268.058 19.4515   6
  -2   8  -7 277.893 30.7365   5
  -4  -8  -7 260.082 34.0167   1
  -4  -8  -7 214.176 27.1269   4
   4  -8   7 217.262 43.5010   4
  -4   8  -7 222.368 21.7027   6
  -4   8  -7 231.307 27.7212   5
  -6  -8  -7 155.417 28.3756   4
  -6  -8  -7 201.120 31.8460   6
   6  -8   7 170.932 39.5915   4
  -6  -8  -7 198.656 31.2524   1
  -6   8  -7 190.616 23.3477   6
   6   8   7 135.751 36.5443   3
  -6   8  -7 185.627 24.6109   5
  -8  -8  -7 77.0765 26.6006   1
  -8  -8  -7 89.5124 27.3024   6
   8  -8   7 161.993 38.9972   4
   8   8   7 75.4799 30.7986   3
  -8   8  -7 137.440 24.9453   6
 -10  -8  -7 164.802 33.4290   1
 -10  -8  -7 104.905 28.1289   6
  10   8   7 143.913 32.5662   3
  10   8   7 86.7865 23.0537   5
 -10   8  -7 154.069 28.3525   6
 -12  -8  -7 75.2294 26.4647   6
 -12  -8  -7 72.8339 29.4094   1
  12   8   7 60.6987 27.0492   3
 -12   8  -7 87.0403 26.8348   6
  14   8   7 48.3965 33.5104   3
 -13  -9   7 34.3040 36.3365   4
  13   9  -7 63.1393 29.0270   5
  13   9  -7 27.1132 19.3542   2
 -11  -9   7 -8.4475 30.5099   4
  11   9  -7 50.8638 27.4554   5
  11   9  -7 29.2769 18.6899   2
  -9  -9   7 57.8192 36.5426   4
  -9  -9   7 82.6844 23.5988   1
   9   9  -7 99.1628 22.5287   2
   9   9  -7 90.9963 27.6750   5
  -7  -9   7 98.0380 22.9074   1
  -7  -9   7 52.6663 37.3175   4
   7   9  -7 99.3760 28.5713   5
   7   9  -7 66.1508 22.1366   2
  -5  -9   7 219.817 26.1378   1
  -5  -9   7 170.995 42.5594   4
   5  -9  -7 186.064 30.5669   1
   5   9  -7 146.238 26.0888   2
   5   9  -7 155.251 29.8924   5
  -3  -9   7 66.6701 38.8779   4
   3  -9  -7 57.3975 24.3728   1
   3   9  -7 49.3830 22.9305   5
   3   9  -7 62.0845 21.5005   2
  -1  -9   7 29.9242 33.0514   4
   1  -9  -7 40.4783 24.9174   1
   1   9  -7 81.9897 23.8427   5
   1  -9   7 52.3147 35.6079   4
  -1  -9  -7 61.3177 25.9493   1
  -1   9  -7 106.737 23.6368   5
   3  -9   7 86.7507 37.4155   4
  -3  -9  -7 100.539 27.4841   1
  -3  -9  -7 95.9357 20.0318   4
  -3   9  -7 140.098 26.2341   5
   3   9   7 94.4799 34.0299   3
  -5  -9  -7 123.241 31.5314   1
   5  -9   7 146.065 40.1175   4
  -5  -9  -7 107.535 23.5319   4
  -5   9  -7 150.392 24.3920   5
   5   9   7 123.142 33.0080   3
  -7  -9  -7 103.138 26.1385   6
  -7  -9  -7 82.5653 28.0093   1
   7  -9   7 72.5824 34.2702   4
  -7  -9  -7 74.0098 24.4401   4
  -7   9  -7 88.1773 20.5585   5
  -7   9  -7 42.5169 19.4046   6
   7   9   7 15.1959 27.3015   3
  -9  -9  -7 50.1035 26.5101   1
  -9  -9  -7 27.0334 22.6951   4
  -9  -9  -7 116.587 29.1445   6
   9  -9   7 79.8980 35.7970   4
   9   9   7 57.9630 27.4383   3
  -9   9  -7 89.9846 24.2078   6
 -11  -9  -7 28.2015 24.1852   4
 -11  -9  -7 -2.7822 25.9640   1
 -11  -9  -7 35.3618 25.7861   6
 -11   9  -7 -9.7669 20.6943   6
  11   9   7 94.4784 30.0592   3
 -12 -10   7 -38.505 29.7919   4
  12  10  -7 -0.9145 17.0829   2
  12  10  -7 30.8781 25.3791   5
 -10 -10   7 6.49992 36.6918   4
  10  10  -7 26.0224 18.7734   2
  10  10  -7 47.6012 27.8795   5
  -8 -10   7 -24.027 34.7821   4
   8  10  -7 42.4664 25.0006   5
   8  10  -7 56.5538 21.5477   2
  -6 -10   7 61.8273 21.1312   1
  -6 -10   7 17.1144 34.0224   4
   6  10  -7 33.7071 22.6045   5
   6  10  -7 57.4871 20.5903   2
   4 -10  -7 81.1381 26.6525   1
  -4 -10   7 63.4221 20.2357   1
  -4 -10   7 67.4033 39.2983   4
   4  10  -7 62.5784 22.6959   2
   4  10  -7 43.5974 25.4263   5
  -2 -10   7 -10.396 36.8052   4
   2 -10  -7 25.6960 21.9323   1
   2  10  -7 -17.847 20.0550   5
   2  10  -7 -28.049 18.5852   2
   0 -10   7 20.9202 39.7188   4
   0 -10  -7 10.9117 24.1725   1
   0  10   7 -48.675 25.9814   3
   0  10  -7 29.1404 22.4453   5
   2 -10   7 -10.288 33.7021   4
  -2 -10  -7 1.24208 25.5761   1
  -2  10  -7 30.1372 21.1015   5
   2  10   7 1.55574 29.2723   3
  -4 -10  -7 37.6651 27.9956   1
   4 -10   7 35.8049 34.6981   4
   4  10   7 23.0495 27.7471   3
  -4  10  -7 52.0662 21.3667   5
   6 -10   7 74.9489 35.9438   4
  -6 -10  -7 37.1218 21.4482   4
  -6 -10  -7 6.51265 23.9705   1
  -6  10  -7 60.5287 21.5227   5
   6  10   7 60.3891 29.0799   3
   8 -10   7 59.6168 34.9943   4
  -8 -10  -7 -37.491 26.1792   1
  -8 -10  -7 27.7376 22.1294   4
   8  10   7 -5.9709 25.5346   3
 -10 -10  -7 -25.089 28.0690   1
 -10 -10  -7 40.4334 25.2842   4
  10 -10   7 54.5865 30.7659   4
 -10 -10  -7 2.40350 23.3391   6
  10  10   7 7.08189 25.3230   3
  -9 -11   7 -54.783 34.6032   4
   9  11  -7 -7.4318 16.7109   2
   9  11  -7 41.0733 25.6566   5
  -7 -11   7 -30.442 33.1797   4
   7  11  -7 -5.6080 21.7761   5
   7  11  -7 2.24361 18.8061   2
  -5 -11   7 -16.230 37.1635   4
   5  11  -7 17.8056 24.9513   5
   5  11  -7 -13.201 18.4159   2
   3 -11  -7 0.61918 25.5200   1
  -3 -11   7 -59.628 37.3239   4
   3  11  -7 -12.064 18.9546   2
   3  11  -7 -15.323 21.2884   5
  -1 -11   7 -37.190 37.5794   4
   1 -11  -7 20.2728 26.2206   1
   1  11  -7 6.23635 22.6228   5
  -1  11   7 -31.402 25.3600   3
  -1 -11  -7 9.88598 27.2412   1
   1 -11   7 -3.7203 42.1860   4
  -1  11  -7 26.2590 23.3439   5
   1  11   7 -33.748 23.5101   3
   3 -11   7 29.9763 41.7362   4
  -3 -11  -7 -14.929 26.2286   1
   3  11   7 0.42107 24.9774   3
  -3  11  -7 6.01147 21.3234   5
   5 -11   7 -1.7702 36.5733   4
  -5 -11  -7 -37.716 24.8009   1
  -5  11  -7 18.3196 20.9230   5
   5  11   7 4.74557 23.9807   3
  -7 -11  -7 -56.362 25.5480   1
   7 -11   7 23.7805 30.3252   4
   7  11   7 51.0980 26.9856   3
  -6 -12   7 -100.46 36.9766   4
   6  12  -7 9.60524 18.2951   2
   6  12  -7 -17.703 21.2597   5
   4 -12  -7 18.1976 25.0506   1
  -4 -12   7 -60.734 37.9158   4
   4  12  -7 -5.3030 19.9685   2
   4  12  -7 11.0183 24.4051   5
   2 -12  -7 4.19714 24.9525   1
  -2 -12   7 -27.856 38.7893   4
   2  12  -7 26.0270 24.6078   5
   2  12  -7 -18.641 20.7816   2
   0 -12  -7 39.0064 29.9407   1
   0 -12   7 -76.241 36.6228   4
   0  12   7 -5.2507 21.6695   3
   0  12  -7 24.4143 23.1162   5
   2 -12   7 -98.556 41.2969   4
  -2 -12  -7 -39.553 27.8151   1
  -2  12  -7 1.20772 22.1805   5
   2  12   7 41.6495 24.9001   3
 -20   0   8 61.7013 21.3762   6
 -20   0   8 67.2922 25.2932   7
 -18   0   8 182.054 31.3029   7
 -16   0   8 150.327 28.6021   4
 -16   0   8 187.216 32.9990   7
  16   0  -8 205.228 30.7692   2
 -16   0   8 156.210 23.7762   1
 -14   0   8 334.628 36.3775   7
 -14   0   8 371.339 25.4006   1
  14   0  -8 301.700 33.9979   2
 -14   0   8 320.336 34.0984   4
 -12   0   8 568.392 42.6235   7
 -12   0   8 511.457 36.9249   4
 -12   0   8 500.291 26.0116   1
  12   0  -8 489.043 38.2261   2
 -10   0   8 976.730 51.0245   7
 -10   0   8 953.107 31.8729   1
 -10   0   8 969.639 47.1726   4
  10   0  -8 899.549 45.7724   2
   8   0  -8 652.596 38.3858   2
  -8   0   8 716.069 22.1979   1
   8   0  -8 817.373 37.6531   4
  -8   0   8 735.500 41.1756   4
  -8   0   8 745.000 43.2387   7
  -8   0   8 713.227 23.1315   1
   6   0  -8 751.924 40.1833   2
  -6   0   8 797.068 44.8110   7
   6   0  -8 832.371 39.1301   4
  -6   0   8 744.574 41.8780   4
   4   0  -8 900.907 41.3545   4
  -4   0   8 787.587 41.5638   7
   4   0  -8 822.211 41.1141   2
  -4   0   8 912.190 44.8128   4
  -2   0   8 377.479 30.6355   7
   2   0  -8 429.908 32.8895   4
   2   0  -8 379.908 27.5262   2
  -2   0   8 385.163 32.2575   4
   0   0  -8 1347.84 51.8210   6
   0   0   8 1366.72 46.9133   5
   0   0   8 1267.59 56.2664   4
   0   0  -8 1321.37 35.4353   1
   0   0   8 1415.82 51.7846   7
   0   0  -8 1336.93 50.8931   2
  -2   0  -8 622.826 35.3393   2
   2   0   8 673.271 33.1054   7
   2   0   8 640.325 28.2448   5
  -2   0  -8 641.348 25.1572   1
  -2   0  -8 655.187 37.3080   6
   4   0   8 810.363 29.0643   5
  -4   0  -8 781.012 41.0221   6
  -4   0  -8 860.007 33.0154   1
   4   0   8 876.136 36.1376   7
  -4   0  -8 781.282 38.2206   2
  -6   0  -8 675.219 42.9437   6
   6   0   8 710.102 30.6093   7
   6   0   8 749.467 22.5410   5
  -6   0  -8 751.469 34.5216   1
  -8   0  -8 510.604 33.1258   1
  -8   0  -8 555.687 40.7061   6
 -10   0  -8 353.571 30.3989   1
 -10   0  -8 333.467 35.8567   6
 -12   0  -8 130.711 24.9683   1
 -12   0  -8 93.2450 26.3027   6
 -14   0  -8 135.913 25.3398   1
 -14   0  -8 148.551 29.9960   6
  14   0   8 123.362 33.0961   3
 -16   0  -8 165.551 30.0204   1
  16   0   8 194.619 33.9908   3
 -16   0  -8 138.130 34.1423   6
 -19  -1   8 126.948 28.5434   7
 -19  -1   8 157.108 24.1998   6
 -19   1   8 138.048 32.3752   7
 -17  -1   8 215.811 33.7653   7
 -17  -1   8 158.501 29.8561   4
 -17   1   8 215.246 33.8804   7
  17   1  -8 151.159 28.5958   2
 -15  -1   8 231.301 23.5491   1
 -15  -1   8 215.521 31.6777   4
  15  -1  -8 248.987 34.7502   2
 -15  -1   8 265.834 34.4955   7
 -15   1   8 289.633 35.7836   7
  15   1  -8 197.271 29.6391   2
 -13  -1   8 330.030 22.8633   1
 -13  -1   8 431.084 41.0546   7
  13  -1  -8 258.271 31.6239   2
 -13  -1   8 345.572 35.1007   4
  13   1  -8 314.985 34.1548   2
 -13   1   8 336.001 36.0777   7
 -13   1   8 314.693 31.0939   4
 -11  -1   8 600.466 43.7951   7
 -11  -1   8 652.166 25.9051   1
 -11  -1   8 637.235 42.2967   4
  11  -1  -8 624.457 40.6777   2
 -11   1   8 601.740 44.5190   7
 -11   1   8 582.725 35.8550   4
  11   1  -8 585.534 38.2535   2
  -9  -1   8 861.140 46.7371   7
   9  -1  -8 884.433 43.5666   2
  -9  -1   8 801.402 46.4452   4
  -9  -1   8 859.016 25.4011   1
  -9  -1   8 814.475 25.6677   1
   9   1  -8 699.766 40.5333   2
  -9   1   8 819.652 31.1057   1
  -9   1   8 806.422 39.1202   4
  -9   1   8 836.447 49.0348   7
   7  -1  -8 614.795 37.5261   2
  -7  -1   8 543.408 39.1709   4
   7  -1  -8 613.161 29.4047   4
  -7  -1   8 618.719 40.3564   7
  -7   1   8 581.877 38.6644   7
  -7   1   8 589.227 21.5857   1
  -7   1   8 611.477 34.2339   4
   7   1  -8 573.156 34.9243   2
   5  -1  -8 584.057 35.1035   2
   5  -1  -8 593.217 30.3084   4
  -5  -1   8 613.476 39.0535   7
  -5  -1   8 598.456 42.5567   4
   5   1  -8 630.464 35.0138   2
  -5   1   8 593.937 17.7156   1
  -5   1   8 611.240 34.0878   4
  -5   1   8 560.069 38.9216   7
   3  -1  -8 650.083 34.5498   2
  -3  -1   8 717.667 37.9212   7
  -3  -1   8 625.249 43.7464   4
   3  -1  -8 689.283 34.6345   4
  -3   1   8 708.906 36.6555   4
   3   1  -8 667.477 36.1540   2
  -3   1   8 705.884 39.7435   7
   1  -1  -8 1333.96 51.0982   6
   1  -1  -8 1193.95 47.5810   2
   1  -1  -8 1174.88 50.7211   4
  -1  -1   8 1205.13 57.3737   4
  -1  -1   8 1187.22 49.3702   7
   1  -1  -8 1188.08 34.2135   1
   1   1  -8 1165.87 49.1473   2
  -1   1   8 1197.57 49.7307   7
   1   1  -8 1246.36 47.5306   6
   1  -1   8 719.428 46.7752   4
   1  -1   8 735.877 31.1129   5
  -1  -1  -8 717.563 39.9498   6
  -1  -1  -8 764.389 27.6328   1
   1  -1   8 731.865 36.7015   7
  -1  -1  -8 729.513 35.6494   2
  -1   1  -8 743.753 38.9437   2
  -1   1  -8 778.297 23.5274   1
   1   1   8 684.947 36.8425   7
   1   1   8 712.430 31.4430   5
  -1   1  -8 747.081 38.1216   6
  -3  -1  -8 427.345 34.8504   6
  -3  -1  -8 460.551 29.5784   2
   3  -1   8 497.469 22.9994   5
  -3  -1  -8 472.359 24.8499   1
   3  -1   8 410.196 27.2986   7
  -3   1  -8 505.939 22.5854   1
  -3   1  -8 503.593 34.2447   6
   3   1   8 522.457 24.0571   5
   3   1   8 539.044 30.7498   7
   5  -1   8 614.349 29.0736   7
   5  -1   8 588.085 22.4114   5
  -5  -1  -8 628.483 34.4276   2
  -5  -1  -8 595.481 30.7026   1
  -5  -1  -8 491.609 38.2167   6
   5   1   8 635.745 23.6487   5
   5   1   8 596.927 30.4878   7
  -5   1  -8 607.240 28.3995   1
  -5   1  -8 542.790 38.0960   6
  -7  -1  -8 559.637 40.5523   6
  -7  -1  -8 486.426 32.0997   1
   7  -1   8 510.409 23.4965   7
   7   1   8 518.085 15.8183   5
  -7   1  -8 427.237 36.5814   6
  -7   1  -8 558.064 30.9144   1
  -9  -1  -8 512.159 35.0437   1
  -9  -1  -8 456.006 38.3509   6
  -9   1  -8 461.363 36.8232   6
  -9   1  -8 463.537 32.7395   1
 -11  -1  -8 253.933 30.2044   1
 -11  -1  -8 227.158 33.1433   6
 -11   1  -8 225.016 31.7809   6
 -11   1  -8 267.609 29.1055   1
 -13  -1  -8 159.535 26.5468   1
  13  -1   8 56.4210 31.3046   3
 -13  -1  -8 157.003 32.2463   6
 -13   1  -8 156.998 32.1710   6
 -13   1  -8 141.847 26.5164   1
  13   1   8 98.8654 34.7498   3
 -15  -1  -8 88.5587 27.9010   6
  15  -1   8 184.295 32.8246   3
 -15  -1  -8 114.373 25.8256   1
 -15   1  -8 134.748 32.7176   6
 -15   1  -8 110.224 27.1518   1
  15   1   8 161.793 34.1227   3
 -17  -1  -8 113.473 27.7176   1
  17  -1   8 147.397 29.4196   3
 -17  -1  -8 64.6351 30.4639   6
  17   1   8 110.241 29.6202   3
 -17   1  -8 81.8653 26.1757   1
 -17   1  -8 114.620 32.8147   6
 -20  -2   8 112.774 27.3963   7
 -20   2   8 121.270 31.0585   7
 -18  -2   8 92.9394 19.0407   6
 -18  -2   8 102.693 28.8535   4
 -18  -2   8 66.2523 24.5487   7
  18   2  -8 84.1887 27.8498   2
 -18   2   8 91.4452 28.4489   7
 -16  -2   8 185.464 32.1643   4
 -16  -2   8 248.973 35.0573   7
 -16   2   8 215.205 33.7592   7
  16   2  -8 160.304 27.9779   2
  14  -2  -8 125.200 25.8864   2
 -14  -2   8 142.894 27.3280   7
 -14  -2   8 187.789 31.0858   4
 -14  -2   8 160.070 20.8946   1
 -14   2   8 180.319 31.0454   7
  14   2  -8 123.417 25.2389   2
 -12  -2   8 445.803 37.4927   7
 -12  -2   8 374.098 22.6036   1
 -12  -2   8 383.098 38.5232   4
  12  -2  -8 381.382 36.2475   2
  12   2  -8 463.566 39.6013   2
 -12   2   8 352.516 29.0242   4
 -12   2   8 354.751 37.0131   7
 -10  -2   8 330.701 35.7954   4
  10  -2  -8 292.104 30.6264   2
 -10  -2   8 374.360 18.0685   1
 -10   2   8 333.328 37.1244   7
  10   2  -8 382.822 37.1578   5
 -10   2   8 318.631 24.7677   4
  10   2  -8 289.987 30.3983   2
  -8  -2   8 484.771 41.6983   4
   8  -2  -8 428.255 31.7074   2
  -8   2   8 486.624 25.9324   4
  -8   2   8 433.141 36.0275   7
  -8   2   8 444.258 24.2014   1
   8   2  -8 441.194 32.3210   2
   8   2  -8 489.925 36.6969   5
   6  -2  -8 458.757 33.0005   2
  -6  -2   8 420.709 40.3582   4
   6  -2  -8 504.738 22.4599   4
   6   2  -8 471.091 32.9402   5
   6   2  -8 476.155 33.6480   2
  -6   2   8 509.228 25.4894   4
  -6   2   8 472.483 35.6127   7
  -6   2   8 463.645 21.5570   1
  -4  -2   8 493.664 44.4259   4
   4  -2  -8 451.803 24.4388   4
   4  -2  -8 488.623 31.1682   2
   4   2  -8 429.735 31.2169   2
   4   2  -8 440.354 31.8978   5
  -4   2   8 478.285 19.7772   1
  -4   2   8 492.470 36.4579   7
   2  -2  -8 1152.64 44.8409   2
  -2  -2   8 1137.65 58.5013   4
   2  -2  -8 1154.80 45.1873   4
   2  -2  -8 1177.02 36.0002   1
   2   2  -8 1103.39 47.3760   2
  -2   2   8 1132.06 34.6909   1
   2   2  -8 1100.62 42.6749   6
  -2   2   8 1142.32 50.4029   7
   2   2  -8 1145.63 45.7799   5
   0  -2  -8 662.829 27.3494   1
   0  -2  -8 587.281 32.3369   2
   0  -2  -8 592.483 36.1012   6
   0  -2   8 682.263 48.6767   4
   0  -2  -8 621.443 39.1643   4
   0   2  -8 610.115 33.9628   6
   0   2   8 700.996 25.5041   1
   0   2  -8 594.060 31.1529   5
   0   2  -8 587.316 35.1468   2
   0   2   8 617.641 36.6419   7
   2  -2   8 549.073 43.6750   4
   2  -2   8 598.137 27.5763   5
  -2  -2  -8 609.018 39.3043   6
  -2  -2  -8 600.098 28.1632   1
  -2  -2  -8 557.493 31.1362   2
  -2   2  -8 624.265 22.8479   1
   2   2   8 607.942 28.6534   5
   2   2   8 588.456 34.3112   7
  -2   2  -8 636.818 35.1581   6
   4  -2   8 211.786 17.5322   5
  -4  -2  -8 187.687 20.2132   1
   4  -2   8 172.701 31.7741   4
  -4  -2  -8 208.766 21.7419   2
  -4  -2  -8 170.627 25.5958   6
   4  -2   8 220.949 20.6593   7
   4   2   8 181.196 21.4809   7
  -4   2  -8 196.017 17.6186   1
   4   2   8 196.111 16.3612   5
  -4   2  -8 185.334 24.4116   6
   6  -2   8 308.482 20.3531   7
  -6  -2  -8 259.462 30.7580   6
  -6  -2  -8 319.970 25.4262   2
  -6  -2  -8 252.615 23.6611   1
   6   2   8 310.038 16.4067   5
  -6   2  -8 313.237 30.9440   6
  -6   2  -8 311.970 23.0377   1
   8  -2   8 415.912 19.8717   7
  -8  -2  -8 402.217 38.4162   6
  -8  -2  -8 432.419 32.8641   1
  -8   2  -8 466.745 38.1166   6
  -8   2  -8 472.802 30.4047   1
 -10  -2  -8 231.374 28.0533   1
 -10  -2  -8 214.358 31.5983   6
 -10   2  -8 211.217 25.3501   1
 -10   2  -8 232.245 32.7309   6
 -12  -2  -8 110.013 27.8563   6
 -12  -2  -8 178.174 27.3785   1
 -12   2  -8 206.657 33.1054   6
 -12   2  -8 174.344 25.5604   1
  12   2   8 145.579 37.1303   3
 -14  -2  -8 80.4417 27.9980   6
  14  -2   8 73.7639 26.7356   3
 -14  -2  -8 96.3180 25.7799   1
 -14   2  -8 78.6858 22.5614   1
  14   2   8 106.790 32.1658   3
 -14   2  -8 92.2181 27.9046   6
 -16  -2  -8 83.2605 30.4156   6
 -16  -2  -8 70.8528 25.0168   1
  16  -2   8 122.849 29.0993   3
 -16   2  -8 78.0851 24.9501   1
 -16   2  -8 62.4836 26.4841   6
  16   2   8 61.1900 28.2995   3
 -19  -3   8 71.3167 25.4577   7
 -19  -3   8 52.6383 27.6192   4
 -19   3   8 49.1494 27.2713   7
  19   3  -8 84.4615 27.9219   2
 -17  -3   8 54.7888 26.8177   4
 -17  -3   8 40.4455 23.2947   7
 -17   3   8 97.8036 30.9211   7
  17   3  -8 78.0624 24.6981   2
 -15  -3   8 124.254 26.9776   7
 -15  -3   8 74.0178 26.4473   4
  15   3  -8 146.943 28.5267   2
  15   3  -8 167.491 31.0686   5
 -15   3   8 133.019 28.0345   7
 -13  -3   8 168.245 30.1233   4
  13   3  -8 203.092 29.1003   2
  13   3  -8 206.020 30.9137   5
 -13   3   8 216.683 34.8150   7
 -11  -3   8 187.988 16.4389   1
 -11  -3   8 157.369 29.2328   4
  11  -3  -8 157.741 26.5595   2
  11   3  -8 200.788 30.3784   5
 -11   3   8 117.205 25.3309   7
  11   3  -8 168.576 27.6034   2
   9  -3  -8 144.359 23.1047   2
  -9  -3   8 174.557 12.4587   1
  -9  -3   8 185.511 31.4335   4
   9   3  -8 171.639 27.4361   5
   9   3  -8 156.585 24.7929   2
  -9   3   8 138.817 19.6538   1
  -9   3   8 161.931 27.8784   7
  -7  -3   8 339.835 38.8789   4
  -7  -3   8 316.794 22.4243   6
   7  -3  -8 271.192 27.2687   2
   7   3  -8 287.689 29.4324   2
   7   3  -8 273.948 30.3898   5
  -7   3   8 342.670 34.7857   7
  -7   3   8 263.339 21.5157   1
  -5  -3   8 298.675 21.9052   6
  -5  -3   8 265.573 35.2163   4
   5  -3  -8 321.580 13.9534   4
   5  -3  -8 318.497 29.0982   2
   5   3  -8 256.244 28.6857   2
   5   3  -8 289.950 30.5841   5
  -5   3   8 279.716 30.3049   7
  -5   3   8 252.586 19.8293   1
   3  -3  -8 828.983 31.2910   4
  -3  -3   8 763.247 32.8401   6
   3  -3  -8 823.915 31.8965   1
   3  -3  -8 819.561 38.6446   2
  -3  -3   8 890.531 56.3370   4
   3   3  -8 821.502 40.4086   5
   3   3  -8 770.626 39.9801   2
  -3   3   8 812.239 30.8166   1
   1  -3  -8 331.583 25.2768   2
   1  -3  -8 262.042 26.5952   4
  -1  -3   8 361.231 41.9878   4
   1  -3  -8 336.798 23.1675   1
  -1   3   8 329.587 20.0830   1
  -1   3   8 312.255 30.2382   7
   1   3  -8 280.448 28.4285   2
   1   3  -8 387.417 27.0525   5
   1   3  -8 281.741 24.2511   6
  -1  -3  -8 359.529 25.3278   1
  -1  -3  -8 335.235 33.5932   4
   1  -3   8 331.211 39.2636   4
  -1  -3  -8 376.675 25.5604   2
  -1  -3  -8 426.101 35.9567   6
  -1   3  -8 385.671 27.1249   6
   1   3   8 367.433 32.6623   7
  -1   3  -8 388.119 24.9816   5
  -1   3  -8 378.735 17.8784   1
   1   3   8 372.778 22.5656   1
  -3  -3  -8 342.610 26.3331   1
  -3  -3  -8 285.825 31.5228   6
  -3  -3  -8 325.023 24.1699   2
   3  -3   8 296.167 38.1683   4
  -3   3  -8 347.241 20.2262   1
  -3   3  -8 338.913 21.9515   5
  -3   3  -8 362.827 29.0958   6
  -5  -3  -8 164.455 19.2284   2
   5  -3   8 131.380 31.7868   4
  -5  -3  -8 141.023 20.5197   1
  -5  -3  -8 170.581 28.2476   6
  -5   3  -8 159.917 23.6674   6
   7  -3   8 324.219 20.5076   7
  -7  -3  -8 300.280 23.8930   2
  -7  -3  -8 321.338 36.6825   6
  -7  -3  -8 270.965 27.6994   1
  -7   3  -8 309.717 31.3874   6
  -9  -3  -8 179.797 28.6624   6
  -9  -3  -8 159.596 24.4906   1
  -9  -3  -8 207.910 21.9534   2
  -9   3  -8 165.910 27.5859   6
 -11  -3  -8 101.773 23.7918   1
 -11  -3  -8 106.406 26.7075   6
 -11   3  -8 115.405 28.1479   6
  13  -3   8 -5.0062 26.5420   3
 -13  -3  -8 48.6702 27.1739   6
 -13  -3  -8 50.7970 22.4425   1
  13   3   8 21.0240 29.7509   3
 -13   3  -8 40.4293 25.2028   6
 -15  -3  -8 56.1917 25.9942   1
 -15  -3  -8 85.3282 30.7728   6
 -15   3  -8 27.6768 20.0768   1
  15   3   8 41.1306 27.2070   3
 -15   3  -8 6.87414 23.9815   6
 -18  -4   8 -2.9738 24.7541   4
 -18  -4   8 70.2186 25.0629   7
  18   4  -8 0.77515 21.1798   2
 -18   4   8 49.8774 29.6297   7
 -16  -4   8 16.5313 22.8414   4
 -16   4   8 8.88270 21.6083   7
  16   4  -8 31.4935 25.0713   5
  16   4  -8 48.2227 21.9697   2
 -14  -4   8 88.0520 27.8172   4
  14   4  -8 137.682 26.7907   2
 -14   4   8 102.454 29.6247   7
  14   4  -8 104.552 28.2757   5
 -12  -4   8 119.319 28.8931   4
  12   4  -8 98.0585 23.7713   2
 -12   4   8 83.3457 24.9985   7
  12   4  -8 107.107 25.4014   5
 -10  -4   8 24.9384 10.7687   1
  10  -4  -8 54.1524 21.0746   2
 -10  -4   8 35.4609 24.7702   4
  10   4  -8 50.2517 20.9162   5
 -10   4   8 56.1101 24.0062   7
  10   4  -8 29.5060 19.4339   2
  -8  -4   8 105.836 10.3420   1
   8  -4  -8 109.624 21.3594   2
  -8  -4   8 88.1198 29.0554   4
  -8   4   8 82.1978 24.8000   7
   8   4  -8 61.2444 19.9357   2
   8   4  -8 86.5188 21.8413   5
  -6  -4   8 89.0190 13.6513   6
   6  -4  -8 80.2139 19.3463   2
  -6  -4   8 44.5913 24.8215   4
   6   4  -8 70.2332 19.1986   5
  -6   4   8 74.4432 23.7551   7
  -6   4   8 93.9018 16.1682   1
   6   4  -8 79.6712 19.8103   2
  -4  -4   8 273.845 19.4165   6
  -4  -4   8 213.343 35.9149   4
   4  -4  -8 284.441 26.3302   2
  -4   4   8 296.664 32.5114   7
  -4   4   8 237.165 21.6688   1
   4   4  -8 308.162 30.4065   2
   4   4  -8 302.388 27.4102   5
   2  -4  -8 186.677 21.2474   2
   2  -4  -8 203.129 17.9239   4
  -2  -4   8 178.991 17.8185   6
  -2  -4   8 207.472 37.7837   4
   2  -4  -8 226.070 21.6732   1
   2   4  -8 158.367 21.9829   5
   2   4  -8 159.065 23.7986   2
  -2   4   8 174.229 18.2619   1
  -2   4   8 190.127 26.7578   7
   0  -4   8 66.9569 29.5429   4
   0  -4  -8 116.098 21.0308   4
   0  -4  -8 131.073 18.3464   2
   0  -4  -8 113.578 18.3829   1
   0   4  -8 139.187 19.8248   5
   0   4  -8 83.5699 22.2404   2
   0   4  -8 146.000 18.5574   6
   0   4  -8 135.598 11.3584   1
  -2  -4  -8 90.0298 24.6801   6
  -2  -4  -8 64.9790 20.8434   4
   2  -4   8 57.5984 28.3757   4
  -2  -4  -8 76.3096 15.1636   2
  -2  -4  -8 87.8912 18.1185   1
  -2   4  -8 68.2102 15.3715   5
  -2   4  -8 60.4471 12.2292   1
  -2   4  -8 59.5231 16.3897   6
  -4  -4  -8 193.580 27.5295   6
   4  -4   8 143.655 31.8075   4
  -4  -4  -8 212.728 19.7068   2
  -4  -4  -8 217.653 25.5762   1
  -4   4  -8 204.408 19.1272   5
  -4   4  -8 215.954 19.8688   1
  -4   4  -8 207.360 26.1290   6
  -6  -4  -8 230.029 19.8946   2
  -6  -4  -8 248.274 26.6232   1
   6  -4   8 201.852 35.6636   4
  -6  -4  -8 260.148 32.5741   6
  -6   4  -8 197.264 16.8063   5
  -6   4  -8 216.004 27.0948   6
  -8  -4  -8 105.917 27.3706   6
  -8  -4  -8 96.1553 22.0946   1
  -8  -4  -8 107.617 15.5867   2
  -8   4  -8 108.522 23.0020   6
 -10  -4  -8 37.2999 21.1963   1
 -10  -4  -8 63.7595 26.5909   6
 -10   4  -8 59.7104 23.4652   6
 -12  -4  -8 0.71720 23.6349   6
 -12  -4  -8 3.51976 18.3426   1
  12   4   8 -27.712 26.1099   3
 -12   4  -8 -10.293 22.0609   6
 -14  -4  -8 51.0693 28.7881   6
 -14  -4  -8 -7.9560 20.0817   1
 -14   4  -8 4.77675 25.5718   6
  14   4   8 33.2671 25.7079   3
 -16  -4  -8 17.7423 26.7904   6
 -16  -4  -8 -14.474 19.8223   1
 -16   4  -8 -6.3324 23.8329   6
  16   4   8 23.0912 27.5059   3
 -17  -5   8 29.6434 28.3067   4
  17   5  -8 -21.226 22.7707   5
 -17   5   8 -34.003 27.0032   7
  17   5  -8 -1.3207 18.6672   2
 -15  -5   8 -5.5926 22.1364   4
  15   5  -8 4.55216 19.9668   2
 -15   5   8 -12.975 23.2577   7
  15   5  -8 31.2760 24.8109   5
 -13  -5   8 47.7891 28.1264   4
 -13   5   8 39.6945 27.4603   7
  13   5  -8 27.5002 23.7464   5
  13   5  -8 30.7645 19.3926   2
 -11  -5   8 32.0444 25.2100   4
  11   5  -8 -20.473 17.0851   5
 -11   5   8 33.7701 23.1675   7
  11   5  -8 6.32213 18.0061   2
  -9  -5   8 6.29878 11.0139   1
  -9  -5   8 18.9370 25.8451   4
  -9   5   8 -4.2430 22.3948   7
   9   5  -8 -10.153 14.7458   2
   9   5  -8 24.6001 20.1477   5
  -7  -5   8 14.9013 8.94995   1
   7  -5  -8 2.00986 14.4079   2
  -7  -5   8 -16.779 23.8934   4
  -7   5   8 -10.753 20.7892   7
   7   5  -8 27.3315 18.4214   5
   7   5  -8 -23.293 14.9580   2
   5  -5  -8 121.748 20.8508   2
  -5  -5   8 95.1705 30.7867   4
   5   5  -8 113.555 24.4661   2
  -5   5   8 115.878 27.5845   7
   5   5  -8 127.204 23.0515   5
   3  -5  -8 1.38465 14.1275   1
   3  -5  -8 8.09404 12.8724   2
  -3  -5   8 4.16200 9.44697   6
  -3  -5   8 -3.4898 24.9632   4
   3   5  -8 23.1488 17.5623   5
   3   5  -8 47.1158 18.9801   2
   3   5  -8 7.83349 5.81003   1
  -1  -5   8 -18.937 26.1065   4
   1  -5  -8 12.1376 15.4927   1
  -1  -5   8 15.8665 10.3899   6
   1  -5  -8 10.5703 12.4402   2
   1  -5  -8 -28.036 12.6576   4
   1   5  -8 16.7405 19.7025   2
   1   5  -8 -3.2332 7.18080   1
   1   5  -8 1.64404 10.3032   6
   1   5  -8 17.5663 15.2362   5
  -1  -5  -8 -8.7356 15.5492   4
  -1  -5  -8 13.4117 19.4650   6
  -1  -5  -8 -16.810 15.3595   1
  -1  -5  -8 9.18215 12.1228   2
   1  -5   8 -8.5242 28.0729   4
  -1   5  -8 -19.404 8.80871   1
  -1   5  -8 -9.6653 13.0011   5
  -1   5  -8 34.2848 13.0581   6
  -3  -5  -8 6.31195 10.7125   2
   3  -5   8 22.4998 31.0043   4
  -3  -5  -8 -7.3848 16.8648   1
  -3  -5  -8 42.1251 21.3363   6
  -3   5  -8 21.0720 14.1723   5
  -3   5  -8 19.0119 13.9390   1
  -3   5  -8 26.0328 15.3040   6
  -5  -5  -8 60.8774 20.7557   1
  -5  -5  -8 69.2929 24.7772   6
  -5  -5  -8 84.1938 13.3134   2
   5  -5   8 68.1281 29.7033   4
  -5   5  -8 84.1328 15.3128   5
  -5   5  -8 76.2094 19.7011   6
   7  -5   8 24.6430 26.1851   4
  -7  -5  -8 22.3915 20.5487   6
  -7  -5  -8 15.7968 10.1478   2
  -7  -5  -8 -14.757 16.7680   1
  -7   5  -8 15.3520 18.6317   6
  -9  -5  -8 3.26065 21.0748   6
  -9  -5  -8 32.9643 21.4482   1
  -9   5  -8 -15.341 18.3511   6
 -11  -5  -8 28.0516 22.0468   6
 -11  -5  -8 6.83758 19.9284   1
  11   5   8 -16.252 27.3931   3
 -11   5  -8 -21.193 21.7548   6
 -13  -5  -8 24.6512 25.1515   6
 -13  -5  -8 -13.406 21.6121   1
  13   5   8 -8.3462 24.9847   3
 -13   5  -8 2.26564 21.7913   6
 -15  -5  -8 -26.167 24.4020   6
 -15  -5  -8 -10.534 23.1623   1
 -15   5  -8 -16.437 23.5226   6
  15   5   8 7.99076 24.2942   3
 -16  -6   8 -23.662 23.8197   4
  16   6  -8 -47.343 20.4651   5
  16   6  -8 11.7125 18.8590   2
 -14  -6   8 8.94530 25.0451   4
  14   6  -8 32.8668 23.1755   5
  14   6  -8 -7.3105 17.0913   2
 -12  -6   8 -20.325 24.7932   4
  12   6  -8 -19.419 16.8297   5
  12   6  -8 5.63145 17.7977   2
 -10  -6   8 -39.459 22.9174   4
  10   6  -8 -3.7906 17.0339   5
  10   6  -8 -3.0614 14.5198   2
  -8  -6   8 99.8319 24.4773   1
  -8  -6   8 51.0798 29.0515   4
   8   6  -8 56.7552 21.8073   5
   8   6  -8 24.4909 19.4034   2
  -6  -6   8 3.04588 28.2914   4
  -6  -6   8 10.6132 10.0941   1
   6   6  -8 15.0179 18.4580   5
   6   6  -8 -16.945 17.0776   2
  -4  -6   8 -11.684 25.5896   4
   4  -6  -8 24.0231 16.9321   1
   4  -6  -8 -2.2622 14.3492   2
   4   6  -8 -9.7026 17.0425   5
   4   6  -8 1.57466 17.8529   2
  -2  -6   8 -2.7408 29.7048   4
   2  -6  -8 -0.8166 5.15960   4
   2  -6  -8 -2.2415 12.6323   2
   2  -6  -8 11.2091 16.7766   1
   2   6  -8 -3.2268 16.0155   5
   2   6  -8 1.53880 18.4081   2
   0  -6  -8 -2.8637 17.7280   1
   0  -6  -8 -0.8453 11.5858   2
   0  -6   8 52.3964 31.8738   4
   0   6  -8 -16.203 14.6963   5
   0   6  -8 3.13010 9.58135   6
  -2  -6  -8 45.8941 22.3323   6
   2  -6   8 40.5872 31.0871   4
  -2  -6  -8 31.9254 19.5016   1
  -2  -6  -8 40.3321 11.9354   2
  -2   6  -8 32.5689 12.9155   6
  -2   6  -8 55.5849 17.6482   5
  -4  -6  -8 10.6093 19.3050   6
  -4  -6  -8 -2.8732 8.81657   2
  -4  -6  -8 -14.443 17.6028   1
   4  -6   8 2.07299 28.2998   4
  -4   6  -8 11.5055 14.6889   6
  -4   6  -8 14.2942 13.4266   5
  -6  -6  -8 20.4324 18.8979   1
   6  -6   8 17.8747 25.9089   4
  -6  -6  -8 24.0617 20.8033   6
  -6   6  -8 4.59205 12.3875   5
  -6   6  -8 -20.663 15.1387   6
  -8  -6  -8 -2.4529 19.6929   1
  -8  -6  -8 -11.105 20.9112   6
   8  -6   8 6.89730 25.9948   4
  -8   6  -8 -4.6376 18.1102   6
 -10  -6  -8 -19.040 20.2363   1
 -10  -6  -8 -3.7556 23.1024   6
 -10   6  -8 -2.0077 21.4634   6
  10   6   8 -33.950 28.8411   3
 -12  -6  -8 4.22143 22.6926   1
 -12  -6  -8 5.17750 23.2159   6
 -12   6  -8 -11.151 21.4272   6
  12   6   8 8.01449 26.0191   3
 -14  -6  -8 10.5550 26.7498   6
 -14  -6  -8 6.10997 23.9196   1
 -14   6  -8 -2.3302 23.5484   6
  14   6   8 34.3050 29.2193   3
 -15  -7   8 -17.223 28.3949   4
  15   7  -8 47.4852 22.0692   2
  15   7  -8 -2.0293 22.8845   5
 -13  -7   8 -19.163 29.2136   4
  13   7  -8 43.1107 24.3500   5
  13   7  -8 15.6482 18.9904   2
 -11  -7   8 23.9785 28.0707   4
  11   7  -8 21.2329 17.9607   2
  11   7  -8 -9.1077 18.8291   5
  -9  -7   8 90.1558 34.1781   4
   9   7  -8 68.5748 20.9948   2
   9   7  -8 57.8364 24.8995   5
  -7  -7   8 4.70474 29.1800   4
   7   7  -8 41.9342 21.4603   5
   7   7  -8 37.1516 20.7651   2
  -5  -7   8 7.84514 31.7324   4
   5   7  -8 21.1208 20.1219   5
   5   7  -8 12.8682 17.3833   2
  -3  -7   8 -25.658 30.6823   4
   3  -7  -8 2.02001 18.6423   1
   3   7  -8 18.4823 20.1653   2
   3   7  -8 2.07844 16.5884   5
   1  -7  -8 30.4506 20.3960   1
  -1  -7   8 81.2098 37.1679   4
   1   7  -8 -1.5256 17.2001   5
   1   7  -8 12.6498 20.2493   2
  -1  -7  -8 134.351 26.4225   1
   1  -7   8 91.7224 36.8242   4
  -1  -7  -8 114.147 16.9368   4
  -1   7  -8 149.834 15.6023   6
  -1   7  -8 81.6972 21.1015   5
  -3  -7  -8 68.7113 23.1733   1
   3  -7   8 102.099 34.9050   4
  -3   7  -8 71.3681 15.7420   6
  -3   7  -8 78.3859 19.2223   5
  -5  -7  -8 7.95026 22.0722   1
   5  -7   8 25.4881 30.1864   4
  -5  -7  -8 29.4258 23.2020   6
  -5   7  -8 15.2888 14.9798   6
  -5   7  -8 16.8412 14.8855   5
  -7  -7  -8 -21.632 20.1005   1
   7  -7   8 50.3229 29.1914   4
  -7  -7  -8 5.50978 22.1815   6
  -7   7  -8 -15.562 16.7887   6
  -9  -7  -8 5.82247 21.3026   1
  -9  -7  -8 -3.8313 24.4358   6
   9   7   8 25.5964 30.3524   3
  -9   7  -8 -7.1926 19.9286   6
 -11  -7  -8 14.5653 24.1844   6
 -11  -7  -8 -8.7150 23.8586   1
  11   7   8 14.8385 26.3299   3
 -11   7  -8 -7.7079 21.1595   6
 -13  -7  -8 21.0219 26.5550   1
 -13  -7  -8 22.1543 25.5382   6
  13   7   8 15.0861 26.6404   3
 -13   7  -8 -3.2614 23.8307   6
 -14  -8   8 18.0029 33.7582   4
  14   8  -8 33.3766 20.5563   2
  14   8  -8 36.6267 24.9441   5
 -12  -8   8 25.9372 34.2803   4
  12   8  -8 41.3694 20.3425   2
  12   8  -8 37.9538 25.2446   5
 -10  -8   8 117.089 38.6423   4
  10   8  -8 82.9168 21.7638   2
  10   8  -8 157.054 33.0508   5
  -8  -8   8 55.3168 34.7846   4
   8   8  -8 106.609 28.5865   5
   8   8  -8 75.1197 21.8079   2
  -6  -8   8 58.4406 34.3962   4
   6   8  -8 86.6749 26.7542   5
   6   8  -8 131.536 24.8304   2
  -4  -8   8 18.6424 32.9686   4
   4  -8  -8 71.0831 22.2330   1
   4   8  -8 13.6830 18.9504   2
   4   8  -8 35.2103 22.6376   5
  -2  -8   8 68.4115 37.9788   4
   2  -8  -8 69.5213 24.0712   1
   2   8  -8 89.9569 24.9927   5
   2   8  -8 64.4955 22.4786   2
   0  -8  -8 159.197 29.4329   1
   0  -8   8 103.017 37.5422   4
   0   8  -8 144.809 25.0649   5
   2  -8   8 75.8375 35.8944   4
  -2  -8  -8 62.9757 24.8650   1
  -2   8  -8 62.5097 20.9748   5
   4  -8   8 74.7750 34.1706   4
  -4  -8  -8 49.8388 25.4697   1
  -4  -8  -8 53.5222 16.8217   4
  -4   8  -8 69.6463 19.5310   5
  -4   8  -8 71.4008 21.3925   6
  -6  -8  -8 -15.945 22.8942   1
   6  -8   8 13.4708 30.2823   4
  -6  -8  -8 36.5541 19.6963   4
  -6  -8  -8 42.1831 24.0946   6
  -6   8  -8 31.7081 17.8194   5
  -6   8  -8 26.1428 16.9982   6
   6   8   8 -18.293 31.8566   3
   8  -8   8 55.9967 33.5272   4
  -8  -8  -8 58.2053 26.6465   1
  -8  -8  -8 58.1246 25.0594   6
   8   8   8 27.0559 32.1042   3
  -8   8  -8 31.8781 20.4450   6
 -10  -8  -8 16.6620 23.8844   1
 -10  -8  -8 45.4249 27.5113   6
 -10   8  -8 23.7914 23.4164   6
  10   8   8 58.4276 29.3991   3
 -12  -8  -8 32.4774 26.4660   1
 -12  -8  -8 96.8148 30.1394   6
  12   8   8 26.0338 29.5940   3
 -12   8  -8 64.8612 26.1241   6
 -13  -9   8 -19.147 34.3741   4
  13   9  -8 0.05582 19.5238   2
  13   9  -8 75.4430 28.9631   5
 -11  -9   8 107.753 42.8093   4
  11   9  -8 120.500 32.6255   5
  11   9  -8 138.881 26.7355   2
  -9  -9   8 95.7714 43.0518   4
   9   9  -8 105.159 24.7426   2
   9   9  -8 140.505 33.1980   5
  -7  -9   8 104.688 41.4083   4
   7   9  -8 129.991 26.6424   2
   7   9  -8 129.202 28.4642   5
  -5  -9   8 112.433 43.1718   4
   5   9  -8 161.634 29.6016   5
   5   9  -8 171.671 28.2871   2
   3  -9  -8 101.752 27.1601   1
  -3  -9   8 32.5863 40.4104   4
   3   9  -8 85.9092 24.7013   2
   3   9  -8 132.817 29.5077   5
  -1  -9   8 88.7227 39.2932   4
   1  -9  -8 105.980 27.5760   1
   1   9  -8 149.991 29.6347   2
   1   9  -8 172.576 29.8718   5
   1  -9   8 58.1767 41.0149   4
  -1  -9  -8 58.4893 25.5959   1
  -1   9  -8 109.212 25.7783   5
   3  -9   8 64.4608 37.3706   4
  -3  -9  -8 65.1944 27.9563   1
  -3   9  -8 123.829 24.6330   5
   5  -9   8 80.2738 34.7944   4
  -5  -9  -8 51.0308 28.5211   1
   5   9   8 64.5354 36.7713   3
  -5   9  -8 89.0263 22.5173   5
  -7  -9  -8 78.3076 27.1776   6
  -7  -9  -8 52.4662 22.9991   4
  -7  -9  -8 13.8109 26.1506   1
   7  -9   8 109.361 39.1078   4
   7   9   8 51.0776 29.7657   3
  -9  -9  -8 38.1716 28.7178   1
   9  -9   8 107.534 36.0249   4
  -9  -9  -8 103.363 27.7981   4
  -9  -9  -8 88.1772 27.5683   6
   9   9   8 28.4317 29.5385   3
 -10 -10   8 61.3609 39.1769   4
  10  10  -8 75.9295 23.2588   2
  10  10  -8 40.0394 28.7749   5
  -8 -10   8 62.1794 40.9949   4
   8  10  -8 113.580 32.3637   5
   8  10  -8 135.628 27.1947   2
  -6 -10   8 156.576 44.9494   4
   6  10  -8 178.347 35.3577   5
   6  10  -8 187.361 29.1997   2
   4 -10  -8 182.638 32.0958   1
  -4 -10   8 79.4707 41.0356   4
   4  10  -8 245.387 37.0536   5
   4  10  -8 181.661 30.3827   2
  -2 -10   8 72.6051 40.8664   4
   2 -10  -8 116.537 29.2455   1
   2  10  -8 139.582 29.8430   5
   2  10  -8 42.9078 24.3160   2
   0 -10  -8 92.4571 28.9420   1
   0 -10   8 35.1268 42.0801   4
   0  10  -8 60.4657 24.2420   5
  -2 -10  -8 88.1096 29.3514   1
   2 -10   8 123.206 47.2372   4
  -2  10  -8 145.092 28.2462   5
   2  10   8 24.8101 33.4943   3
  -4 -10  -8 68.7841 29.7222   1
   4 -10   8 94.2474 44.2038   4
  -4  10  -8 109.364 25.1508   5
   4  10   8 112.099 37.1723   3
   6 -10   8 158.541 41.2580   4
  -6 -10  -8 103.705 33.4449   1
   6  10   8 148.550 37.3250   3
  -8 -10  -8 2.80253 30.0906   1
   8 -10   8 133.784 39.9753   4
   8  10   8 55.1905 30.3307   3
  -7 -11   8 16.3439 43.4451   4
   7  11  -8 101.325 26.3379   2
   7  11  -8 81.1358 29.3397   5
  -5 -11   8 98.2177 44.5964   4
   5  11  -8 107.092 27.0880   2
   5  11  -8 188.469 34.2555   5
  -3 -11   8 103.413 48.1994   4
   3 -11  -8 199.064 35.4490   1
   3  11  -8 182.795 30.9914   2
   3  11  -8 215.768 36.8913   5
   1 -11  -8 115.257 30.7025   1
  -1 -11   8 51.0839 47.2096   4
  -1  11   8 -47.136 30.8300   3
   1  11  -8 93.4100 29.9428   5
   1  11  -8 65.4050 28.6483   2
   1 -11   8 87.6437 49.7662   4
  -1 -11  -8 116.806 33.8955   1
  -1  11  -8 114.066 29.2118   5
   1  11   8 105.863 36.7846   3
  -3 -11  -8 102.346 33.1062   1
   3 -11   8 72.6338 45.8779   4
   3  11   8 69.7690 31.1698   3
  -3  11  -8 148.762 29.7475   5
   5 -11   8 127.932 43.5213   4
  -5 -11  -8 67.9534 34.4998   1
   5  11   8 64.8876 30.6847   3
 -18   0   9 17.3954 23.7140   7
 -16   0   9 6.13452 22.8945   7
  16   0  -9 6.80844 20.8984   2
  14   0  -9 -7.4602 19.2222   2
 -14   0   9 6.20873 21.8874   7
 -12   0   9 -31.389 16.9887   4
  12   0  -9 14.4081 17.3536   2
 -12   0   9 -1.8634 17.2704   7
 -10   0   9 -45.422 16.0987   4
  10   0  -9 25.0316 20.8233   2
 -10   0   9 -8.4834 17.0929   7
   8   0  -9 -45.454 14.9315   2
   8   0  -9 17.6511 20.1948   4
  -8   0   9 -2.5990 19.0809   4
  -8   0   9 -7.2771 16.8377   7
   6   0  -9 -3.1559 15.4215   2
   6   0  -9 19.4156 13.6087   4
  -6   0   9 5.70664 19.5523   4
  -6   0   9 -7.5023 16.7612   7
   4   0  -9 10.1170 16.9109   2
  -4   0   9 23.7401 19.8614   4
  -4   0   9 -20.513 14.8097   7
   2   0  -9 -11.794 14.4522   2
  -2   0   9 13.7633 15.5993   7
  -2   0   9 -1.9015 16.9243   4
   0   0  -9 23.6860 14.8810   2
   0   0  -9 -9.7557 4.51619   1
   0   0   9 5.17870 16.9562   4
   0   0   9 2.80528 15.3507   7
   0   0  -9 23.9995 18.4349   6
  -2   0  -9 0.26828 17.0616   6
  -2   0  -9 6.67167 8.06863   1
   2   0   9 2.33196 13.3803   7
   2   0   9 1.21712 9.59114   5
  -2   0  -9 -24.980 15.1110   2
  -4   0  -9 8.28842 15.5573   2
   4   0   9 9.57357 8.39054   5
   4   0   9 6.86629 12.7840   7
  -4   0  -9 -8.4106 8.67455   1
  -4   0  -9 3.27307 19.5196   6
  -6   0  -9 6.95546 11.0744   1
  -6   0  -9 -4.3520 18.8151   6
   6   0   9 -14.921 9.66329   7
  -8   0  -9 12.4785 22.0214   6
  -8   0  -9 -13.924 13.2686   1
 -10   0  -9 7.46069 15.4289   1
 -10   0  -9 12.1605 21.1743   6
 -12   0  -9 -4.4126 16.5100   1
 -12   0  -9 -10.216 23.9723   6
  14   0   9 -26.140 28.6142   3
 -14   0  -9 -3.1261 18.7241   1
 -14   0  -9 -16.422 23.3832   6
 -16   0  -9 9.70065 21.9905   1
  16   0   9 -15.242 22.0809   3
 -16   0  -9 -1.2099 26.6544   6
 -19  -1   9 -33.450 21.6061   7
 -19  -1   9 23.6353 15.1134   6
 -19   1   9 8.17961 23.9291   7
 -17  -1   9 8.13399 21.9228   7
 -17   1   9 8.13819 23.2678   7
  17   1  -9 -8.5532 21.3785   2
 -15  -1   9 -40.373 17.4039   4
 -15  -1   9 -37.111 18.2161   7
  15  -1  -9 2.92876 18.9443   2
  15   1  -9 5.47230 19.9436   2
 -15   1   9 -38.522 18.8579   7
 -13  -1   9 17.0119 20.9575   7
  13  -1  -9 45.7068 21.3867   2
 -13  -1   9 17.5763 20.8995   4
 -13   1   9 -5.3340 19.4247   7
  13   1  -9 36.9581 21.4194   2
 -11  -1   9 -14.120 18.6368   4
  11  -1  -9 17.8533 19.6747   2
 -11  -1   9 5.05788 19.4202   7
  11   1  -9 9.36133 18.2730   2
 -11   1   9 -2.6023 19.5471   7
 -11   1   9 -23.462 15.7017   4
   9  -1  -9 84.9030 23.3459   2
  -9  -1   9 99.3866 24.9867   7
  -9  -1   9 68.5930 23.6860   4
  -9   1   9 51.7588 20.8928   7
   9   1  -9 87.8182 22.6093   2
  -9   1   9 94.6205 20.6567   4
   7  -1  -9 85.8465 20.7640   2
   7  -1  -9 68.1129 13.5889   4
  -7  -1   9 70.2830 25.0482   4
  -7  -1   9 65.4410 20.1732   7
  -7   1   9 61.4168 18.7767   4
  -7   1   9 69.3907 20.6604   7
   7   1  -9 50.6418 18.1076   2
   5  -1  -9 7.21141 15.0221   2
  -5  -1   9 31.7589 22.8824   4
   5  -1  -9 15.3966 11.8287   4
  -5  -1   9 16.0306 18.4750   7
  -5   1   9 27.0249 17.3576   7
  -5   1   9 25.4670 15.3149   4
   5   1  -9 8.76450 15.3456   2
   3  -1  -9 2.53183 13.5967   4
  -3  -1   9 19.6307 22.0808   4
  -3  -1   9 14.8901 17.3932   7
   3  -1  -9 16.0999 16.3475   2
  -3   1   9 28.2545 17.6329   7
  -3   1   9 35.9145 16.8822   4
   3   1  -9 47.0216 17.3738   2
  -1  -1   9 -4.8377 18.6851   4
   1  -1  -9 -3.3757 13.1908   2
   1  -1  -9 39.5510 18.2486   6
  -1  -1   9 -18.140 13.7368   7
   1  -1  -9 11.8962 6.01259   1
   1   1  -9 20.1067 16.0790   2
   1   1  -9 -7.9911 16.3130   6
  -1   1   9 4.35903 15.6301   7
  -1  -1  -9 388.897 36.0190   6
   1  -1   9 258.670 26.0104   7
   1  -1   9 273.908 34.1518   4
  -1  -1  -9 354.086 30.7747   2
  -1  -1  -9 297.314 18.2794   1
  -1   1  -9 284.232 12.8969   1
  -1   1  -9 326.057 31.1524   2
  -1   1  -9 300.542 29.9766   6
   1   1   9 297.185 28.2552   7
  -3  -1  -9 17.6960 19.5943   6
  -3  -1  -9 58.8197 12.3735   1
   3  -1   9 44.9236 14.6300   7
  -3  -1  -9 35.0618 17.4945   2
   3  -1   9 56.0538 11.5328   5
   3   1   9 56.7325 12.2460   5
   3   1   9 17.9863 15.1040   7
  -3   1  -9 62.6519 21.6663   6
  -3   1  -9 61.4628 10.6911   1
  -3   1  -9 19.6818 18.6407   2
  -5  -1  -9 90.8863 19.4160   2
   5  -1   9 112.236 16.8478   7
  -5  -1  -9 101.067 23.9811   6
  -5  -1  -9 88.2679 15.6147   1
   5   1   9 75.3414 15.6893   7
  -5   1  -9 60.1017 21.8995   6
  -5   1  -9 85.5794 13.8522   1
   7  -1   9 -11.096 8.60171   7
  -7  -1  -9 -9.7896 20.6754   6
  -7  -1  -9 3.06208 13.8197   1
  -7  -1  -9 17.0764 17.4782   2
  -7   1  -9 -14.207 19.5480   6
  -7   1  -9 28.0853 13.5127   1
  -9  -1  -9 -2.5822 14.7910   1
  -9  -1  -9 -40.317 18.4988   6
  -9   1  -9 -0.2938 14.2363   1
  -9   1  -9 22.0537 22.4017   6
 -11  -1  -9 3.08406 24.0003   6
 -11  -1  -9 36.4403 18.8374   1
 -11   1  -9 27.9781 17.7059   1
 -11   1  -9 29.7970 22.9065   6
 -13  -1  -9 1.25247 19.3203   1
 -13  -1  -9 -13.885 24.2582   6
 -13   1  -9 3.11593 24.3875   6
 -13   1  -9 11.8537 18.0820   1
  13   1   9 -68.822 25.1799   3
 -15  -1  -9 12.9851 24.7026   6
  15  -1   9 -20.667 24.0366   3
 -15  -1  -9 6.54390 21.3029   1
 -15   1  -9 25.0342 21.6019   1
  15   1   9 53.5938 27.6837   3
 -15   1  -9 30.7243 25.3949   6
 -18  -2   9 34.3979 25.0909   7
  18   2  -9 68.2443 26.3171   2
 -18   2   9 41.8757 26.2959   7
 -16  -2   9 57.8913 24.5764   4
 -16  -2   9 26.3009 23.4872   7
  16   2  -9 56.4418 24.2387   2
 -16   2   9 66.2564 27.2405   7
 -14  -2   9 109.019 27.1911   7
  14  -2  -9 8.34766 21.6853   2
 -14  -2   9 31.3153 22.8833   4
 -14   2   9 27.7228 24.8989   7
  14   2  -9 55.6391 22.1431   2
 -12  -2   9 71.4863 25.3456   7
 -12  -2   9 20.5567 21.1478   4
  12  -2  -9 68.9959 21.6317   2
 -12   2   9 78.2475 25.3254   7
  12   2  -9 42.9044 19.6438   2
 -10  -2   9 121.824 26.9194   7
  10  -2  -9 109.691 23.0886   2
 -10  -2   9 100.447 27.4832   4
  10   2  -9 134.045 25.7421   2
 -10   2   9 123.222 25.4028   7
  -8  -2   9 216.355 30.0862   7
  -8  -2   9 194.225 32.1329   4
   8  -2  -9 219.635 29.1772   2
  -8   2   9 278.365 20.9764   4
   8   2  -9 162.406 24.7856   2
  -8   2   9 215.262 31.3552   7
   6  -2  -9 100.065 21.6940   2
   6  -2  -9 107.785 15.8088   4
  -6  -2   9 58.2419 25.4873   4
  -6   2   9 67.9068 20.8727   7
   6   2  -9 119.847 24.1147   2
   4  -2  -9 191.469 19.5986   4
  -4  -2   9 148.320 30.9809   4
   4  -2  -9 208.433 25.3524   2
   4   2  -9 241.268 29.9409   2
  -4   2   9 206.059 12.7448   1
  -4   2   9 225.817 30.1997   7
   2  -2  -9 23.7974 15.8232   4
  -2  -2   9 97.4080 28.7724   4
   2  -2  -9 62.7455 17.4031   2
   2  -2  -9 70.3092 9.89266   1
  -2   2   9 46.4366 18.3642   7
  -2   2   9 48.7805 8.26822   1
   2   2  -9 31.6375 19.3717   2
   0  -2   9 129.555 30.5849   4
   0  -2  -9 150.787 15.6901   1
   0  -2   9 162.294 22.5948   7
   0  -2  -9 116.093 23.3723   6
   0  -2  -9 171.843 22.2988   2
   0   2  -9 157.924 22.2234   6
   0   2   9 139.948 23.0076   7
   0   2  -9 146.830 24.8850   2
  -2  -2  -9 391.555 24.5567   1
  -2  -2  -9 408.091 34.2621   6
   2  -2   9 409.228 24.0268   5
   2  -2   9 433.853 45.6130   4
  -2  -2  -9 368.307 27.8391   2
   2  -2   9 355.618 29.5107   7
   2   2   9 374.191 30.4283   7
  -2   2  -9 359.177 31.1986   6
  -2   2  -9 419.618 18.2986   1
  -2   2  -9 394.106 17.5914   1
  -2   2  -9 383.622 31.8335   2
  -4  -2  -9 170.056 20.0173   1
  -4  -2  -9 181.576 22.3386   2
   4  -2   9 164.520 20.0733   7
  -4  -2  -9 160.039 27.5471   6
   4   2   9 146.114 21.9548   7
  -4   2  -9 181.786 16.1383   1
  -4   2  -9 172.904 25.3402   6
  -6  -2  -9 171.850 22.4320   2
  -6  -2  -9 179.285 22.3834   1
   6  -2   9 135.248 16.4546   7
  -6  -2  -9 165.832 29.3660   6
  -6   2  -9 120.480 24.5794   6
  -6   2  -9 143.578 17.8475   1
  -8  -2  -9 46.5362 16.6076   2
  -8  -2  -9 22.5042 20.7758   6
  -8  -2  -9 32.5380 16.9395   1
  -8   2  -9 54.6436 24.4203   6
  -8   2  -9 44.6767 15.1024   1
 -10  -2  -9 66.5086 18.7082   2
 -10  -2  -9 68.0199 21.2288   1
 -10  -2  -9 64.2357 27.1141   6
 -10   2  -9 64.3627 18.9285   1
 -10   2  -9 59.0553 25.7255   6
 -12  -2  -9 60.7678 22.6675   1
 -12  -2  -9 35.4738 26.5762   6
 -12   2  -9 54.1197 19.7703   1
 -12   2  -9 8.02278 22.8419   6
 -14  -2  -9 -12.427 18.1554   1
 -14  -2  -9 48.4626 28.2829   6
  14  -2   9 -55.173 26.3534   3
  14   2   9 21.2396 31.3164   3
 -14   2  -9 60.5659 28.5387   6
 -14   2  -9 17.3962 19.3755   1
 -17  -3   9 30.3049 24.6160   4
 -17  -3   9 64.2760 27.6834   7
  17   3  -9 49.2867 25.1895   2
 -17   3   9 67.8972 30.5136   7
 -15  -3   9 146.076 29.4738   7
 -15  -3   9 111.920 30.0827   4
 -15   3   9 125.701 30.6091   7
  15   3  -9 150.095 29.8935   2
  13  -3  -9 74.0915 23.7546   2
 -13  -3   9 109.748 25.6876   7
 -13  -3   9 106.661 28.7835   4
  13   3  -9 53.3711 24.2805   2
 -13   3   9 68.8316 25.8739   7
  13   3  -9 85.2951 24.9638   5
 -11  -3   9 205.194 34.6692   4
  11  -3  -9 189.243 27.4877   2
 -11   3   9 206.066 35.6658   7
  11   3  -9 254.432 34.8897   5
  11   3  -9 216.984 29.1551   2
  -9  -3   9 292.108 38.0423   4
   9  -3  -9 269.359 31.2117   2
   9   3  -9 261.778 32.4841   5
  -9   3   9 267.256 35.3975   7
   9   3  -9 257.948 31.7392   2
  -7  -3   9 376.938 42.0066   4
   7  -3  -9 425.592 31.9318   2
   7   3  -9 421.520 36.0993   5
  -7   3   9 444.829 40.7297   7
   7   3  -9 420.537 38.8521   2
   5  -3  -9 409.630 29.8221   2
  -5  -3   9 377.561 42.9256   4
   5   3  -9 290.348 29.9760   2
   5   3  -9 408.407 33.6535   5
  -5   3   9 321.293 35.7408   7
   3  -3  -9 107.619 15.2965   4
  -3  -3   9 137.317 33.7040   4
   3  -3  -9 96.1500 20.1781   2
  -3   3   9 115.140 13.3648   1
  -3   3   9 58.7549 21.2637   7
   3   3  -9 115.544 21.8386   2
   3   3  -9 91.7874 20.0907   5
   1  -3  -9 406.495 29.0321   2
   1  -3  -9 346.206 30.8723   4
  -1  -3   9 452.889 47.0759   4
   1  -3  -9 395.195 24.8313   1
   1   3  -9 393.324 29.1548   6
  -1   3   9 395.272 35.0830   7
   1   3  -9 377.150 32.3606   2
   1   3  -9 449.618 29.8653   5
  -1   3   9 418.834 22.4242   1
  -1  -3  -9 275.262 31.9364   6
   1  -3   9 287.094 39.7760   4
  -1  -3  -9 314.321 26.4386   2
  -1  -3  -9 288.646 23.6092   1
   1   3   9 323.003 21.2743   1
  -1   3  -9 270.059 13.9683   1
  -1   3  -9 283.347 24.7114   5
  -1   3  -9 231.275 29.2331   2
   1   3   9 271.405 30.4094   7
  -1   3  -9 300.707 27.6397   6
  -1   3  -9 298.529 12.8052   1
  -3  -3  -9 319.712 34.9304   6
  -3  -3  -9 321.953 26.4934   1
  -3  -3  -9 313.068 26.0390   2
   3  -3   9 325.308 42.3641   4
  -3   3  -9 345.476 18.7180   1
  -3   3  -9 317.304 29.8314   6
   5  -3   9 194.899 20.8749   7
  -5  -3  -9 162.056 22.0254   1
  -5  -3  -9 149.764 27.6551   6
  -5  -3  -9 160.843 20.5626   2
  -5   3  -9 146.682 25.4744   6
  -5   3  -9 165.441 17.0758   1
  -7  -3  -9 143.119 22.7789   1
   7  -3   9 163.647 17.2149   7
  -7  -3  -9 142.461 28.3883   6
  -7  -3  -9 136.249 19.3431   2
  -7   3  -9 139.631 18.3135   1
  -7   3  -9 163.964 26.7419   6
  -9  -3  -9 121.617 24.1085   1
  -9  -3  -9 219.625 23.3814   2
  -9  -3  -9 200.789 33.0947   6
  -9   3  -9 181.100 24.2624   1
  -9   3  -9 203.922 32.1085   6
 -11  -3  -9 66.7947 22.0643   1
 -11  -3  -9 128.083 30.4577   6
 -11   3  -9 89.7621 28.5718   6
 -11   3  -9 127.180 22.6450   1
 -13  -3  -9 147.503 33.9345   6
 -13  -3  -9 100.309 27.0788   1
 -13   3  -9 100.742 29.2159   6
 -13   3  -9 129.607 26.2175   1
  13   3   9 41.3619 33.6043   3
 -15  -3  -9 36.0389 24.4117   1
 -15  -3  -9 -16.570 26.8875   6
 -15   3  -9 17.2758 21.0043   1
 -15   3  -9 32.5223 28.0910   6
  15   3   9 37.3696 30.7043   3
 -18  -4   9 55.6180 29.3859   4
 -18  -4   9 150.787 33.6805   7
  18   4  -9 121.385 28.2644   2
 -18   4   9 124.244 36.2232   7
 -16  -4   9 142.816 30.9126   7
 -16  -4   9 119.302 32.2266   4
 -16   4   9 115.419 33.5072   7
  16   4  -9 118.858 30.7197   5
  16   4  -9 134.267 28.0315   2
 -14  -4   9 169.050 34.6393   4
  14   4  -9 195.724 33.2923   5
  14   4  -9 207.950 31.9528   2
 -14   4   9 159.140 32.1397   7
 -12  -4   9 159.730 33.7552   4
 -12   4   9 180.265 33.3980   7
  12   4  -9 159.502 26.8961   2
  12   4  -9 164.038 30.0498   5
  10  -4  -9 336.622 36.9220   2
 -10  -4   9 336.138 42.0601   4
  10   4  -9 332.526 36.5731   5
  10   4  -9 329.432 35.1108   2
 -10   4   9 367.053 42.8138   7
   8  -4  -9 410.559 32.7770   2
  -8  -4   9 409.162 46.9841   4
  -8   4   9 387.613 40.3820   7
   8   4  -9 398.980 38.6516   2
   8   4  -9 417.287 37.9182   5
  -6  -4   9 668.632 55.7108   4
   6  -4  -9 691.587 39.8778   2
   6   4  -9 727.388 43.6188   5
   6   4  -9 661.833 40.5554   2
  -6   4   9 633.544 47.4412   7
   4  -4  -9 235.169 26.0859   2
  -4  -4   9 187.128 36.6939   4
   4   4  -9 194.672 27.3951   2
  -4   4   9 168.580 27.5360   7
   4   4  -9 193.516 26.4176   5
  -2  -4   9 314.674 41.3780   4
   2  -4  -9 357.133 25.9132   1
   2  -4  -9 360.008 28.1529   2
   2   4  -9 372.037 33.4976   5
  -2   4   9 362.640 36.6206   7
   2   4  -9 311.565 32.1662   2
   0  -4   9 400.944 48.2720   4
   0  -4  -9 399.723 27.4280   2
   0  -4  -9 334.036 26.9775   1
   0   4  -9 352.503 33.7346   2
   0   4  -9 347.722 13.0153   1
   0   4  -9 352.898 27.1766   6
   0   4  -9 348.318 27.8805   5
  -2  -4  -9 411.347 39.2871   6
   2  -4   9 354.197 44.0924   4
  -2  -4  -9 306.943 27.1554   1
  -2  -4  -9 375.745 26.1185   2
  -2   4  -9 346.355 29.8983   6
  -2   4  -9 329.221 26.0145   5
  -4  -4  -9 390.698 32.1247   1
   4  -4   9 332.221 45.4641   4
  -4  -4  -9 380.063 40.1598   6
  -4  -4  -9 389.080 26.0833   2
  -4   4  -9 377.452 32.2968   6
  -4   4  -9 418.571 25.2106   5
  -6  -4  -9 140.090 18.5909   2
   6  -4   9 123.842 31.7860   4
  -6  -4  -9 179.444 31.2242   6
  -6  -4  -9 136.935 23.3950   1
  -6   4  -9 154.488 26.4947   6
  -8  -4  -9 286.706 37.1073   6
  -8  -4  -9 245.926 30.5354   1
  -8  -4  -9 282.172 27.6652   2
  -8   4  -9 187.642 29.4459   6
 -10  -4  -9 162.097 26.7734   1
 -10  -4  -9 204.397 33.0950   6
 -10   4  -9 173.047 30.8803   6
 -12  -4  -9 88.2969 27.0405   1
 -12  -4  -9 187.076 34.7597   6
 -12   4  -9 83.0851 27.2538   6
  12   4   9 148.560 38.6393   3
 -14  -4  -9 82.4699 30.5698   6
 -14  -4  -9 100.378 27.6641   1
 -14   4  -9 40.0898 28.7243   6
 -14   4  -9 95.5112 23.9934   1
  14   4   9 58.2302 33.4208   3
 -17  -5   9 118.762 36.6573   4
 -17   5   9 133.891 38.9462   7
  17   5  -9 180.648 35.5856   5
  17   5  -9 146.139 30.5013   2
 -15  -5   9 88.9130 33.0616   4
  15   5  -9 111.395 31.1736   5
  15   5  -9 127.733 27.6164   2
 -15   5   9 56.6925 28.9681   7
 -13  -5   9 222.063 40.2091   4
 -13   5   9 208.824 39.5446   7
  13   5  -9 237.123 35.0063   5
  13   5  -9 170.257 28.8788   2
 -11  -5   9 202.757 41.0156   4
  11   5  -9 290.374 33.5656   2
 -11   5   9 203.878 34.5225   7
  11   5  -9 313.135 39.0197   5
   9  -5  -9 408.468 37.1071   2
  -9  -5   9 387.031 47.6802   4
   9   5  -9 349.806 37.7532   5
   9   5  -9 322.832 33.6283   2
  -9   5   9 377.230 42.6143   7
  -7  -5   9 512.880 53.8071   4
   7  -5  -9 476.312 35.9752   2
   7   5  -9 557.951 40.4147   2
   7   5  -9 571.566 41.6240   5
  -7   5   9 518.946 47.6919   7
  -5  -5   9 324.724 46.0390   4
   5  -5  -9 242.576 27.3162   2
   5   5  -9 356.571 35.8451   2
   5   5  -9 342.480 34.9880   5
  -5   5   9 261.751 34.7266   7
   3  -5  -9 338.142 28.0902   2
   3  -5  -9 283.993 25.9285   1
  -3  -5   9 278.681 42.6839   4
   3   5  -9 348.196 37.0856   2
   3   5  -9 301.945 31.0656   5
  -1  -5   9 331.145 48.7295   4
   1  -5  -9 304.585 27.7841   1
   1  -5  -9 297.879 25.8265   2
   1   5  -9 327.636 29.6171   5
   1   5  -9 297.474 22.8479   6
   1   5  -9 246.902 30.9681   2
  -1  -5  -9 436.920 27.9029   2
  -1  -5  -9 386.537 32.1109   1
   1  -5   9 435.190 50.3844   4
  -1   5  -9 431.167 31.0229   5
  -1   5  -9 415.345 28.0766   6
  -3  -5  -9 520.175 40.1437   6
  -3  -5  -9 529.113 36.0495   1
  -3  -5  -9 509.444 28.9418   2
   3  -5   9 493.907 51.4516   4
  -3   5  -9 491.040 30.0981   5
  -3   5  -9 612.915 35.0924   6
  -5  -5  -9 322.688 37.5293   6
  -5  -5  -9 351.542 23.4878   2
   5  -5   9 355.928 47.8479   4
  -5  -5  -9 338.065 32.3660   1
  -5   5  -9 334.259 31.9523   6
  -5   5  -9 371.267 25.2087   5
  -7  -5  -9 180.839 30.5331   6
  -7  -5  -9 125.512 24.9254   1
  -7   5  -9 162.043 27.5688   6
  -9  -5  -9 95.0657 25.0882   1
  -9  -5  -9 90.5324 29.0868   6
  -9   5  -9 130.526 28.3114   6
 -11  -5  -9 154.222 30.9908   1
 -11  -5  -9 203.700 36.6103   6
  11   5   9 56.2339 37.3154   3
 -11   5  -9 185.693 32.5913   6
 -13  -5  -9 92.1668 29.0327   6
 -13  -5  -9 88.2405 28.1427   1
  13   5   9 48.9372 29.9533   3
 -13   5  -9 53.9083 28.2022   6
 -16  -6   9 116.183 40.1001   4
  16   6  -9 136.412 34.3071   5
  16   6  -9 115.893 26.6722   2
 -14  -6   9 86.3215 35.8675   4
  14   6  -9 148.112 28.1298   2
  14   6  -9 137.054 31.6264   5
 -12  -6   9 208.514 43.2224   4
  12   6  -9 308.527 40.0737   5
  12   6  -9 129.057 27.6905   2
 -10  -6   9 107.596 36.6551   4
  10   6  -9 224.543 34.9883   5
  10   6  -9 250.457 31.3783   2
  -8  -6   9 324.777 45.8241   4
   8   6  -9 462.798 38.7018   2
   8   6  -9 352.634 37.4679   5
  -6  -6   9 209.680 40.5434   4
   6  -6  -9 284.936 30.7401   2
   6   6  -9 249.310 31.9301   5
   6   6  -9 227.485 30.4586   2
   4  -6  -9 442.454 32.2463   1
  -4  -6   9 267.725 43.8565   4
   4  -6  -9 352.515 31.2939   2
   4   6  -9 398.346 37.3142   2
   4   6  -9 390.361 32.9636   5
   2  -6  -9 332.348 27.6960   2
   2  -6  -9 251.327 27.6941   1
  -2  -6   9 352.393 49.9997   4
   2   6  -9 327.198 33.8140   5
   2   6  -9 312.587 35.1057   2
   0  -6  -9 476.137 29.4587   2
   0  -6  -9 483.259 37.9420   1
   0  -6   9 393.904 52.5037   4
   0   6  -9 497.982 34.7374   5
   0   6  -9 507.337 26.4888   6
   0   6  -9 522.868 42.3575   2
   2  -6   9 383.508 50.0393   4
  -2  -6  -9 493.069 27.5850   2
  -2  -6  -9 544.522 39.0821   1
  -2   6  -9 527.982 30.1203   6
  -2   6  -9 398.872 31.7856   5
  -4  -6  -9 198.311 30.9618   6
  -4  -6  -9 209.842 28.9465   1
   4  -6   9 194.791 37.7415   4
  -4   6  -9 239.748 24.3915   5
  -4   6  -9 250.575 26.8206   6
  -6  -6  -9 210.648 30.7065   1
   6  -6   9 172.981 37.2001   4
  -6  -6  -9 248.152 35.6393   6
  -6   6  -9 252.058 29.2213   6
  -8  -6  -9 133.449 31.2244   6
  -8  -6  -9 104.073 26.1541   1
  -8   6  -9 151.530 27.6455   6
 -10  -6  -9 199.943 34.5204   6
 -10  -6  -9 155.432 31.5738   1
 -10   6  -9 185.609 31.2266   6
  10   6   9 111.756 41.4611   3
 -12  -6  -9 74.4000 28.5871   6
 -12  -6  -9 87.2006 29.6809   1
 -12   6  -9 66.4112 27.2769   6
  12   6   9 76.3051 32.6566   3
 -15  -7   9 65.6461 37.9535   4
  15   7  -9 87.8890 31.0513   5
  15   7  -9 127.942 29.1649   2
 -13  -7   9 99.7889 38.8849   4
  13   7  -9 98.7073 24.9171   2
  13   7  -9 129.634 32.2471   5
 -11  -7   9 181.896 45.6441   4
  11   7  -9 191.613 32.6088   5
  11   7  -9 224.126 32.4243   2
  -9  -7   9 152.452 42.0632   4
   9   7  -9 195.627 31.5811   5
   9   7  -9 244.260 31.7335   2
  -7  -7   9 164.853 39.6885   4
   7   7  -9 160.764 28.5318   2
   7   7  -9 203.020 32.0747   5
  -5  -7   9 188.807 41.8213   4
   5   7  -9 224.974 30.8862   5
   5   7  -9 215.449 31.5976   2
   3  -7  -9 402.860 36.1955   1
  -3  -7   9 337.573 53.1100   4
   3   7  -9 376.174 38.8909   5
   3   7  -9 367.195 37.1260   2
  -1  -7   9 312.747 48.8498   4
   1  -7  -9 281.826 31.6816   1
   1   7  -9 327.104 34.2082   5
   1   7  -9 298.514 37.0791   2
  -1  -7  -9 296.503 34.2627   1
   1  -7   9 372.598 54.7028   4
  -1   7  -9 292.816 30.5293   5
  -3  -7  -9 128.990 28.3992   1
   3  -7   9 147.374 39.0508   4
  -3   7  -9 197.025 25.7850   5
  -3   7  -9 173.566 20.4814   6
   5  -7   9 189.057 39.6197   4
  -5  -7  -9 144.326 28.7926   1
  -5  -7  -9 207.363 31.8416   6
  -5   7  -9 158.506 23.5207   6
  -7  -7  -9 172.271 30.5848   1
  -7  -7  -9 170.939 32.6597   6
   7  -7   9 232.188 44.2150   4
  -7   7  -9 138.374 25.6164   6
  -9  -7  -9 76.8514 27.4383   1
  -9  -7  -9 100.892 31.2582   6
   9   7   9 47.0111 35.4310   3
  -9   7  -9 69.1059 25.3390   6
 -11  -7  -9 55.7442 28.6983   6
 -11  -7  -9 78.6935 28.5817   1
 -11   7  -9 88.3666 28.6854   6
  11   7   9 93.6812 33.2687   3
 -12  -8   9 53.0311 40.5244   4
  12   8  -9 31.2403 24.5977   5
  12   8  -9 74.1266 23.9378   2
 -10  -8   9 163.988 43.8831   4
  10   8  -9 180.003 32.8668   5
  10   8  -9 123.260 25.9843   2
  -8  -8   9 50.3660 39.2297   4
   8   8  -9 86.5995 26.6606   5
   8   8  -9 103.137 26.6432   2
  -6  -8   9 76.3703 40.9118   4
   6   8  -9 107.855 29.1304   5
   6   8  -9 81.8635 25.0369   2
  -4  -8   9 116.066 39.3205   4
   4  -8  -9 159.432 26.4100   1
   4   8  -9 145.865 29.5431   5
   4   8  -9 184.852 29.2978   2
  -2  -8   9 188.280 48.3428   4
   2  -8  -9 195.289 29.3582   1
   2   8  -9 170.277 28.5717   2
   2   8  -9 233.051 32.5664   5
   0  -8   9 143.806 45.4015   4
   0  -8  -9 172.596 30.2567   1
   0   8  -9 170.719 27.9254   5
   0   8  -9 155.057 31.2389   2
  -2  -8  -9 110.481 28.6380   1
   2  -8   9 149.288 44.3288   4
  -2   8  -9 111.625 23.3078   5
   4  -8   9 132.273 38.6837   4
  -4  -8  -9 76.5099 27.3351   1
  -4   8  -9 135.314 23.4895   5
  -6  -8  -9 76.1781 28.6068   1
  -6  -8  -9 68.6646 26.9988   6
   6  -8   9 88.2276 36.7598   4
  -8  -8  -9 103.127 30.9151   1
  -8  -8  -9 81.2411 29.5960   6
   8  -8   9 142.143 39.8727   4
   8   8   9 32.5625 38.3721   3
 -10  -8  -9 59.8037 27.8618   1
 -10  -8  -9 46.6265 28.5658   6
  10   8   9 31.7746 30.6790   3
 -10   8  -9 60.0325 37.8292   6
 -11  -9   9 57.8229 43.0787   4
  11   9  -9 50.4181 29.0931   5
  11   9  -9 78.2391 23.2884   2
  -9  -9   9 1.00527 39.4391   4
   9   9  -9 26.8723 25.7000   5
   9   9  -9 81.3550 24.4281   2
  -7  -9   9 13.4995 40.4970   4
   7   9  -9 63.8576 23.6435   2
   7   9  -9 36.2244 26.5343   5
  -5  -9   9 67.4928 41.0771   4
   5   9  -9 11.7332 21.0425   2
   5   9  -9 12.8706 22.5540   5
  -3  -9   9 71.6819 44.9894   4
   3  -9  -9 75.0935 25.1611   1
   3   9  -9 69.7594 25.9026   2
   3   9  -9 88.9473 27.3085   5
   1  -9  -9 78.1885 26.7379   1
  -1  -9   9 91.0279 44.6668   4
   1   9  -9 79.6917 26.3496   5
   1   9  -9 72.6486 28.0193   2
  -1  -9  -9 77.4165 28.1648   1
   1  -9   9 60.6423 40.5530   4
  -1   9  -9 63.5959 23.4697   5
  -3  -9  -9 30.9669 26.5800   1
   3  -9   9 57.6681 36.6404   4
  -3   9  -9 80.4835 22.7381   5
   5  -9   9 60.2878 34.5692   4
  -5  -9  -9 45.2091 27.1165   1
   5   9   9 -26.305 36.1868   3
  -7  -9  -9 -23.114 25.1245   1
  -7  -9  -9 51.7985 27.1185   6
   7  -9   9 108.972 37.0835   4
   7   9   9 -32.186 30.0579   3
  -8 -10   9 -23.120 43.3522   4
   8  10  -9 13.0129 25.7536   5
   8  10  -9 9.29562 19.2477   2
  -6 -10   9 -44.238 37.6979   4
   6  10  -9 27.7264 23.2939   5
   6  10  -9 28.8063 20.3629   2
  -4 -10   9 -46.121 35.1886   4
   4 -10  -9 62.7860 24.7724   1
   4  10  -9 15.0506 21.8382   5
   4  10  -9 2.54528 20.7465   2
  -2 -10   9 -30.989 37.6875   4
   2 -10  -9 19.3137 23.9169   1
   2  10  -9 49.1081 25.8159   5
   2  10  -9 25.5011 23.9699   2
   0 -10  -9 27.2121 26.1958   1
   0 -10   9 -26.626 38.6737   4
   0  10  -9 2.24536 20.6975   5
   0  10  -9 -4.6682 25.4977   2
   2 -10   9 14.6154 43.5156   4
  -2 -10  -9 9.25267 25.4684   1
  -2  10  -9 17.2410 21.4202   5
   4 -10   9 55.8974 38.3282   4
  -4 -10  -9 6.05438 29.8786   1
   4  10   9 -66.917 33.8994   3
   6  10   9 -1.3321 28.4148   3
  -3 -11   9 -66.038 42.5594   4
   1 -11  -9 -16.195 23.4770   1
  -1 -11   9 -64.101 39.9093   4
   1  11  -9 24.0728 23.1788   5
   1  11  -9 -5.6888 23.6186   2
 -18   0  10 94.3839 31.4171   7
 -16   0  10 138.076 31.9455   7
  16   0 -10 212.968 35.1995   2
 -14   0  10 255.835 38.7620   7
  14   0 -10 216.877 33.3470   2
  12   0 -10 248.542 33.4366   2
 -12   0  10 342.121 39.6556   7
 -10   0  10 206.676 31.7586   7
 -10   0  10 217.064 30.8440   4
  10   0 -10 159.039 26.8212   2
  -8   0  10 655.672 44.9661   7
   8   0 -10 738.711 43.4619   2
  -8   0  10 739.502 46.9795   4
   6   0 -10 677.899 42.2230   2
  -6   0  10 670.348 45.4569   7
  -6   0  10 720.010 45.9493   4
  -4   0  10 465.377 38.0987   4
  -4   0  10 524.216 39.5948   7
   4   0 -10 421.062 35.2117   2
  -2   0  10 674.285 44.5089   4
  -2   0  10 582.340 40.4623   7
   2   0 -10 603.386 39.4534   2
   0   0  10 128.972 23.3292   7
   0   0 -10 146.483 25.0728   6
   0   0 -10 146.495 25.1889   2
   2   0  10 684.850 38.8826   7
  -2   0 -10 733.754 41.7279   2
  -2   0 -10 753.721 26.7486   1
  -2   0 -10 729.414 44.3966   6
  -4   0 -10 588.109 38.0786   2
  -4   0 -10 512.894 25.8647   1
  -4   0 -10 476.156 39.3737   6
   4   0  10 509.076 31.8340   7
  -6   0 -10 360.570 25.5335   1
  -6   0 -10 375.594 34.4171   2
  -6   0 -10 431.590 41.8556   6
   6   0  10 364.825 26.5114   7
  -8   0 -10 173.142 22.0302   1
  -8   0 -10 211.066 32.9402   6
 -10   0 -10 66.5668 27.5422   6
 -10   0 -10 98.8522 22.1351   1
 -12   0 -10 199.882 36.4474   6
 -12   0 -10 129.584 25.9853   1
 -14   0 -10 118.405 27.0500   1
 -14   0 -10 165.786 36.8514   6
  14   0  10 64.0292 38.8797   3
  17  -1 -10 185.967 35.5106   2
 -17  -1  10 138.607 32.7907   7
 -17   1  10 141.467 33.5533   7
  17   1 -10 127.089 29.6724   2
  15  -1 -10 169.183 30.6073   2
 -15  -1  10 244.597 37.4637   7
 -15   1  10 143.497 31.7869   7
  15   1 -10 148.749 30.3789   2
 -13  -1  10 230.120 35.7720   7
  13  -1 -10 231.310 32.7344   2
 -13  -1  10 222.558 46.4709   4
  13   1 -10 254.719 34.9344   2
 -13   1  10 249.362 36.9353   7
 -11  -1  10 182.591 31.9797   4
 -11  -1  10 200.368 32.8133   7
  11  -1 -10 266.814 34.6539   2
 -11   1  10 161.637 31.5980   7
  11   1 -10 218.777 32.4700   2
  -9  -1  10 280.078 34.6655   4
   9  -1 -10 253.613 31.0119   2
  -9  -1  10 347.837 38.5865   7
  -9   1  10 251.803 32.9975   7
  -9   1  10 326.213 45.7485   4
   9   1 -10 294.850 32.0964   2
  -7  -1  10 600.339 44.7040   7
   7  -1 -10 597.345 41.2227   2
  -7  -1  10 615.914 49.3204   4
  -7   1  10 643.560 37.4479   4
  -7   1  10 661.065 46.5908   7
   7   1 -10 574.516 41.2512   2
  -5  -1  10 743.414 46.3944   7
   5  -1 -10 686.815 42.1967   2
  -5  -1  10 721.474 51.1482   4
  -5   1  10 763.780 47.7824   7
  -5   1  10 740.104 40.3354   4
   5   1 -10 689.720 43.1772   2
  -3  -1  10 493.224 39.1223   7
   3  -1 -10 550.172 36.3162   2
  -3  -1  10 486.993 45.0126   4
   3   1 -10 496.637 35.4902   2
  -3   1  10 552.211 40.2567   7
  -1  -1  10 226.915 33.6158   4
   1  -1 -10 212.281 25.8028   2
  -1  -1  10 246.304 29.1563   7
  -1   1  10 237.266 28.2095   7
   1   1 -10 202.201 25.9560   6
   1   1 -10 208.022 27.8964   2
   1  -1  10 277.190 28.1150   7
  -1  -1 -10 306.366 18.4141   1
  -1  -1 -10 327.806 33.2083   6
  -1  -1 -10 326.323 30.8897   2
   1  -1  10 344.477 38.6829   4
  -1   1 -10 379.889 34.3817   2
   1   1  10 301.182 29.9538   7
  -1   1 -10 277.828 30.9783   6
  -3  -1 -10 579.123 42.7992   6
  -3  -1 -10 572.567 36.3568   2
  -3  -1 -10 589.216 27.6566   1
   3  -1  10 535.108 34.2371   7
   3   1  10 608.828 37.3376   7
  -3   1 -10 592.906 24.1323   1
  -3   1 -10 562.382 39.4727   6
  -3   1 -10 537.215 38.9610   2
  -5  -1 -10 443.931 40.5690   6
   5  -1  10 380.083 26.9488   7
  -5  -1 -10 437.305 27.2261   1
  -5  -1 -10 382.949 32.5492   2
  -5   1 -10 455.854 40.1462   6
  -5   1 -10 431.660 24.3946   1
   5   1  10 356.711 29.7431   7
  -5   1 -10 398.049 37.4481   2
  -7  -1 -10 277.147 26.1890   1
  -7  -1 -10 228.864 28.4241   2
  -7  -1 -10 255.954 33.8760   6
  -7   1 -10 283.627 34.3630   6
  -7   1 -10 296.142 24.1235   1
  -9  -1 -10 100.677 20.7056   1
  -9  -1 -10 161.292 31.1952   6
  -9  -1 -10 143.891 25.6111   2
  -9   1 -10 115.942 28.4435   6
  -9   1 -10 100.434 19.6704   1
 -11  -1 -10 91.4566 29.8383   6
 -11  -1 -10 102.699 23.9428   1
 -11   1 -10 134.236 32.1671   6
 -11   1 -10 87.2885 21.6599   1
 -13  -1 -10 129.569 33.5651   6
 -13  -1 -10 143.031 27.6703   1
 -13   1 -10 121.961 25.4790   1
 -13   1 -10 98.7831 29.4122   6
  13   1  10 30.7064 38.5793   3
 -16  -2  10 158.590 34.1910   7
  16   2 -10 137.248 29.1778   2
 -16   2  10 144.426 33.6373   7
  14  -2 -10 134.928 29.1636   2
 -14  -2  10 196.932 33.7298   7
 -14  -2  10 153.165 33.0674   4
  14   2 -10 138.761 27.7043   2
 -14   2  10 247.027 37.8579   7
 -12  -2  10 79.0810 24.5289   7
  12  -2 -10 109.945 26.6568   2
 -12  -2  10 85.1851 27.9162   4
  12   2 -10 146.268 27.5858   2
 -12   2  10 89.1020 29.0833   7
  10  -2 -10 184.155 28.5625   2
 -10  -2  10 214.834 35.4560   4
 -10  -2  10 201.733 30.4603   7
  10   2 -10 180.475 27.2945   2
 -10   2  10 183.482 30.7304   7
  -8  -2  10 213.015 31.5188   7
   8  -2 -10 224.393 29.0628   2
  -8  -2  10 235.729 36.3354   4
  -8   2  10 212.927 30.3401   7
   8   2 -10 180.571 28.3681   2
  -6  -2  10 513.370 50.3761   4
   6  -2 -10 478.948 36.8714   2
  -6  -2  10 521.866 41.4511   7
  -6   2  10 503.693 43.2649   7
   6   2 -10 484.975 38.4333   2
  -4  -2  10 564.995 41.1268   7
   4  -2 -10 587.223 38.2163   2
  -4  -2  10 682.490 52.3432   4
  -4   2  10 524.282 39.7532   7
   4   2 -10 566.150 39.9478   2
   2  -2 -10 238.384 27.6219   2
  -2  -2  10 220.824 28.5469   7
  -2  -2  10 201.220 34.9012   4
   2   2 -10 206.708 29.8608   2
  -2   2  10 189.629 29.3153   7
   0  -2 -10 315.650 34.2447   6
   0  -2 -10 290.561 19.6383   1
   0  -2  10 374.111 41.9181   4
   0  -2  10 302.717 30.4032   7
   0  -2 -10 215.089 26.4454   2
   0   2 -10 311.308 30.7799   6
   0   2  10 214.704 27.8289   7
   0   2 -10 348.350 34.8700   2
  -2  -2 -10 107.365 26.0376   6
  -2  -2 -10 170.340 23.9526   2
   2  -2  10 161.105 32.2292   4
  -2  -2 -10 151.033 17.2501   1
   2  -2  10 150.118 22.4817   7
  -2   2 -10 148.623 27.1479   2
   2   2  10 115.728 22.4853   7
  -2   2 -10 174.088 25.7169   6
  -4  -2 -10 477.978 43.4828   6
   4  -2  10 407.837 28.6751   7
  -4  -2 -10 451.026 28.2230   1
  -4  -2 -10 492.672 33.6367   2
  -4   2 -10 426.574 35.9706   2
   4   2  10 383.655 33.6489   7
  -4   2 -10 442.673 37.3313   6
  -4   2 -10 436.824 22.3719   1
  -6  -2 -10 303.781 27.5680   1
  -6  -2 -10 330.414 29.4982   2
   6  -2  10 283.373 22.9798   7
  -6  -2 -10 268.583 33.2544   6
  -6   2 -10 284.408 32.3470   6
  -6   2 -10 282.861 22.3983   1
  -8  -2 -10 144.026 22.5582   2
  -8  -2 -10 130.990 28.9125   6
  -8  -2 -10 126.161 22.5611   1
  -8   2 -10 132.739 28.9202   6
  -8   2 -10 202.152 22.3781   1
 -10  -2 -10 131.238 31.3103   6
 -10  -2 -10 135.249 24.7723   1
 -10  -2 -10 145.758 23.6142   2
 -10   2 -10 118.873 21.8860   1
 -10   2 -10 149.412 32.5049   6
 -12  -2 -10 66.5565 26.9914   6
 -12  -2 -10 77.6592 24.1506   1
 -12   2 -10 74.7229 28.3183   6
 -12   2 -10 74.3342 21.8454   1
  14  -2  10 -72.537 30.8594   3
 -14  -2 -10 84.1549 32.8875   6
 -14  -2 -10 63.9968 24.7823   1
 -14   2 -10 69.4646 24.3461   1
  14   2  10 5.20559 31.4732   3
 -14   2 -10 31.4997 27.4275   6
 -17  -3  10 97.5699 30.4733   7
  17   3 -10 67.5817 25.1846   2
 -17   3  10 92.2139 32.5921   7
 -15  -3  10 55.4461 28.8748   4
 -15  -3  10 82.6149 28.5021   7
 -15   3  10 82.0013 29.7026   7
  15   3 -10 118.253 28.8615   2
 -13  -3  10 119.241 32.7204   4
 -13  -3  10 110.622 29.0964   7
  13  -3 -10 60.4737 24.4079   2
 -13   3  10 70.7383 28.5438   7
  13   3 -10 123.875 26.5860   2
 -11  -3  10 57.5348 28.3511   4
 -11  -3  10 73.6076 24.4686   7
  11  -3 -10 92.4454 25.6603   2
 -11   3  10 85.7717 28.5551   7
  11   3 -10 78.2722 22.5879   2
   9  -3 -10 166.063 28.0201   2
  -9  -3  10 169.971 34.7890   4
   9   3 -10 154.816 29.7858   5
   9   3 -10 122.887 24.5397   2
  -9   3  10 147.780 29.9950   7
   7  -3 -10 126.097 24.1010   2
  -7  -3  10 141.887 35.0125   4
   7   3 -10 152.606 26.4736   5
  -7   3  10 104.500 27.5043   7
   7   3 -10 141.821 25.5927   2
   5  -3 -10 282.550 30.8423   2
  -5  -3  10 295.308 40.9078   4
  -5   3  10 305.204 35.9294   7
   5   3 -10 354.095 35.8758   5
   5   3 -10 257.976 31.2595   2
  -3  -3  10 142.644 35.1578   4
   3  -3 -10 134.785 21.8681   2
  -3   3  10 133.861 26.9030   7
   3   3 -10 118.439 22.9931   5
   3   3 -10 104.592 24.4153   2
   1  -3 -10 185.433 24.3170   2
   1  -3 -10 193.493 17.7296   1
  -1  -3  10 199.133 38.2394   4
   1   3 -10 236.995 30.9780   2
   1   3 -10 156.850 22.8553   6
  -1   3  10 160.733 27.0084   7
   1  -3  10 160.800 32.4243   4
  -1  -3 -10 220.221 31.8174   6
  -1  -3 -10 173.957 23.1882   2
  -1  -3 -10 161.492 19.1257   1
  -1   3 -10 217.915 29.9614   2
   1   3  10 166.033 28.4006   7
  -1   3 -10 184.212 25.3770   6
   3  -3  10 113.345 20.4244   7
  -3  -3 -10 150.830 28.8067   6
  -3  -3 -10 135.282 19.3500   1
   3  -3  10 136.478 31.7533   4
  -3  -3 -10 98.0535 19.6720   2
  -3   3 -10 94.2048 22.4368   6
  -3   3 -10 109.230 25.6995   2
   5  -3  10 273.187 24.9187   7
  -5  -3 -10 362.929 40.4696   6
  -5  -3 -10 296.162 27.7065   2
  -5  -3 -10 280.967 27.2965   1
  -5   3 -10 288.050 32.6756   6
  -5   3 -10 304.741 20.9060   1
  -7  -3 -10 88.6849 18.8198   2
  -7  -3 -10 56.4475 24.4048   6
  -7  -3 -10 91.8476 21.8969   1
  -7   3 -10 131.848 27.6621   6
  -7   3 -10 88.3292 15.6490   1
  -9  -3 -10 101.893 22.9330   1
  -9  -3 -10 80.0945 27.0830   6
  -9   3 -10 69.5910 17.8272   1
  -9   3 -10 84.5693 28.1006   6
 -11  -3 -10 25.5691 20.8070   1
 -11  -3 -10 42.8086 28.1136   6
 -11   3 -10 61.7026 20.2705   1
 -11   3 -10 21.6862 23.8018   6
 -13  -3 -10 51.4114 24.2029   1
 -13  -3 -10 37.0733 28.7038   6
  13   3  10 9.76317 34.6403   3
 -13   3 -10 47.0524 21.0283   1
 -13   3 -10 48.8071 29.7379   6
 -16  -4  10 29.7881 25.0094   7
 -16  -4  10 53.9387 31.8486   4
 -16   4  10 46.7418 32.9132   7
  16   4 -10 61.6657 24.3592   2
 -14  -4  10 -11.738 27.6473   4
 -14  -4  10 24.1371 24.7210   7
 -14   4  10 9.64506 26.7892   7
  14   4 -10 60.4033 25.4579   5
  14   4 -10 26.8636 22.4583   2
 -12  -4  10 51.7448 31.5694   4
  12  -4 -10 34.4871 23.5290   2
  12   4 -10 71.0421 23.1754   2
  12   4 -10 78.7529 26.3662   5
 -12   4  10 44.3007 26.2011   7
 -10  -4  10 36.0106 29.4382   4
  10  -4 -10 29.4778 21.6467   2
 -10   4  10 50.9560 24.9217   7
  10   4 -10 28.7195 19.1260   2
  10   4 -10 70.1152 25.3911   5
  -8  -4  10 35.2048 30.4756   4
   8  -4 -10 28.1979 19.5415   2
   8   4 -10 67.0864 23.8338   2
  -8   4  10 86.5873 26.5464   7
   8   4 -10 46.7303 21.3370   5
  -6  -4  10 136.251 36.0189   4
   6  -4 -10 71.6748 19.4839   2
  -6   4  10 44.3223 23.9151   7
   6   4 -10 91.2386 23.9924   2
   6   4 -10 59.9698 20.9507   5
   4  -4 -10 24.6713 18.7055   2
  -4  -4  10 13.2811 32.5693   4
   4   4 -10 53.3991 20.4379   5
   4   4 -10 55.1311 22.0499   2
  -4   4  10 53.0407 23.6525   7
   2  -4 -10 53.3818 18.1318   2
  -2  -4  10 51.9661 34.6658   4
   2  -4 -10 57.4595 13.7593   1
   2   4 -10 83.5107 23.7564   2
   2   4 -10 77.0449 19.9534   5
  -2   4  10 64.9401 23.8247   7
   0  -4 -10 67.0984 16.6302   1
   0  -4  10 124.127 36.3127   4
   0  -4 -10 112.810 20.1969   2
   0   4 -10 95.2782 19.7166   5
   0   4 -10 120.404 20.2088   6
   0   4 -10 86.7386 23.7611   2
  -2  -4 -10 93.2154 26.2526   6
   2  -4  10 157.633 35.2640   4
  -2  -4 -10 177.788 22.0704   1
  -2  -4 -10 211.724 23.9510   2
  -2   4 -10 169.452 23.8757   6
  -2   4 -10 161.687 28.2602   2
  -2   4 -10 212.399 23.7585   5
  -4  -4 -10 73.3182 19.0693   1
   4  -4  10 68.7526 31.6656   4
  -4  -4 -10 79.8574 25.2406   6
  -4  -4 -10 89.9916 17.4458   2
  -4   4 -10 102.922 22.5531   6
  -6  -4 -10 86.4086 17.4353   2
  -6  -4 -10 52.9306 20.3730   1
  -6  -4 -10 107.042 29.3271   6
   6  -4  10 83.2383 15.4857   7
  -6   4 -10 50.9807 21.8371   6
  -8  -4 -10 26.1424 19.6589   1
  -8  -4 -10 0.67104 21.7522   6
  -8   4 -10 32.1233 14.4986   1
  -8   4 -10 -7.0526 21.9729   6
 -10  -4 -10 0.64631 20.7334   1
 -10  -4 -10 7.37290 24.5644   6
 -10   4 -10 23.8135 15.6981   1
 -10   4 -10 33.6813 23.7563   6
 -12  -4 -10 -21.440 19.7838   1
 -12  -4 -10 35.9345 27.5824   6
  12   4  10 -99.844 32.1004   3
 -12   4 -10 24.6426 27.0784   6
 -12   4 -10 33.8364 22.7700   1
 -15  -5  10 -29.944 29.5360   4
  15   5 -10 -10.490 21.9854   5
  15   5 -10 22.4879 23.4192   2
 -15   5  10 -0.1859 28.6276   7
 -13  -5  10 -15.122 29.0304   4
  13   5 -10 -11.591 18.5055   2
  13   5 -10 6.44951 21.0694   5
 -13   5  10 -18.517 27.2820   7
 -11  -5  10 -7.6743 30.6328   4
  11   5 -10 -9.5119 20.1087   2
 -11   5  10 -24.892 23.3508   7
  11   5 -10 -17.198 19.6252   5
  -9  -5  10 -12.211 28.9699   4
   9  -5 -10 -19.402 17.8677   2
  -9   5  10 -0.0798 23.3451   7
   9   5 -10 30.6257 19.8074   2
   9   5 -10 6.95993 22.0636   5
   7  -5 -10 29.4532 19.1086   2
  -7  -5  10 3.33345 31.7938   4
   7   5 -10 33.4055 22.3056   5
   7   5 -10 57.9963 23.1566   2
  -7   5  10 20.5542 25.8237   7
  -5  -5  10 -9.8232 31.6486   4
   5  -5 -10 -17.598 15.0328   2
  -5   5  10 -0.8811 22.0746   7
   5   5 -10 6.89821 20.9119   2
   5   5 -10 8.76298 19.5532   5
  -3  -5  10 26.8314 34.4603   4
   3  -5 -10 16.6938 15.9730   2
   3  -5 -10 42.3709 14.3841   1
   3   5 -10 33.8068 19.2474   2
   3   5 -10 32.4124 19.4948   5
   1  -5 -10 40.5867 16.4712   1
   1  -5 -10 48.0185 17.1695   2
  -1  -5  10 76.1502 33.1523   4
   1   5 -10 5.17225 16.4995   5
   1   5 -10 24.5046 12.7081   6
   1   5 -10 55.3772 21.5419   2
  -1  -5 -10 -7.9397 16.1088   1
   1  -5  10 74.6105 32.6045   4
  -1  -5 -10 4.55995 13.6739   2
  -1   5 -10 32.2488 17.2747   5
  -1   5 -10 -17.025 19.7150   2
  -1   5 -10 14.0906 13.8901   6
   3  -5  10 53.7632 31.5764   4
  -3  -5 -10 -2.3301 17.3734   1
  -3  -5 -10 44.0833 15.2012   2
  -3  -5 -10 -12.313 21.7989   6
  -3   5 -10 77.4080 20.2615   6
  -3   5 -10 31.3052 15.3745   5
  -5  -5 -10 -3.5942 17.7429   1
   5  -5  10 25.9570 27.1355   4
  -5  -5 -10 7.71971 22.3727   6
  -5   5 -10 13.6200 18.6297   6
  -7  -5 -10 -0.3556 19.8381   1
  -7  -5 -10 -6.5621 23.2413   6
  -7   5 -10 -5.6690 20.7026   6
  -9  -5 -10 -5.1699 20.4438   1
  -9  -5 -10 2.79597 22.7643   6
  -9   5 -10 -8.8070 20.9143   6
 -11  -5 -10 -22.359 20.7371   1
 -11  -5 -10 -29.406 22.1749   6
  11   5  10 -124.45 32.2494   3
 -11   5 -10 -41.905 21.4361   6
 -14  -6  10 -16.118 33.0840   4
  14   6 -10 -7.6849 21.4440   2
  14   6 -10 30.2244 26.5182   5
 -12  -6  10 -16.868 32.4098   4
  12   6 -10 -1.8103 21.3092   5
  12   6 -10 8.38669 20.3238   2
 -10  -6  10 -15.601 32.7636   4
  10   6 -10 4.50222 23.0601   5
  10   6 -10 -13.763 18.5876   2
  -8  -6  10 -41.780 29.7598   4
   8   6 -10 -9.5391 16.9974   2
   8   6 -10 10.1204 20.7273   5
   6  -6 -10 7.44561 17.5828   2
  -6  -6  10 -42.726 30.4966   4
   6   6 -10 -9.0005 16.6030   5
   6   6 -10 11.5740 19.5401   2
   4  -6 -10 -20.878 14.8788   2
  -4  -6  10 -12.616 34.5242   4
   4   6 -10 -15.578 17.0930   5
   4   6 -10 24.2057 19.9145   2
   2  -6 -10 27.7488 16.5075   2
  -2  -6  10 -15.007 34.4199   4
   2  -6 -10 0.60863 15.0962   1
   2   6 -10 -5.9073 16.3248   5
   2   6 -10 2.53443 19.2283   2
   0  -6 -10 -23.760 12.4186   2
   0  -6  10 15.6766 35.3606   4
   0  -6 -10 3.94171 16.9620   1
   0   6 -10 8.14067 13.8721   6
   0   6 -10 -8.6488 15.5922   5
   0   6 -10 9.70412 21.2733   2
  -2  -6 -10 -3.6625 18.8581   1
   2  -6  10 29.6753 30.2742   4
  -2   6 -10 -12.730 12.4409   6
  -2   6 -10 -12.137 13.8825   5
  -4  -6 -10 34.2261 24.3188   6
   4  -6  10 19.2563 27.5865   4
  -4  -6 -10 -17.306 20.3806   1
  -4   6 -10 19.7733 16.9872   6
  -6  -6 -10 2.62029 24.2686   6
   6  -6  10 33.9488 31.3134   4
  -6  -6 -10 -20.076 19.3062   1
  -6   6 -10 37.8179 21.9467   6
  -8  -6 -10 -21.025 19.4645   1
  -8  -6 -10 19.8504 26.1103   6
  -8   6 -10 45.5856 23.8561   6
 -10  -6 -10 5.80766 23.6760   6
 -10  -6 -10 -11.708 22.1412   1
 -10   6 -10 -8.2805 22.4785   6
  10   6  10 -101.65 33.8643   3
 -13  -7  10 0.40529 35.4801   4
  13   7 -10 14.1654 21.9265   2
  13   7 -10 13.4893 23.5375   5
 -11  -7  10 -30.684 34.0778   4
  11   7 -10 24.0777 23.6755   5
  11   7 -10 37.9233 23.0339   2
  -9  -7  10 -8.5943 36.9349   4
   9   7 -10 7.79237 19.3489   2
   9   7 -10 48.9221 22.8627   5
  -7  -7  10 0.28637 32.1792   4
   7   7 -10 -1.3332 21.1157   5
   7   7 -10 72.3891 24.1842   2
  -5  -7  10 -27.613 34.6564   4
   5   7 -10 21.5704 20.7278   5
   5   7 -10 56.3022 21.3838   2
   3  -7 -10 36.7860 19.3334   1
  -3  -7  10 26.2256 38.3143   4
   3   7 -10 53.4314 25.3533   2
   3   7 -10 46.8257 21.3543   5
  -1  -7  10 -5.8793 36.3533   4
   1  -7 -10 13.9305 19.3883   1
   1  -7 -10 6.07850 15.1998   2
   1   7 -10 31.7542 19.2028   5
   1   7 -10 45.6177 22.3247   2
   1  -7  10 20.9736 35.4981   4
  -1  -7 -10 26.0827 21.3661   1
  -1   7 -10 50.2408 19.6771   5
  -1   7 -10 6.01293 24.1423   2
  -3  -7 -10 3.93841 22.5268   1
   3  -7  10 20.6876 33.7016   4
  -3   7 -10 7.84116 18.8758   5
  -5  -7 -10 10.1074 24.6343   1
   5  -7  10 63.9393 33.7972   4
  -5  -7 -10 51.4397 24.9846   6
   7  -7  10 58.5243 34.8362   4
  -7  -7 -10 6.51397 24.2027   1
  -7  -7 -10 33.9216 27.2849   6
  -7   7 -10 20.1293 21.8326   6
  -9  -7 -10 -11.661 25.2736   6
  -9  -7 -10 -15.362 22.9603   1
  -9   7 -10 9.75203 22.3830   6
   9   7  10 -44.322 32.0454   3
 -10  -8  10 2.21766 39.1691   4
  10   8 -10 64.2547 26.4407   5
  10   8 -10 66.9708 23.5807   2
  -8  -8  10 -47.255 37.4595   4
   8   8 -10 17.2224 21.5333   5
   8   8 -10 21.2905 23.4305   2
  -6  -8  10 75.5761 45.4081   4
   6   8 -10 102.879 28.2555   5
   6   8 -10 55.3153 25.9455   2
  -4  -8  10 -3.3699 39.3177   4
   4   8 -10 75.9948 24.4829   2
   4   8 -10 45.4650 24.7473   5
   2  -8 -10 78.4215 24.7281   1
  -2  -8  10 66.7458 44.3912   4
   2   8 -10 24.3809 21.3844   2
   2   8 -10 71.5890 24.5150   5
   0  -8  10 22.2902 40.2869   4
   0  -8 -10 48.9445 24.0703   1
   0   8 -10 29.7717 20.8176   5
   0   8 -10 16.4664 24.7362   2
   2  -8  10 49.5168 36.2487   4
  -2  -8 -10 22.8589 24.8294   1
  -2   8 -10 55.0069 21.5804   5
  -4  -8 -10 -5.7844 23.6434   1
   4  -8  10 28.1526 31.3635   4
   6  -8  10 78.5004 36.4671   4
  -6  -8 -10 -27.367 23.0452   1
  -6  -8 -10 20.1680 26.0741   6
   8  -8  10 51.5752 29.3413   4
  -8  -8 -10 85.7076 30.5826   6
  -8  -8 -10 -43.595 23.4689   1
   8   8  10 -28.277 36.0425   3
  -9  -9  10 -22.933 40.5825   4
   9   9 -10 75.6498 27.6189   5
   9   9 -10 92.6317 25.6954   2
  -7  -9  10 -43.299 41.2452   4
   7   9 -10 76.4409 26.1590   2
   7   9 -10 130.049 30.6989   5
  -5  -9  10 35.7443 46.0863   4
   5   9 -10 82.5347 24.1304   2
   5   9 -10 95.5731 29.7258   5
  -3  -9  10 10.5710 44.4300   4
   3  -9 -10 74.7813 23.8133   1
   3   9 -10 132.654 29.7708   2
   3   9 -10 107.639 29.0525   5
  -1  -9  10 17.9363 41.4020   4
   1  -9 -10 78.7174 26.4561   1
   1   9 -10 19.2008 23.8900   2
   1   9 -10 63.0772 24.2684   5
   1  -9  10 73.8123 41.9579   4
  -1  -9 -10 30.9827 26.6900   1
  -1   9 -10 78.2878 23.7867   5
  -1   9 -10 96.8925 31.1713   2
   3  -9  10 73.1704 42.6069   4
  -3  -9 -10 39.9156 29.2288   1
   5  -9  10 55.9304 36.9541   4
  -5  -9 -10 -3.0323 28.2451   1
  -4 -10  10 -56.699 45.1273   4
   4  10 -10 141.193 30.5812   2
   4  10 -10 79.7411 28.7611   5
  -2 -10  10 66.3128 52.5791   4
   2 -10 -10 110.790 29.8563   1
   2  10 -10 99.6304 28.0594   5
   2  10 -10 47.1523 26.2276   2
   0 -10  10 79.0037 47.7973   4
   0 -10 -10 107.613 30.5810   1
   0  10 -10 127.632 32.7062   2
   0  10 -10 153.706 30.4125   5
 -16   0  11 -6.4913 24.0856   7
  16   0 -11 27.2615 25.3620   2
 -14   0  11 -42.513 21.9547   7
  14   0 -11 -0.7790 19.4374   2
 -12   0  11 8.43195 21.7182   7
  12   0 -11 -27.187 16.7469   2
  10   0 -11 5.31843 20.1411   2
 -10   0  11 -42.534 18.5239   7
   8   0 -11 -1.4783 19.6201   2
  -8   0  11 6.96599 21.6581   7
  -8   0  11 20.0251 21.4951   4
  -6   0  11 -15.159 18.4809   7
  -6   0  11 21.1549 19.4726   4
   6   0 -11 16.9727 17.6914   2
   4   0 -11 16.6650 19.3176   2
  -4   0  11 5.14008 18.5447   4
  -4   0  11 26.2685 20.9256   7
   2   0 -11 -8.8498 16.0312   2
  -2   0  11 -12.137 17.9997   7
   0   0  11 14.8685 17.0348   7
   0   0 -11 -24.772 16.2506   2
   0   0 -11 -9.8514 18.0093   6
   2   0  11 -1.3165 16.3399   7
  -2   0 -11 7.77885 17.3629   2
  -2   0 -11 0.86194 20.5177   6
  -4   0 -11 0.55478 20.6675   6
   4   0  11 -18.714 13.1756   7
  -4   0 -11 -3.2894 18.0146   2
  -6   0 -11 -11.415 19.9572   6
  -6   0 -11 -1.5523 17.9081   2
  -8   0 -11 -12.483 18.8758   2
  -8   0 -11 18.8099 24.0663   6
 -10   0 -11 6.02503 20.9738   2
 -10   0 -11 -13.855 23.6188   6
 -12   0 -11 -9.9824 27.4675   6
 -15  -1  11 7.85730 23.2110   7
  15  -1 -11 -6.7619 20.8508   2
 -15   1  11 3.08082 25.2739   7
  15   1 -11 36.2963 22.3203   2
 -13  -1  11 2.93950 22.2455   7
  13  -1 -11 22.9193 20.9195   2
  13   1 -11 -17.423 18.6125   2
 -13   1  11 16.9583 21.8337   7
 -11  -1  11 23.8563 22.2824   7
  11  -1 -11 7.71543 20.1797   2
  11   1 -11 18.3241 20.8887   2
 -11   1  11 39.5741 24.6298   7
  -9  -1  11 3.97670 19.9355   7
  -9  -1  11 -42.050 24.5660   4
   9  -1 -11 10.7435 20.8992   2
   9   1 -11 0.81938 19.5405   2
  -9   1  11 6.10675 22.2998   7
  -7  -1  11 12.8677 20.6745   7
  -7  -1  11 5.54404 24.3689   4
   7  -1 -11 15.9454 20.7387   2
   7   1 -11 -0.1113 18.9447   2
  -7   1  11 12.9644 20.2641   7
  -5  -1  11 10.2406 18.8052   7
  -5  -1  11 26.5820 23.5369   4
   5  -1 -11 3.65531 18.7154   2
   5   1 -11 5.04277 17.4688   2
  -5   1  11 -5.6531 19.2338   7
   3  -1 -11 63.3005 20.6390   2
  -3  -1  11 31.4288 19.7066   7
  -3  -1  11 24.2873 22.3834   4
  -3   1  11 21.7184 20.4021   7
   3   1 -11 35.1288 19.3628   2
  -1  -1  11 67.0730 19.8816   7
  -1  -1  11 108.639 27.9415   4
   1  -1 -11 37.1616 19.6628   2
   1   1 -11 68.5441 23.2549   2
  -1   1  11 90.3744 22.9843   7
  -1  -1 -11 4.18478 16.9704   2
  -1  -1 -11 -5.5419 18.0891   6
   1  -1  11 8.90918 16.6061   7
  -1   1 -11 21.4913 18.6902   2
  -1   1 -11 35.4238 21.0686   6
   1   1  11 6.79716 17.2067   7
  -3  -1 -11 54.2584 19.9301   2
   3  -1  11 35.5004 16.8447   7
  -3  -1 -11 32.8263 22.9573   6
  -3   1 -11 0.85000 20.1319   2
   3   1  11 21.1585 18.0175   7
  -3   1 -11 15.0595 20.2402   6
  -5  -1 -11 16.6054 22.6302   6
  -5  -1 -11 31.9539 19.2991   2
   5  -1  11 2.98381 13.1384   7
  -5   1 -11 24.1935 21.1031   6
  -5   1 -11 23.9280 20.0460   2
   5   1  11 12.5833 15.7138   7
  -7  -1 -11 29.0608 19.3442   2
  -7  -1 -11 -6.8022 21.9720   6
  -7   1 -11 10.9474 24.0194   6
  -7   1 -11 -11.233 20.5078   2
  -9  -1 -11 16.0566 18.9299   2
  -9  -1 -11 38.2040 24.1712   6
  -9   1 -11 9.33909 24.3716   6
 -11  -1 -11 6.85641 27.0050   6
 -11   1 -11 6.11608 23.8996   6
  16  -2 -11 12.1791 27.9169   2
 -16  -2  11 67.5251 25.6375   7
 -16   2  11 5.79279 26.0031   7
  16   2 -11 24.6139 25.1783   2
  14  -2 -11 69.5843 26.3081   2
 -14  -2  11 37.5457 23.8757   7
  14   2 -11 16.9118 20.6030   2
 -14   2  11 12.5645 26.1283   7
 -12  -2  11 32.4029 24.9236   7
 -12  -2  11 10.6894 42.7176   4
  12  -2 -11 94.0637 26.1440   2
  12   2 -11 56.7698 25.2371   2
 -12   2  11 61.0125 27.9359   7
 -10  -2  11 -9.8221 27.1325   4
 -10  -2  11 54.5298 22.8173   7
  10  -2 -11 66.8266 24.6772   2
 -10   2  11 22.3632 25.2795   7
  10   2 -11 76.0512 25.1963   2
  -8  -2  11 59.2958 24.3021   7
   8  -2 -11 61.1970 23.6748   2
  -8  -2  11 25.8362 29.8933   4
   8   2 -11 31.4174 22.3751   2
  -8   2  11 22.1662 23.1310   7
   6  -2 -11 120.611 25.0561   2
  -6  -2  11 60.4147 23.9588   7
  -6  -2  11 58.2387 31.2318   4
  -6   2  11 98.9691 26.9264   7
   6   2 -11 120.994 27.1162   2
  -4  -2  11 107.842 31.5567   4
   4  -2 -11 104.610 23.2439   2
  -4  -2  11 86.3858 23.3575   7
  -4   2  11 58.3191 22.2368   7
   4   2 -11 111.380 26.7171   2
  -2  -2  11 175.294 32.5472   4
   2  -2 -11 101.056 23.0016   2
  -2  -2  11 102.261 23.6443   7
  -2   2  11 138.921 27.9847   7
   2   2 -11 118.094 25.5365   2
   0  -2 -11 88.4903 21.0052   2
   0  -2  11 108.762 23.3831   7
   0  -2  11 130.768 31.7010   4
   0   2  11 67.3823 22.4026   7
   0   2 -11 107.888 25.0547   2
   0   2 -11 91.8798 23.7422   6
  -2  -2 -11 19.5803 17.4023   2
  -2  -2 -11 55.1797 25.2390   6
   2  -2  11 52.5982 18.6306   7
  -2   2 -11 51.5661 21.3726   2
   2   2  11 34.4239 20.6070   7
  -2   2 -11 61.2959 21.8042   6
  -4  -2 -11 88.7812 21.7110   2
   4  -2  11 104.315 19.5742   7
  -4  -2 -11 73.8317 25.5830   6
  -4   2 -11 118.926 27.4721   2
  -4   2 -11 106.438 25.0982   6
  -6  -2 -11 41.9418 18.5121   2
  -6  -2 -11 40.7178 24.0600   6
  -6   2 -11 68.7374 25.8385   6
  -6   2 -11 31.8723 24.0297   2
  -8  -2 -11 43.9297 23.5174   1
  -8  -2 -11 70.5568 20.9656   2
  -8  -2 -11 82.0174 28.6400   6
  -8   2 -11 76.7281 27.3838   6
 -10  -2 -11 34.5046 22.6818   1
 -10  -2 -11 47.1847 28.8851   6
 -10   2 -11 61.5511 28.7337   6
 -12  -2 -11 5.98920 25.5208   6
 -12   2 -11 48.9371 28.2146   6
 -15  -3  11 47.0213 27.9492   7
  15   3 -11 44.9963 24.6568   2
 -15   3  11 36.1310 28.6895   7
  13  -3 -11 82.6907 25.9366   2
 -13  -3  11 63.4068 34.3687   4
 -13  -3  11 87.1245 29.7873   7
 -13   3  11 99.2385 32.3933   7
  13   3 -11 122.442 29.8946   2
 -11  -3  11 27.8645 31.0176   4
  11  -3 -11 93.8917 27.5394   2
 -11  -3  11 62.6844 25.6592   7
  11   3 -11 50.9869 24.2876   2
 -11   3  11 70.2897 29.2788   7
  -9  -3  11 111.417 27.3473   7
  -9  -3  11 69.0606 34.1578   4
   9  -3 -11 149.780 27.9512   2
  -9   3  11 109.440 31.5790   7
   9   3 -11 144.599 26.9611   2
   7  -3 -11 101.163 25.2800   2
  -7  -3  11 92.9592 34.1881   4
  -7  -3  11 117.642 25.3439   7
   7   3 -11 99.7166 25.4536   2
  -7   3  11 72.4933 25.1088   7
   5  -3 -11 301.561 33.5763   2
  -5  -3  11 244.901 40.7473   4
  -5  -3  11 270.452 33.7108   7
   5   3 -11 205.977 30.5659   2
  -5   3  11 209.903 33.8398   7
  -3  -3  11 290.485 42.4790   4
   3  -3 -11 316.963 32.9948   2
  -3  -3  11 267.555 33.3396   7
   3   3 -11 268.490 33.6201   2
  -3   3  11 269.517 34.7281   7
  -1  -3  11 171.408 26.7066   7
  -1  -3  11 110.468 32.1711   4
   1  -3 -11 146.129 24.4397   2
  -1   3  11 142.165 26.8465   7
   1   3 -11 149.792 27.8204   2
  -1  -3 -11 97.4135 21.0625   2
  -1  -3 -11 116.801 26.0351   6
   1  -3  11 137.522 34.4628   4
   1  -3  11 66.0636 20.1661   7
   1   3  11 26.3799 21.8010   7
  -1   3 -11 95.3300 24.6357   2
  -1   3 -11 61.0780 21.1538   6
   3  -3  11 117.143 31.2540   4
  -3  -3 -11 56.9700 26.9166   6
  -3  -3 -11 55.0913 18.8726   2
   3  -3  11 83.8732 20.7009   7
  -3   3 -11 56.8223 22.7798   2
  -3   3 -11 46.0145 21.4299   6
  -5  -3 -11 141.838 29.7119   6
  -5  -3 -11 170.239 29.5710   1
   5  -3  11 163.357 21.1127   7
  -5  -3 -11 165.888 23.9924   2
  -5   3 -11 198.417 30.6029   6
  -5   3 -11 140.933 28.6230   2
  -7  -3 -11 110.749 28.0779   6
  -7  -3 -11 166.529 25.4608   2
  -7  -3 -11 120.773 23.0515   1
  -7   3 -11 130.181 29.6582   6
  -9  -3 -11 101.691 24.4302   1
  -9  -3 -11 76.6845 29.0737   6
  -9   3 -11 130.787 30.5201   6
 -11  -3 -11 6.60695 20.4360   1
 -11  -3 -11 32.9180 27.3827   6
 -11   3 -11 58.2314 30.1273   6
 -14  -4  11 120.259 31.3296   7
 -14  -4  11 24.8029 33.8095   4
 -14   4  11 44.6756 31.5174   7
  14   4 -11 139.058 31.5005   2
 -12  -4  11 45.4452 35.6407   4
 -12  -4  11 183.863 34.6682   7
  12  -4 -11 113.018 29.9175   2
  12   4 -11 160.715 29.9974   2
 -12   4  11 103.089 32.9428   7
  10  -4 -11 192.012 30.9882   2
 -10  -4  11 174.148 41.6173   4
 -10   4  11 182.806 35.6492   7
  10   4 -11 210.718 32.9495   2
  10   4 -11 165.554 32.3420   5
   8  -4 -11 197.906 29.0047   2
  -8  -4  11 172.422 40.7785   4
   8   4 -11 198.808 33.3463   5
   8   4 -11 155.773 29.9125   2
  -8   4  11 181.538 35.3160   7
   6  -4 -11 213.239 29.0651   2
  -6  -4  11 143.060 39.7318   4
   6   4 -11 201.812 31.3290   5
   6   4 -11 142.269 27.4399   2
  -6   4  11 192.986 35.4567   7
   4  -4 -11 408.910 34.3001   2
  -4  -4  11 339.376 50.3577   4
  -4   4  11 265.254 35.3819   7
   4   4 -11 368.688 37.0901   5
   4   4 -11 305.135 36.7434   2
   2  -4 -11 277.220 30.3882   2
  -2  -4  11 235.759 42.4754   4
   2   4 -11 278.170 30.8183   5
   2   4 -11 357.668 37.5713   2
  -2   4  11 271.752 37.0572   7
   0  -4  11 207.676 39.3904   4
   0  -4 -11 168.843 24.6345   2
   0   4 -11 202.386 25.9351   6
   0   4 -11 182.996 31.1560   2
  -2  -4 -11 179.097 30.9560   6
  -2  -4 -11 167.361 23.1868   2
   2  -4  11 179.566 38.6040   4
  -2   4 -11 206.472 32.5870   2
  -2   4 -11 144.842 25.6876   6
   4  -4  11 136.033 21.9034   7
  -4  -4 -11 106.012 22.3453   1
   4  -4  11 134.583 35.8296   4
  -4  -4 -11 135.966 30.9434   6
  -4  -4 -11 89.2894 19.3595   2
  -4   4 -11 106.323 30.2513   2
  -4   4 -11 100.694 24.7081   6
  -6  -4 -11 335.495 41.2120   6
  -6  -4 -11 247.279 28.5641   1
  -6   4 -11 263.823 34.2906   6
  -8  -4 -11 92.8615 30.4574   6
  -8  -4 -11 150.578 27.5491   1
  -8   4 -11 135.188 29.8732   6
 -10  -4 -11 52.5112 24.0795   1
 -10  -4 -11 116.963 32.0574   6
 -10   4 -11 79.3436 28.9939   6
 -13  -5  11 98.5912 41.6664   4
  13   5 -11 129.359 30.1581   2
  13   5 -11 57.3066 28.3243   5
 -13   5  11 88.4907 33.8265   7
 -11  -5  11 144.980 43.0525   4
  11   5 -11 247.109 34.7081   2
 -11   5  11 210.575 39.6223   7
  11   5 -11 182.674 34.1288   5
  -9  -5  11 101.480 41.9292   4
   9  -5 -11 162.814 29.7964   2
   9   5 -11 198.448 32.1629   5
   9   5 -11 212.825 32.8213   2
  -9   5  11 100.914 34.5760   7
  -7  -5  11 183.296 45.8259   4
   7  -5 -11 196.873 28.9313   2
   7   5 -11 229.676 33.8466   5
   7   5 -11 258.732 34.5461   2
  -7   5  11 208.073 39.6231   7
   5  -5 -11 192.704 27.4262   2
  -5  -5  11 218.884 46.5908   4
   5   5 -11 183.095 29.7324   2
  -5   5  11 205.115 38.2923   7
   5   5 -11 226.452 33.2278   5
   3  -5 -11 318.093 32.0741   2
  -3  -5  11 279.019 49.0243   4
   3   5 -11 321.597 37.5475   2
   3   5 -11 376.889 37.6321   5
  -1  -5  11 211.818 45.0899   4
   1  -5 -11 246.827 28.5062   2
   1   5 -11 296.893 37.0677   2
   1   5 -11 279.698 30.8690   5
   1  -5  11 282.195 45.7929   4
  -1  -5 -11 308.445 29.0972   2
  -1   5 -11 297.462 28.3390   6
  -1   5 -11 255.981 34.6685   2
  -1   5 -11 297.762 30.4657   5
  -3  -5 -11 163.266 25.3567   1
  -3  -5 -11 194.427 31.9025   6
   3  -5  11 205.655 40.5973   4
  -3   5 -11 123.089 33.0831   2
  -3   5 -11 124.823 24.2085   6
  -5  -5 -11 151.037 31.0048   6
   5  -5  11 163.243 38.7243   4
  -5  -5 -11 67.7327 22.2913   1
  -5   5 -11 144.336 26.9944   6
  -7  -5 -11 246.505 39.2555   6
  -7  -5 -11 162.836 29.7951   1
  -7   5 -11 217.206 30.8354   6
  -9  -5 -11 138.132 32.4249   6
  -9  -5 -11 45.5504 25.2865   1
  -9   5 -11 95.1263 29.2468   6
 -12  -6  11 82.8880 41.6993   4
  12   6 -11 170.435 35.5995   5
  12   6 -11 148.959 30.7840   2
 -10  -6  11 110.348 45.1867   4
  10   6 -11 147.034 30.3170   2
  10   6 -11 229.424 36.4648   5
   8  -6 -11 187.749 29.6556   2
  -8  -6  11 129.504 45.0926   4
   8   6 -11 137.690 30.0046   5
   8   6 -11 172.688 30.3008   2
   6  -6 -11 213.855 29.7714   2
  -6  -6  11 160.901 46.4541   4
   6   6 -11 169.820 30.3510   2
   6   6 -11 189.740 31.2674   5
  -4  -6  11 179.822 44.1986   4
   4  -6 -11 229.382 28.7180   2
   4   6 -11 269.546 34.3415   5
   4   6 -11 254.322 33.2655   2
   2  -6 -11 230.511 26.7300   2
  -2  -6  11 205.099 44.9125   4
   2   6 -11 290.197 33.9618   5
   2   6 -11 269.771 35.8862   2
   0  -6  11 201.354 46.6148   4
   0  -6 -11 287.267 28.5701   2
   0   6 -11 197.817 34.4239   2
   0   6 -11 244.412 29.8313   5
   2  -6  11 174.532 39.7039   4
  -2  -6 -11 128.536 26.3044   1
  -2   6 -11 200.210 35.4017   2
  -4  -6 -11 154.522 32.4509   6
  -4  -6 -11 81.6452 25.2361   1
   4  -6  11 194.534 42.2712   4
  -6  -6 -11 115.625 31.8015   6
  -6  -6 -11 126.136 29.3101   1
   6  -6  11 163.679 38.7850   4
  -6   6 -11 129.946 27.4907   6
  -8  -6 -11 111.700 32.2262   6
  -8  -6 -11 37.4393 24.9456   1
  -8   6 -11 85.9497 27.4399   6
 -11  -7  11 29.3345 43.9336   4
  11   7 -11 59.1718 28.0522   5
  11   7 -11 50.4734 26.7230   2
  -9  -7  11 -4.9943 40.6042   4
   9   7 -11 105.521 30.2351   5
   9   7 -11 88.2985 25.7613   2
  -7  -7  11 102.460 46.2501   4
   7   7 -11 150.256 31.8584   2
   7   7 -11 107.177 29.7582   5
  -5  -7  11 139.884 48.8939   4
   5   7 -11 193.234 33.5348   2
   5   7 -11 160.251 30.0486   5
   3  -7 -11 87.9079 21.8365   2
  -3  -7  11 73.0939 40.6580   4
   3   7 -11 133.457 27.7683   5
   3   7 -11 94.5304 26.5566   2
  -1  -7  11 158.613 47.6827   4
   1   7 -11 212.629 35.2158   2
   1   7 -11 164.228 28.0426   5
   1  -7  11 168.687 43.5018   4
  -1  -7 -11 106.795 34.3506   1
  -1   7 -11 169.937 33.6509   2
  -1   7 -11 116.329 25.9582   5
   3  -7  11 117.163 36.6312   4
  -3  -7 -11 99.0167 28.4618   1
  -3   7 -11 100.431 32.0683   2
   5  -7  11 204.778 44.3473   4
  -5  -7 -11 129.878 32.7365   6
  -5  -7 -11 91.3006 28.6335   1
  -7  -7 -11 55.1095 27.5856   6
  -7  -7 -11 36.4005 26.8244   1
  -8  -8  11 -33.196 43.1110   4
   8   8 -11 77.9636 26.8372   5
   8   8 -11 83.0063 27.6698   2
  -6  -8  11 4.12050 46.6397   4
   6   8 -11 125.258 30.6452   2
   6   8 -11 121.083 30.2784   5
  -4  -8  11 4.05935 45.1545   4
   4   8 -11 61.5517 24.9145   5
   4   8 -11 66.9250 24.6577   2
  -2  -8  11 47.2987 47.2856   4
   2   8 -11 63.9955 26.1378   2
   2   8 -11 64.9859 23.8910   5
   0  -8  11 132.630 44.4249   4
   0   8 -11 75.7606 23.7417   5
   0   8 -11 86.4426 28.8250   2
   2  -8  11 62.5468 38.0769   4
  -2  -8 -11 21.2377 26.1078   1
  -2   8 -11 13.8484 27.6160   2
  -4  -8 -11 80.0600 30.5530   1
   4  -8  11 67.1155 36.0182   4
  -3  -9  11 -37.903 46.0136   4
   3   9 -11 44.8904 24.6363   5
   3   9 -11 54.2887 26.9815   2
  -1  -9  11 -31.583 45.5134   4
   1   9 -11 63.3075 25.4227   5
   1   9 -11 -2.4032 23.3276   2
  14   0 -12 120.642 29.0687   2
 -14   0  12 105.199 30.6817   7
  12   0 -12 253.109 35.9565   2
 -12   0  12 223.533 38.4342   7
  10   0 -12 173.771 30.3786   2
 -10   0  12 235.128 38.3796   7
  -8   0  12 183.441 32.3710   7
   8   0 -12 161.829 30.8895   2
  -6   0  12 178.450 33.1365   7
   6   0 -12 232.059 33.0091   2
  -4   0  12 370.374 37.5963   4
   4   0 -12 190.402 29.3141   2
  -4   0  12 255.660 35.7024   7
   2   0 -12 342.480 36.7300   2
  -2   0  12 387.850 37.9676   7
   0   0 -12 486.685 42.8570   6
   0   0 -12 423.439 39.2385   2
   0   0  12 361.017 36.4204   7
  -2   0 -12 270.544 33.1116   2
  -2   0 -12 322.677 38.0172   6
   2   0  12 227.966 29.4979   7
  -4   0 -12 138.650 25.8059   2
   4   0  12 97.4612 20.7341   7
  -4   0 -12 114.883 27.8082   6
  -6   0 -12 144.395 29.7482   6
  -6   0 -12 160.096 29.1702   2
  -8   0 -12 105.932 26.3725   2
  -8   0 -12 88.9839 30.2356   6
 -10   0 -12 122.369 26.7537   2
 -10   0 -12 134.471 32.7797   6
 -13  -1  12 122.268 33.5031   7
  13  -1 -12 110.652 28.1002   2
 -13   1  12 101.261 29.8771   7
  13   1 -12 120.464 29.2840   2
 -11  -1  12 158.933 34.1868   7
  11  -1 -12 154.996 29.8666   2
  11   1 -12 183.263 32.9326   2
 -11   1  12 172.863 34.1276   7
  -9  -1  12 191.329 32.6417   7
   9  -1 -12 220.349 32.7288   2
   9   1 -12 237.939 35.0907   2
  -9   1  12 203.873 34.5705   7
   7  -1 -12 260.910 35.1866   2
  -7  -1  12 296.961 37.2150   7
  -7  -1  12 268.748 40.4459   4
  -7   1  12 218.873 35.0669   7
   7   1 -12 290.025 36.1701   2
  -5  -1  12 239.566 34.1109   4
   5  -1 -12 218.523 30.3262   2
  -5  -1  12 216.768 33.2210   7
  -5   1  12 238.029 34.5988   7
   5   1 -12 197.862 31.3508   2
  -3  -1  12 292.355 37.3849   4
   3  -1 -12 261.252 32.2523   2
  -3  -1  12 225.677 31.5254   7
   3   1 -12 254.999 34.7854   2
  -3   1  12 212.447 33.1055   7
  -1  -1  12 384.285 39.0153   7
   1  -1 -12 311.791 34.8685   2
  -1   1  12 338.883 36.7441   7
   1   1 -12 258.629 33.6584   2
   1  -1  12 252.093 31.3504   7
  -1  -1 -12 344.409 37.8191   6
  -1  -1 -12 298.252 32.7464   2
  -1   1 -12 327.481 36.6883   2
   1   1  12 278.010 33.5916   7
  -1   1 -12 443.661 41.0664   6
   3  -1  12 149.424 24.7170   7
  -3  -1 -12 204.246 29.5914   2
  -3  -1 -12 166.483 30.3065   6
  -3   1 -12 168.820 30.8385   6
  -3   1 -12 154.471 27.5446   2
   3   1  12 177.916 27.8328   7
  -5  -1 -12 140.117 26.3269   2
  -5  -1 -12 143.287 32.3235   6
  -5   1 -12 104.128 29.5776   6
  -5   1 -12 159.953 29.9768   2
  -7  -1 -12 144.847 33.7994   6
  -7  -1 -12 128.412 25.5321   2
  -7   1 -12 172.269 32.9062   6
  -7   1 -12 128.367 27.8755   2
  -9  -1 -12 79.4916 30.9714   6
  -9  -1 -12 119.977 26.0053   2
  -9   1 -12 138.423 34.4160   6
  -9   1 -12 110.025 27.6597   2
 -12  -2  12 62.1886 28.0072   7
  12  -2 -12 93.8831 26.4396   2
  12   2 -12 55.6088 26.4287   2
 -12   2  12 79.3740 28.6384   7
  10  -2 -12 164.789 30.7593   2
 -10  -2  12 179.909 34.6838   7
  10   2 -12 146.051 30.2635   2
 -10   2  12 187.066 36.3715   7
   8  -2 -12 257.846 35.4267   2
  -8  -2  12 242.037 35.6205   7
  -8  -2  12 156.212 38.9999   4
  -8   2  12 208.944 34.7339   7
   8   2 -12 190.134 30.7050   2
  -6  -2  12 163.182 31.2997   7
   6  -2 -12 140.052 28.5236   2
  -6  -2  12 164.733 35.6228   4
   6   2 -12 191.528 30.3579   2
  -6   2  12 161.609 33.4990   7
  -4  -2  12 206.531 32.9105   7
  -4  -2  12 222.073 36.3165   4
   4  -2 -12 165.636 27.5588   2
  -4   2  12 169.100 31.6653   7
   4   2 -12 167.848 29.2092   2
   2  -2 -12 128.882 24.3137   2
  -2  -2  12 104.061 25.1071   7
  -2  -2  12 203.467 34.9973   4
  -2   2  12 127.922 28.2356   7
   2   2 -12 143.682 27.6125   2
   0  -2 -12 179.563 27.8452   2
   0  -2  12 234.989 36.6845   4
   0  -2  12 144.819 26.0776   7
   0   2 -12 162.386 29.2546   2
   0   2 -12 205.801 28.6202   6
   0   2  12 150.129 27.9172   7
   2  -2  12 146.433 24.7311   7
  -2  -2 -12 166.139 32.5574   6
  -2  -2 -12 127.419 23.6913   2
  -2   2 -12 166.432 31.2806   2
  -2   2 -12 152.082 29.3187   6
   2   2  12 148.415 28.8110   7
   4  -2  12 113.685 24.3505   7
  -4  -2 -12 177.164 34.1450   6
  -4  -2 -12 201.362 27.4852   2
  -4   2 -12 134.618 30.3204   2
  -4   2 -12 122.023 28.2189   6
  -6  -2 -12 94.6636 22.9643   2
  -6  -2 -12 48.6292 27.1265   6
  -6   2 -12 116.660 28.4303   2
  -6   2 -12 66.3124 27.6797   6
  -8  -2 -12 75.7811 28.6794   6
  -8   2 -12 83.0995 29.9433   2
  -8   2 -12 84.2877 29.6720   6
  13  -3 -12 91.7851 27.2866   2
 -13  -3  12 38.0963 27.0094   7
 -13   3  12 104.071 34.7590   7
  13   3 -12 117.692 29.9059   2
  11  -3 -12 46.9236 24.4089   2
 -11  -3  12 91.0350 29.0848   7
  11   3 -12 48.7354 25.0820   2
 -11   3  12 41.0388 27.4636   7
  -9  -3  12 154.539 32.1296   7
  -9  -3  12 71.8848 39.3340   4
   9  -3 -12 188.074 31.7807   2
   9   3 -12 149.001 30.5233   2
  -9   3  12 53.6502 25.9745   7
   7  -3 -12 97.9305 26.1706   2
  -7  -3  12 84.0650 27.9051   7
  -7  -3  12 27.9960 35.1552   4
   7   3 -12 83.3905 24.2127   2
  -7   3  12 66.7794 30.1182   7
   5  -3 -12 62.2612 22.8614   2
  -5  -3  12 94.6043 27.1959   7
  -5  -3  12 127.899 36.5578   4
  -5   3  12 77.6359 26.4945   7
   5   3 -12 82.1016 24.6778   2
  -3  -3  12 57.0291 29.4455   4
   3  -3 -12 32.8737 19.8439   2
  -3  -3  12 73.7199 24.0509   7
  -3   3  12 75.5637 26.0115   7
   3   3 -12 144.675 28.1412   2
  -1  -3  12 141.533 34.9141   4
  -1  -3  12 118.020 25.8795   7
   1  -3 -12 91.6889 22.7049   2
  -1   3  12 37.9091 24.1122   7
   1   3 -12 84.0767 25.4800   2
  -1  -3 -12 84.0879 21.0878   2
   1  -3  12 86.1837 22.4022   7
   1  -3  12 82.9779 31.2051   4
   1   3  12 68.4176 26.5061   7
  -1   3 -12 89.7034 25.9255   2
  -1   3 -12 100.088 24.6931   6
   3  -3  12 139.361 23.4473   7
  -3  -3 -12 127.270 23.8436   2
  -3  -3 -12 150.762 31.3652   6
  -3   3 -12 132.267 27.4969   6
  -3   3 -12 144.905 29.7144   2
  -5  -3 -12 63.7522 28.7376   6
  -5  -3 -12 85.6283 20.1649   2
  -5   3 -12 79.7393 26.0223   6
  -5   3 -12 60.6704 27.4755   2
  -7  -3 -12 9.73832 26.1579   6
  -7   3 -12 41.4047 28.2679   2
  -7   3 -12 78.6303 28.7446   6
  -9  -3 -12 32.1498 28.7952   6
  -9   3 -12 74.2449 29.8549   6
 -12  -4  12 -102.71 38.6202   4
  12  -4 -12 54.6592 26.1457   2
 -12  -4  12 106.260 30.2859   7
  12   4 -12 22.2340 24.7253   2
 -12   4  12 -5.8085 25.8042   7
 -10  -4  12 73.3945 27.6514   7
 -10  -4  12 -76.188 35.5410   4
  10  -4 -12 5.84192 21.8878   2
  10   4 -12 39.0618 23.2135   2
 -10   4  12 51.7187 29.2847   7
  -8  -4  12 49.7963 25.5420   7
  -8  -4  12 -30.790 36.1423   4
   8  -4 -12 48.6155 21.9229   2
   8   4 -12 50.7444 25.2033   2
  -8   4  12 3.56797 25.3954   7
   6  -4 -12 52.6739 22.1955   2
  -6  -4  12 32.5402 22.0807   7
  -6  -4  12 -1.2374 35.6299   4
  -6   4  12 55.8744 28.2179   7
   6   4 -12 30.7447 20.9391   2
  -4  -4  12 75.9812 36.4733   4
   4  -4 -12 38.5808 20.5772   2
  -4  -4  12 -4.7415 18.4269   7
  -4   4  12 -2.2157 23.7596   7
   4   4 -12 13.3821 20.1114   2
   2  -4 -12 96.0064 23.6290   2
  -2  -4  12 111.502 25.4161   7
  -2  -4  12 98.3002 36.3034   4
   2   4 -12 145.225 30.0659   2
  -2   4  12 51.9906 27.9532   7
   0  -4  12 15.9200 18.6802   7
   0  -4  12 74.5800 32.4881   4
   0  -4 -12 45.3051 20.1240   2
   0   4 -12 42.2627 18.9407   6
   0   4 -12 38.7629 25.2657   2
   2  -4  12 110.555 35.0581   4
  -2  -4 -12 71.9299 20.4678   2
   2  -4  12 89.0763 22.5760   7
  -2   4 -12 66.6279 22.5355   6
  -2   4 -12 56.7265 24.6775   2
  -4  -4 -12 49.0802 26.2316   6
  -4   4 -12 33.7744 21.9216   6
  -4   4 -12 37.9341 27.2278   2
  -6  -4 -12 11.7615 23.4492   6
  -6   4 -12 38.1110 24.0084   6
  -6   4 -12 2.10587 24.1631   2
  -8  -4 -12 20.3290 27.3858   6
  -8   4 -12 59.6326 27.7057   6
  11  -5 -12 39.8882 24.6114   2
 -11   5  12 -1.1946 28.6827   7
  11   5 -12 39.8259 24.9441   2
   9  -5 -12 16.7212 20.6580   2
  -9  -5  12 -110.40 34.9540   4
   9   5 -12 36.9332 23.5087   2
  -9   5  12 -35.811 23.8217   7
   9   5 -12 20.6904 24.9644   5
  -7  -5  12 -67.172 36.0723   4
   7  -5 -12 -2.0532 17.9332   2
   7   5 -12 7.79502 20.5886   2
  -7   5  12 -31.410 25.9035   7
   7   5 -12 44.7998 23.1949   5
   5  -5 -12 -2.0542 18.7471   2
  -5  -5  12 -66.382 35.5973   4
   5   5 -12 10.6727 21.3577   2
   5   5 -12 -6.3603 20.6282   5
  -5   5  12 -38.653 23.5079   7
   3  -5 -12 22.0736 18.2604   2
  -3  -5  12 -16.531 29.8570   4
   3   5 -12 -0.0200 20.0770   5
   3   5 -12 25.4178 21.6947   2
   1  -5 -12 8.77983 17.4259   2
  -1  -5  12 30.0528 33.6720   4
   1   5 -12 2.08135 21.8915   2
   1  -5  12 56.3474 32.7713   4
  -1   5 -12 27.5330 23.5585   2
   3  -5  12 28.5594 18.0273   7
   3  -5  12 71.6899 33.5684   4
  -3   5 -12 44.6950 23.9529   6
  -3   5 -12 -23.925 22.6893   2
  -5  -5 -12 6.44295 26.4617   6
  -5   5 -12 -2.8001 19.2283   6
  -5   5 -12 -19.711 27.1268   2
  -7  -5 -12 -10.747 25.6395   6
  -7   5 -12 17.2582 24.7027   6
   8  -6 -12 -24.904 20.6857   2
   8   6 -12 -15.361 20.9732   2
   8   6 -12 -24.460 18.9196   5
   6  -6 -12 -0.2933 19.1348   2
  -6  -6  12 -108.18 36.2325   4
   6   6 -12 -33.174 19.3757   5
   6   6 -12 11.6232 22.8135   2
  -4  -6  12 -12.794 38.9070   4
   4  -6 -12 -20.653 16.6613   2
   4   6 -12 14.1567 21.0484   5
   4   6 -12 38.2805 25.2322   2
   2  -6 -12 34.9240 19.7868   2
  -2  -6  12 -8.3520 38.1031   4
   2   6 -12 14.7405 19.6619   5
   2   6 -12 5.89504 21.3325   2
   0  -6  12 12.2621 31.6857   4
   0   6 -12 -2.1452 21.7480   2
   2  -6  12 67.3073 34.1784   4
  -2   6 -12 -4.3462 21.3418   2
   4  -6  12 48.4759 34.5557   4
  -4   6 -12 -17.984 22.5501   2
  -7  -7  12 -127.45 42.3633   4
   7   7 -12 27.5640 25.4632   2
   7   7 -12 -11.547 22.0956   5
  -5  -7  12 -115.13 38.1686   4
   5   7 -12 24.1482 23.4714   5
   5   7 -12 1.83598 24.2008   2
  -3  -7  12 -2.6314 43.4612   4
   3   7 -12 38.6456 23.6670   5
   3   7 -12 8.98168 22.6394   2
  -1  -7  12 17.7915 40.3146   4
   1   7 -12 -27.371 22.7847   2
   1   7 -12 -6.4229 20.7173   5
   1  -7  12 56.7178 35.8155   4
  -1   7 -12 -8.3573 24.8060   2
   3  -7  12 57.5898 36.1772   4
 -10   0  13 2.67585 24.0932   7
  10   0 -13 -6.9769 19.4542   2
  -8   0  13 -31.541 20.7023   7
   8   0 -13 29.1768 21.7206   2
  -6   0  13 9.25774 23.4331   7
   6   0 -13 9.19585 19.8784   2
   4   0 -13 -2.7466 17.5827   2
  -4   0  13 -0.9515 20.4774   7
   2   0 -13 -26.613 18.7500   2
  -2   0  13 9.29680 20.7841   7
   0   0  13 -3.0840 20.8566   7
   0   0 -13 7.64854 20.3285   2
  -2   0 -13 -16.400 18.8727   2
   2   0  13 -16.337 18.3982   7
  -2   0 -13 -17.822 22.2575   6
  -4   0 -13 4.46588 20.7807   2
  -4   0 -13 11.0332 25.0739   6
  -6   0 -13 5.47129 24.2633   6
  -6   0 -13 14.1337 20.3268   2
 -11  -1  13 16.8821 24.8665   7
  11  -1 -13 37.8983 24.6632   2
  11   1 -13 -9.9501 22.1303   2
 -11   1  13 3.99951 26.1268   7
   9  -1 -13 22.1172 24.2627   2
  -9  -1  13 -11.576 22.3774   7
   9   1 -13 29.6238 22.9072   2
  -9   1  13 5.45564 24.2569   7
   7  -1 -13 -19.528 18.9160   2
  -7  -1  13 15.3220 23.8462   7
  -7   1  13 7.11192 23.8016   7
   7   1 -13 21.8261 23.0211   2
   5  -1 -13 10.0565 21.6493   2
  -5  -1  13 47.2568 25.4621   7
  -5   1  13 8.75438 23.2571   7
   5   1 -13 29.7175 22.5095   2
  -3  -1  13 -0.8341 21.7539   7
   3  -1 -13 1.53781 19.4196   2
   3   1 -13 31.0347 23.5244   2
  -3   1  13 6.99009 22.7175   7
  -1  -1  13 49.2576 22.3475   7
   1  -1 -13 21.1948 21.4369   2
  -1   1  13 31.7130 22.9663   7
   1   1 -13 22.6698 20.6807   2
   1  -1  13 -25.741 16.6278   7
  -1  -1 -13 21.2716 20.1029   2
  -1   1 -13 20.1739 22.6761   2
   1   1  13 -5.0593 20.8415   7
  -1   1 -13 20.7653 21.3767   6
  -3  -1 -13 20.4418 20.9585   2
  -3  -1 -13 19.2532 25.3239   6
  -3   1 -13 37.5934 24.1615   6
  -3   1 -13 -4.1634 20.8622   2
  -5  -1 -13 -2.4213 24.6762   6
  -5  -1 -13 -20.050 18.5548   2
  -5   1 -13 -31.554 22.4508   6
  -5   1 -13 -3.9994 21.1478   2
  10  -2 -13 59.1381 25.9719   2
 -10  -2  13 31.7529 26.3253   7
 -10   2  13 49.1189 27.9395   7
  10   2 -13 73.2759 27.5282   2
  -8  -2  13 8.84600 21.3142   7
   8  -2 -13 25.2884 23.5181   2
   8   2 -13 28.9706 22.7636   2
  -8   2  13 45.6492 27.9432   7
   6  -2 -13 28.7900 20.1303   2
  -6  -2  13 40.6697 22.8038   7
  -6   2  13 25.1955 25.1805   7
   6   2 -13 43.8022 23.9813   2
  -4  -2  13 110.741 30.2452   4
  -4  -2  13 38.2604 22.8390   7
   4  -2 -13 39.9892 22.2856   2
   4   2 -13 55.2755 25.4002   2
  -4   2  13 52.0608 24.7492   7
  -2  -2  13 32.5109 21.5470   7
   2  -2 -13 52.7336 21.4862   2
  -2   2  13 40.2637 25.6843   7
   2   2 -13 60.6468 26.0222   2
   0  -2  13 54.4684 22.9861   7
   0  -2 -13 48.6538 21.6301   2
   0   2 -13 44.2276 26.1735   2
   0   2  13 20.4672 22.8209   7
  -2  -2 -13 34.2016 19.4906   2
  -2  -2 -13 33.7963 25.4150   6
   2  -2  13 37.7368 21.3957   7
   2   2  13 24.1229 24.0011   7
  -2   2 -13 11.6683 22.3037   6
  -2   2 -13 19.8498 23.2292   2
  -4  -2 -13 54.4002 27.0432   6
  -4  -2 -13 54.7510 20.8891   2
  -4   2 -13 71.2945 27.7400   6
  -4   2 -13 17.1702 23.6296   2
  -6  -2 -13 15.0066 27.5610   6
  -6   2 -13 14.8771 22.8772   2
  -6   2 -13 69.0682 28.3695   6
  -9  -3  13 51.8617 27.7999   7
   9  -3 -13 67.6192 25.0759   2
  -9   3  13 76.8595 31.8521   7
   9   3 -13 81.2835 28.8517   2
   7  -3 -13 115.798 26.9066   2
  -7  -3  13 98.3131 27.8180   7
  -7  -3  13 65.2012 37.0823   4
  -7   3  13 95.2023 32.3171   7
   7   3 -13 65.2477 24.8101   2
  -5  -3  13 47.9219 24.3848   7
  -5  -3  13 56.0174 32.7068   4
   5  -3 -13 92.8743 26.5460   2
   5   3 -13 65.5573 27.6463   2
  -5   3  13 70.6667 27.7447   7
  -3  -3  13 192.433 37.8470   4
  -3  -3  13 122.661 29.6698   7
   3  -3 -13 54.8255 23.0693   2
   3   3 -13 85.8993 28.1030   2
  -3   3  13 82.6158 28.2692   7
   1  -3 -13 55.5510 22.5641   2
  -1  -3  13 48.9860 22.8184   7
   1   3 -13 74.7061 26.4270   2
  -1   3  13 -2.3867 24.4903   7
   1  -3  13 127.786 25.6948   7
  -1  -3 -13 192.171 28.1445   2
  -1   3 -13 122.257 29.4476   2
  -1   3 -13 109.859 25.7303   6
  -3  -3 -13 102.039 29.7909   6
  -3  -3 -13 95.3236 22.8295   2
  -3   3 -13 107.427 30.1029   2
  -3   3 -13 104.197 27.3522   6
  -5  -3 -13 93.9270 30.8249   6
  -5   3 -13 114.356 29.5731   6
  -5   3 -13 53.4448 26.7966   2
  -8  -4  13 126.439 30.6537   7
   8  -4 -13 116.222 28.2023   2
  -8  -4  13 -29.042 42.7391   4
  -8   4  13 159.552 38.6056   7
   8   4 -13 148.847 30.6035   2
  -6  -4  13 106.636 29.5309   7
  -6  -4  13 27.3946 39.4238   4
   6  -4 -13 92.2045 25.9868   2
  -6   4  13 75.5475 31.4814   7
   6   4 -13 102.651 29.9795   2
  -4  -4  13 120.874 28.6011   7
   4  -4 -13 193.931 30.4185   2
  -4  -4  13 107.516 39.6116   4
  -4   4  13 103.098 34.7340   7
   4   4 -13 152.898 30.0124   2
  -2  -4  13 138.123 29.2567   7
  -2  -4  13 95.7545 35.8047   4
   2  -4 -13 95.9942 24.9684   2
   2   4 -13 133.147 31.4349   2
  -2   4  13 65.7655 32.5317   7
   0  -4 -13 134.191 27.2469   2
   0  -4  13 125.389 27.9527   7
   0  -4  13 172.005 39.7076   4
   0   4 -13 123.484 28.9485   2
   2  -4  13 142.976 28.5801   7
  -2   4 -13 116.314 31.5001   2
  -2   4 -13 117.176 28.2623   6
  -4  -4 -13 123.303 33.3380   6
  -4   4 -13 97.2086 31.1735   2
  -4   4 -13 90.7024 27.1920   6
  -7  -5  13 121.890 29.0679   7
  -7  -5  13 -37.821 42.9826   4
  -7   5  13 46.2831 35.2373   7
  -5  -5  13 89.7500 44.0307   4
  -5  -5  13 116.958 29.1256   7
   5  -5 -13 121.004 26.9437   2
   5   5 -13 143.335 31.9815   2
  -3  -5  13 116.964 40.6439   4
   3  -5 -13 172.294 28.6788   2
  -3  -5  13 124.336 28.1675   7
   3   5 -13 141.197 32.4575   2
  -1  -5  13 169.316 40.8972   4
  -1  -5  13 163.757 29.9244   7
   1   5 -13 153.455 31.2963   2
   1  -5  13 78.6237 23.7818   7
   1  -5  13 123.600 38.9629   4
  -1   5 -13 79.4006 27.4764   2
  -6   0  14 64.6492 28.5516   7
   6   0 -14 68.4045 26.9193   2
   4   0 -14 193.111 33.1336   2
  -4   0  14 178.867 34.2319   7
  -2   0  14 107.079 30.3101   7
   2   0 -14 123.537 29.7277   2
   0   0  14 166.217 31.5230   7
   0   0 -14 154.498 29.8876   2
  -5  -1  14 77.1242 28.1862   7
   5  -1 -14 130.876 28.2293   2
  -5   1  14 63.3001 30.4281   7
   5   1 -14 128.579 30.0328   2
  -3  -1  14 183.979 33.5247   7
   3  -1 -14 116.302 28.9874   2
  -3   1  14 124.439 31.2994   7
   3   1 -14 150.848 31.8102   2
  -1  -1  14 82.4744 25.8719   7
   1  -1 -14 104.971 27.1524   2
   1   1 -14 151.138 31.7668   2
  -1   1  14 61.9058 27.1882   7
   1  -1  14 31.8781 36.8307   7
  -1  -1 -14 82.1213 25.8702   2
   1   1  14 63.3844 26.8236   7
  -1   1 -14 134.597 29.9259   2
   4  -2 -14 100.503 28.1129   2
  -4  -2  14 36.8524 25.0539   7
  -4   2  14 1.99966 24.4219   7
   4   2 -14 63.2653 26.8809   2
  -2  -2  14 136.194 30.7535   7
   2  -2 -14 85.0278 25.4604   2
   2   2 -14 184.577 34.0842   2
  -2   2  14 84.1198 30.7843   7
   0  -2 -14 81.9754 24.4692   2
   0  -2  14 66.7628 24.9791   7
   0   2  14 35.1906 26.5168   7
   0   2 -14 44.4018 25.8822   2
   0   0   0    0.00    0.00   0

 _exptl_absorpt_process_details 'SADABS 2014/4'
 _exptl_absorpt_correction_type   multiscan
 _exptl_absorpt_correction_T_max  0.7457
 _exptl_absorpt_correction_T_min  0.6472
 _exptl_special_details
)
 The following wavelength and cell were deduced by SADABS from the
 direction cosines etc. They are given here for emergency use only:
 CELL 0.71075   17.220   10.677   10.690   89.955   96.090   89.969
)

;
_shelx_hkl_checksum              50582
loop_
_space_group_symop_operation_xyz
'x, y, z'
'-x, y, -z+1/2'
'x+1/2, y+1/2, z'
'-x+1/2, y+1/2, -z+1/2'
'-x, -y, -z'
'x, -y, z-1/2'
'-x+1/2, -y+1/2, -z'
'x+1/2, -y+1/2, z-1/2'
loop_
_atom_site_label
_atom_site_type_symbol
_atom_site_fract_x
_atom_site_fract_y
_atom_site_fract_z
_atom_site_U_iso_or_equiv
_atom_site_adp_type
_atom_site_occupancy
_atom_site_site_symmetry_order
_atom_site_calc_flag
_atom_site_refinement_flags_posn
_atom_site_refinement_flags_adp
_atom_site_refinement_flags_occupancy
_atom_site_disorder_assembly
_atom_site_disorder_group
Eu1 Eu 0.5000 0.54320(3) 0.2500 0.03127(11) Uani 1 2 d S T P . .
O1 O 0.4152(2) 0.5801(4) 0.3975(3) 0.0663(11) Uani 1 1 d . . . . .
O2 O 0.4043(2) 0.5244(3) 0.5930(3) 0.0512(9) Uani 1 1 d . . . . .
O11 O 0.4575(3) 0.3286(4) 0.3159(4) 0.0814(13) Uani 1 1 d . . . . .
O12 O 0.5000 0.1540(7) 0.2500 0.199(6) Uani 1 2 d S T P . .
O21 O 0.4321(2) 0.7288(4) 0.1628(3) 0.0668(10) Uani 1 1 d . . . . .
N11 N 0.5000 0.2680(7) 0.2500 0.097(3) Uani 1 2 d S T P . .
C1 C 0.3836(2) 0.5856(4) 0.4967(4) 0.0380(10) Uani 1 1 d . . . . .
C2 C 0.3144(2) 0.6716(4) 0.4985(4) 0.0341(9) Uani 1 1 d . . . . .
C3 C 0.2802(3) 0.6892(4) 0.6088(4) 0.0414(10) Uani 1 1 d . . . . .
H3 H 0.3003 0.6486 0.6820 0.050 Uiso 1 1 calc R U . . .
C4 C 0.2158(2) 0.7672(5) 0.6106(4) 0.0426(11) Uani 1 1 d . . . . .
H4 H 0.1929 0.7784 0.6848 0.051 Uiso 1 1 calc R U . . .
N21' N 0.3641(6) 0.8645(11) 0.0386(10) 0.091(4) Uani 0.65 1 d D . P A 1
C21' C 0.4003(6) 0.7573(9) 0.0664(8) 0.071(3) Uani 0.65 1 d D . P A 1
H21' H 0.4001 0.6993 0.0018 0.085 Uiso 0.65 1 calc R U P A 1
C22' C 0.3517(9) 0.9587(12) 0.1256(14) 0.113(5) Uiso 0.65 1 d D . P A 1
H22A H 0.3088 0.9359 0.1716 0.169 Uiso 0.65 1 calc R U P A 1
H22B H 0.3397 1.0355 0.0816 0.169 Uiso 0.65 1 calc R U P A 1
H22C H 0.3980 0.9692 0.1831 0.169 Uiso 0.65 1 calc R U P A 1
C23' C 0.3193(9) 0.8808(18) -0.0911(14) 0.139(5) Uiso 0.65 1 d D . P A 1
H23A H 0.3476 0.9363 -0.1402 0.208 Uiso 0.65 1 calc R U P A 1
H23B H 0.2686 0.9149 -0.0825 0.208 Uiso 0.65 1 calc R U P A 1
H23C H 0.3136 0.8014 -0.1323 0.208 Uiso 0.65 1 calc R U P A 1
N21 N 0.4100(11) 0.9061(18) 0.043(2) 0.091(4) Uani 0.35 1 d D . P A 2
C21 C 0.4527(12) 0.8211(17) 0.1079(18) 0.078(6) Uani 0.35 1 d D . P A 2
H21 H 0.5065 0.8334 0.1129 0.094 Uiso 0.35 1 calc R U P A 2
C22 C 0.4282(18) 1.018(2) -0.007(3) 0.149(12) Uiso 0.35 1 d D . P A 2
H22D H 0.4093 1.0838 0.0420 0.223 Uiso 0.35 1 calc R U P A 2
H22E H 0.4042 1.0234 -0.0922 0.223 Uiso 0.35 1 calc R U P A 2
H22F H 0.4839 1.0244 -0.0061 0.223 Uiso 0.35 1 calc R U P A 2
C23 C 0.3225(14) 0.867(3) 0.033(4) 0.150 Uiso 0.35 1 d D U P A 2
H23D H 0.2943 0.9249 0.0797 0.225 Uiso 0.35 1 calc R U P A 2
H23E H 0.3183 0.7850 0.0666 0.225 Uiso 0.35 1 calc R U P A 2
H23F H 0.3010 0.8681 -0.0539 0.225 Uiso 0.35 1 calc R U P A 2
loop_
_atom_site_aniso_label
_atom_site_aniso_U_11
_atom_site_aniso_U_22
_atom_site_aniso_U_33
_atom_site_aniso_U_23
_atom_site_aniso_U_13
_atom_site_aniso_U_12
Eu1 0.03186(16) 0.03462(17) 0.02795(16) 0.000 0.00604(10) 0.000
O1 0.058(2) 0.098(3) 0.0464(19) 0.0099(19) 0.0251(17) 0.042(2)
O2 0.0464(18) 0.062(2) 0.0450(19) 0.0107(16) 0.0034(15) 0.0230(16)
O11 0.098(3) 0.061(3) 0.085(3) 0.024(2) 0.009(3) -0.024(2)
O12 0.311(16) 0.034(4) 0.243(13) 0.000 -0.013(12) 0.000
O21 0.082(3) 0.055(2) 0.057(2) 0.0150(19) -0.019(2) 0.006(2)
N11 0.149(9) 0.032(4) 0.101(7) 0.000 -0.021(6) 0.000
C1 0.033(2) 0.043(2) 0.039(2) -0.006(2) 0.0066(18) 0.0065(18)
C2 0.0303(19) 0.037(2) 0.035(2) 0.0015(18) 0.0070(16) 0.0070(17)
C3 0.044(2) 0.054(3) 0.0266(19) 0.0090(19) 0.0065(17) 0.015(2)
C4 0.041(2) 0.059(3) 0.030(2) 0.003(2) 0.0119(18) 0.018(2)
N21' 0.108(9) 0.100(8) 0.068(4) 0.031(5) 0.028(8) 0.061(8)
C21' 0.102(8) 0.069(6) 0.042(5) 0.003(4) 0.006(5) 0.054(6)
N21 0.108(9) 0.100(8) 0.068(4) 0.031(5) 0.028(8) 0.061(8)
C21 0.091(14) 0.063(12) 0.074(12) 0.017(10) -0.027(11) 0.007(10)
loop_
_atom_type_symbol
_atom_type_description
_atom_type_scat_dispersion_real
_atom_type_scat_dispersion_imag
_atom_type_scat_source
C C 0.0033 0.0016 'International Tables Vol C Tables 4.2.6.8 and 6.1.1.4'
H H 0.0000 0.0000 'International Tables Vol C Tables 4.2.6.8 and 6.1.1.4'
N N 0.0061 0.0033 'International Tables Vol C Tables 4.2.6.8 and 6.1.1.4'
O O 0.0106 0.0060 'International Tables Vol C Tables 4.2.6.8 and 6.1.1.4'
Eu Eu -0.1578 3.6682 'International Tables Vol C Tables 4.2.6.8 and 6.1.1.4'
loop_
_geom_angle_atom_site_label_1
_geom_angle_atom_site_label_2
_geom_angle_atom_site_label_3
_geom_angle
_geom_angle_site_symmetry_1
_geom_angle_site_symmetry_3
O1 Eu1 O1 160.1(2) . 2_655
O1 Eu1 O2 95.51(14) . 6_565
O1 Eu1 O2 90.65(12) 2_655 6_565
O1 Eu1 O2 90.65(12) . 5_666
O1 Eu1 O2 95.51(14) 2_655 5_666
O2 Eu1 O2 143.80(18) 6_565 5_666
O1 Eu1 O21 78.92(13) . .
O1 Eu1 O21 84.86(16) 2_655 .
O2 Eu1 O21 73.03(12) 6_565 .
O2 Eu1 O21 142.99(13) 5_666 .
O1 Eu1 O21 84.85(16) . 2_655
O1 Eu1 O21 78.92(14) 2_655 2_655
O2 Eu1 O21 142.99(13) 6_565 2_655
O2 Eu1 O21 73.03(13) 5_666 2_655
O21 Eu1 O21 70.74(19) . 2_655
O1 Eu1 O11 124.77(16) . 2_655
O1 Eu1 O11 75.13(16) 2_655 2_655
O2 Eu1 O11 73.78(14) 6_565 2_655
O2 Eu1 O11 73.47(14) 5_666 2_655
O21 Eu1 O11 140.74(14) . 2_655
O21 Eu1 O11 134.88(15) 2_655 2_655
O1 Eu1 O11 75.13(16) . .
O1 Eu1 O11 124.77(16) 2_655 .
O2 Eu1 O11 73.47(14) 6_565 .
O2 Eu1 O11 73.78(14) 5_666 .
O21 Eu1 O11 134.88(15) . .
O21 Eu1 O11 140.74(14) 2_655 .
O11 Eu1 O11 49.7(2) 2_655 .
O1 Eu1 N11 99.95(11) . .
O1 Eu1 N11 99.95(11) 2_655 .
O2 Eu1 N11 71.90(9) 6_565 .
O2 Eu1 N11 71.90(9) 5_666 .
O21 Eu1 N11 144.63(9) . .
O21 Eu1 N11 144.63(9) 2_655 .
O11 Eu1 N11 24.85(11) 2_655 .
O11 Eu1 N11 24.85(11) . .
C1 O1 Eu1 164.2(3) . .
C1 O2 Eu1 151.3(3) . 5_666
N11 O11 Eu1 96.5(4) . .
C21' O21 Eu1 135.9(5) . .
C21 O21 Eu1 133.8(9) . .
O12 N11 O11 121.4(3) . 2_655
O12 N11 O11 121.3(3) . .
O11 N11 O11 117.3(7) 2_655 .
O12 N11 Eu1 180.0 . .
O11 N11 Eu1 58.6(3) 2_655 .
O11 N11 Eu1 58.7(3) . .
O2 C1 O1 124.7(4) . .
O2 C1 C2 118.0(4) . .
O1 C1 C2 117.2(4) . .
C3 C2 C4 119.6(4) . 7_566
C3 C2 C1 120.2(4) . .
C4 C2 C1 120.2(4) 7_566 .
C2 C3 C4 120.4(4) . .
C2 C4 C3 120.0(4) 7_566 .
C21' N21' C22' 125.2(10) . .
C21' N21' C23' 118.9(12) . .
C22' N21' C23' 115.0(10) . .
O21 C21' N21' 126.6(10) . .
C21 N21 C22 133(2) . .
C21 N21 C23 109(2) . .
C22 N21 C23 118.1(19) . .
O21 C21 N21 129.7(19) . .
loop_
_geom_bond_atom_site_label_1
_geom_bond_atom_site_label_2
_geom_bond_distance
_geom_bond_site_symmetry_2
Eu1 O1 2.293(3) .
Eu1 O1 2.293(3) 2_655
Eu1 O2 2.337(3) 6_565
Eu1 O2 2.337(3) 5_666
Eu1 O21 2.444(4) .
Eu1 O21 2.444(4) 2_655
Eu1 O11 2.540(4) 2_655
Eu1 O11 2.540(4) .
Eu1 N11 2.955(7) .
O1 C1 1.243(5) .
O2 C1 1.240(6) .
O2 Eu1 2.337(3) 5_666
O11 N11 1.250(5) .
O12 N11 1.224(10) .
O21 C21' 1.153(9) .
O21 C21 1.223(19) .
N11 O11 1.250(6) 2_655
C1 C2 1.508(5) .
C2 C3 1.386(6) .
C2 C4 1.390(6) 7_566
C3 C4 1.390(6) .
C4 C2 1.390(6) 7_566
N21' C21' 1.328(10) .
N21' C22' 1.406(16) .
N21' C23' 1.521(16) .
N21 C21 1.322(15) .
N21 C22 1.36(2) .
N21 C23 1.55(2) .
