#------------------------------------------------------------------------------
#$Date: 2019-11-22 23:48:45 +0200 (Fri, 22 Nov 2019) $
#$Revision: 231596 $
#$URL: file:///home/coder/svn-repositories/cod/cif/4/34/60/4346048.cif $
#------------------------------------------------------------------------------
#
# This file is available in the Crystallography Open Database (COD),
# http://www.crystallography.net/
#
# All data on this site have been placed in the public domain by the
# contributors.
#
data_4346048
loop_
_publ_author_name
'Gonzalez, Miguel I.'
'Bloch, Eric D.'
'Mason, Jarad A.'
'Teat, Simon J.'
'Long, Jeffrey R.'
_publ_section_title
;
 Single-crystal-to-single-crystal metalation of a metal-organic framework:
 a route toward structurally well-defined catalysts.
;
_journal_issue                   6
_journal_name_full               'Inorganic chemistry'
_journal_page_first              2995
_journal_page_last               3005
_journal_paper_doi               10.1021/acs.inorgchem.5b00096
_journal_volume                  54
_journal_year                    2015
_chemical_formula_sum            'C22 H24 B F4 Ir N2 O4'
_chemical_formula_weight         659.44
_chemical_name_common            '[Ir(dmbpydc)(COD)]BF4'
_space_group_crystal_system      monoclinic
_space_group_IT_number           15
_space_group_name_Hall           '-C 2yc'
_space_group_name_H-M_alt        'C 1 2/c 1'
_atom_sites_solution_hydrogens   geom
_atom_sites_solution_primary     direct
_atom_sites_solution_secondary   difmap
_audit_creation_method           SHELXL-2014/4
_cell_angle_alpha                90
_cell_angle_beta                 97.6110(10)
_cell_angle_gamma                90
_cell_formula_units_Z            8
_cell_length_a                   25.624(3)
_cell_length_b                   11.6022(11)
_cell_length_c                   14.5330(14)
_cell_measurement_reflns_used    9299
_cell_measurement_temperature    100(2)
_cell_measurement_theta_max      33.578
_cell_measurement_theta_min      3.249
_cell_volume                     4282.5(8)
_computing_cell_refinement       'Bruker SAINT v8.18c'
_computing_data_collection       'Bruker APEX 2'
_computing_data_reduction        'Bruker SAINT v8.18c'
_computing_molecular_graphics    'Olex2 (Dolomanov et al., 2009)'
_computing_publication_material  'Olex2 (Dolomanov et al., 2009)'
_computing_structure_refinement  'SHELXL-2014 (Sheldrick, 2014)'
_computing_structure_solution    SHELXS-2014
_diffrn_ambient_temperature      100(2)
_diffrn_measured_fraction_theta_full 0.995
_diffrn_measured_fraction_theta_max 0.996
_diffrn_measurement_device_type  'Bruker APEX II CCD diffractometer'
_diffrn_measurement_method       '\w/\q scans'
_diffrn_radiation_type           synchrotron
_diffrn_radiation_wavelength     0.7749
_diffrn_reflns_av_R_equivalents  0.0537
_diffrn_reflns_av_unetI/netI     0.0456
_diffrn_reflns_Laue_measured_fraction_full 0.995
_diffrn_reflns_Laue_measured_fraction_max 0.996
_diffrn_reflns_limit_h_max       36
_diffrn_reflns_limit_h_min       -36
_diffrn_reflns_limit_k_max       16
_diffrn_reflns_limit_k_min       -16
_diffrn_reflns_limit_l_max       20
_diffrn_reflns_limit_l_min       -20
_diffrn_reflns_number            30133
_diffrn_reflns_point_group_measured_fraction_full 0.995
_diffrn_reflns_point_group_measured_fraction_max 0.996
_diffrn_reflns_theta_full        27.706
_diffrn_reflns_theta_max         33.607
_diffrn_reflns_theta_min         3.248
_diffrn_source                   'Advanced Light Source station 11.3.1'
_exptl_absorpt_coefficient_mu    7.840
_exptl_absorpt_correction_T_max  0.573
_exptl_absorpt_correction_T_min  0.449
_exptl_absorpt_correction_type   multi-scan
_exptl_absorpt_process_details   'SADABS 2008/1 Bruker AXS Madison WI USA'
_exptl_crystal_colour            green
_exptl_crystal_density_diffrn    2.046
_exptl_crystal_density_method    'not measured'
_exptl_crystal_description       block
_exptl_crystal_F_000             2560
_exptl_crystal_size_max          0.100
_exptl_crystal_size_mid          0.080
_exptl_crystal_size_min          0.080
_refine_diff_density_max         1.816
_refine_diff_density_min         -1.941
_refine_diff_density_rms         0.172
_refine_ls_extinction_method     none
_refine_ls_goodness_of_fit_ref   1.040
_refine_ls_hydrogen_treatment    constr
_refine_ls_matrix_type           full
_refine_ls_number_parameters     309
_refine_ls_number_reflns         6527
_refine_ls_number_restraints     0
_refine_ls_restrained_S_all      1.040
_refine_ls_R_factor_all          0.0297
_refine_ls_R_factor_gt           0.0282
_refine_ls_shift/su_max          0.001
_refine_ls_shift/su_mean         0.000
_refine_ls_structure_factor_coef Fsqd
_refine_ls_weighting_details
'w=1/[\s^2^(Fo^2^)+(0.0416P)^2^+5.1321P] where P=(Fo^2^+2Fc^2^)/3'
_refine_ls_weighting_scheme      calc
_refine_ls_wR_factor_gt          0.0754
_refine_ls_wR_factor_ref         0.0767
_reflns_Friedel_coverage         0.000
_reflns_number_gt                6144
_reflns_number_total             6527
_reflns_threshold_expression     'I > 2\s(I)'
_cod_data_source_file            ic5b00096_si_010.cif
_cod_data_source_block           mig052s_0m
_cod_depositor_comments
;
The following automatic conversions were performed:

data item '_atom_sites_solution_primary' value 'Direct' was changed
to 'direct' in accordance with the
/home/saulius/struct/COD-crude-data/automatic-downloads/DataCite-retrospective/ACS/depositions/lib/dictionaries/cif_core.dic
dictionary named 'cif_core.dic' version 2.4.2 last updated on
2011-04-26.

Automatic conversion script
Id: cif_fix_values 6909 2019-04-08 15:41:33Z antanas 
;
_cod_original_cell_volume        4282.5(7)
_cod_original_sg_symbol_H-M      'C 2/c'
_cod_database_code               4346048
_shelx_space_group_comment
;
The symmetry employed for this shelxl refinement is uniquely defined
by the following loop, which should always be used as a source of
symmetry information in preference to the above space-group names.
They are only intended as comments.
;
_shelx_estimated_absorpt_t_min   0.508
_shelx_estimated_absorpt_t_max   0.573
_shelxl_version_number           2014/4
_shelx_res_file
;
TITL MIG052S_0m in C2/c
CELL 0.7749 25.6236 11.6022 14.533 90 97.611 90
ZERR 8 0.0025 0.0011 0.0014 0 0.001 0
LATT 7
SYMM -X,+Y,0.5-Z

SFAC C H B F Ir N O
DISP B 0.002 0.001 7.68
DISP C 0.004 0.002 13.872
DISP F 0.022 0.013 65.454
DISP H -0 0 0.627
DISP Ir -2.065 9.135 41165.842
DISP N 0.008 0.004 24.297
DISP O 0.014 0.007 40.889
UNIT 176 192 8 32 8 16 32

L.S. 4 0 0
PLAN  20
SIZE 0.08 0.08 0.1
TEMP 23
REM reset to C2/c #15
BOND
MORE -1
CONF
fmap 2
ACTA
REM <HKL>/Users/MIG/Desktop/%20MIG052S/Final/MIG052S_0m.hkl</HKL>

WGHT    0.041600    5.132100
FVAR       0.05536
IR1   5    0.121480    0.139174    0.087437    11.00000    0.01016    0.01086 =
         0.01856   -0.00011    0.00425   -0.00001
C2    1    0.116528    0.616038    0.077391    11.00000    0.02249    0.00990 =
         0.01845   -0.00031    0.00520   -0.00099
O6    7    0.095118    0.706185    0.054605    11.00000    0.02272    0.01383 =
         0.03747    0.00461    0.00511    0.00172
C12   1    0.025868   -0.011128    0.114114    11.00000    0.01215    0.01274 =
         0.02064    0.00071    0.00308    0.00110
AFIX  43
H12   2    0.047615   -0.073557    0.106279    11.00000   -1.20000
AFIX   0
C13   1    0.200187    0.700205    0.087518    11.00000    0.01902    0.01607 =
         0.02680    0.00096    0.00501   -0.00287
AFIX 137
H13A  2    0.195763    0.721715    0.023170    11.00000   -1.50000
H13B  2    0.236484    0.681936    0.107265    11.00000   -1.50000
H13C  2    0.189726    0.763108    0.123900    11.00000   -1.50000
AFIX   0
C18   1    0.035870    0.302062    0.103390    11.00000    0.01208    0.01440 =
         0.01873    0.00135    0.00302   -0.00015
C19   1   -0.039032    0.172044    0.132972    11.00000    0.01101    0.01557 =
         0.02528   -0.00021    0.00583    0.00097
AFIX  43
H19   2   -0.060603    0.235546    0.138129    11.00000   -1.20000
AFIX   0
N20   6    0.044859    0.095568    0.106111    11.00000    0.01050    0.01254 =
         0.01776    0.00003    0.00265    0.00025
O21   7    0.168041    0.600900    0.099857    11.00000    0.01909    0.01281 =
         0.02711    0.00278    0.00430   -0.00249
N24   6    0.086792    0.300446    0.085617    11.00000    0.01327    0.01331 =
         0.02006    0.00044    0.00428    0.00110
C27   1    0.012244    0.187096    0.114321    11.00000    0.01044    0.01249 =
         0.01878   -0.00045    0.00227    0.00038
C31   1    0.009091    0.404594    0.111998    11.00000    0.01293    0.01648 =
         0.02237   -0.00038    0.00332    0.00195
AFIX  43
H31   2   -0.025606    0.404077    0.124341    11.00000   -1.20000
AFIX   0
C33   1    0.035011    0.508050    0.101858    11.00000    0.01602    0.01253 =
         0.02305   -0.00085    0.00329    0.00086
AFIX  43
H33   2    0.017578    0.577806    0.105892    11.00000   -1.20000
AFIX   0
C34   1    0.087268    0.506294    0.085620    11.00000    0.01655    0.01257 =
         0.01907    0.00120    0.00230    0.00039
O3    7   -0.084818   -0.165258    0.182776    11.00000    0.01756    0.01674 =
         0.02859    0.00323    0.00955   -0.00410
O1    7   -0.015117   -0.234610    0.121333    11.00000    0.02096    0.01627 =
         0.05370   -0.00037    0.01744   -0.00051
C8    1   -0.057920    0.061022    0.143904    11.00000    0.01288    0.01671 =
         0.01996    0.00150    0.00420    0.00032
AFIX  43
H8    2   -0.091927    0.049430    0.157816    11.00000   -1.20000
AFIX   0
C9    1   -0.040856   -0.154725    0.143890    11.00000    0.01369    0.01528 =
         0.02233    0.00119    0.00199   -0.00164
C10   1   -0.024974   -0.032525    0.133637    11.00000    0.01319    0.01518 =
         0.01790    0.00092    0.00299    0.00017
C16   1    0.111660    0.400515    0.077665    11.00000    0.01569    0.01402 =
         0.02154    0.00019    0.00541    0.00003
AFIX  43
H16   2    0.146548    0.399267    0.066402    11.00000   -1.20000
AFIX   0
C1    1   -0.100992   -0.282712    0.197695    11.00000    0.02292    0.02083 =
         0.03282    0.00681    0.00790   -0.00656
AFIX 137
H1A   2   -0.104495   -0.323949    0.139937    11.00000   -1.50000
H1B   2   -0.134195   -0.282246    0.221509    11.00000   -1.50000
H1C   2   -0.075002   -0.319758    0.241525    11.00000   -1.50000
AFIX   0
C6    1    0.201503    0.199211    0.115185    11.00000    0.00960    0.01609 =
         0.02463   -0.00195    0.00372   -0.00291
AFIX  13
H6    2    0.205099    0.278691    0.137969    11.00000   -1.20000
AFIX   0
C7    1    0.195290   -0.026833    0.000608    11.00000    0.01545    0.01586 =
         0.02254   -0.00069    0.00665    0.00101
AFIX  23
H7A   2    0.188469   -0.082593   -0.049267    11.00000   -1.20000
H7B   2    0.227468   -0.049439    0.039216    11.00000   -1.20000
AFIX   0
C3    1    0.202937    0.092534   -0.040858    11.00000    0.01605    0.01411 =
         0.02456   -0.00069    0.00876   -0.00122
AFIX  23
H3A   2    0.239747    0.102312   -0.048256    11.00000   -1.20000
H3B   2    0.182564    0.096927   -0.101961    11.00000   -1.20000
AFIX   0
C4    1    0.149900   -0.028736    0.058625    11.00000    0.01254    0.01137 =
         0.02430    0.00118    0.00558    0.00087
AFIX  13
H4    2    0.122043   -0.083907    0.036717    11.00000   -1.20000
AFIX   0
C5    1    0.238092    0.113827    0.170224    11.00000    0.01272    0.02177 =
         0.02707   -0.00002    0.00199   -0.00103
AFIX  23
H5A   2    0.261215    0.154393    0.217731    11.00000   -1.20000
H5B   2    0.259732    0.076069    0.129276    11.00000   -1.20000
AFIX   0
C11   1    0.186420    0.189520    0.018525    11.00000    0.01351    0.01399 =
         0.02363    0.00058    0.00711   -0.00115
AFIX  13
H11   2    0.181557    0.263671   -0.013766    11.00000   -1.20000
AFIX   0
C14   1    0.155817   -0.009154    0.155378    11.00000    0.01155    0.01530 =
         0.02292    0.00320    0.00483    0.00138
AFIX  13
H14   2    0.131337   -0.053829    0.187673    11.00000   -1.20000
AFIX   0
C15   1    0.206067    0.022617    0.216068    11.00000    0.01446    0.02470 =
         0.02309    0.00342    0.00044   -0.00058
AFIX  23
H15A  2    0.227395   -0.046016    0.229016    11.00000   -1.20000
H15B  2    0.197623    0.052361    0.274703    11.00000   -1.20000
AFIX   0

F2    4    0.179004    0.414304    0.260996    11.00000    0.02597    0.04777 =
         0.02964   -0.00350    0.00977   -0.01248
F4    4    0.095168    0.396794    0.292683    11.00000    0.01571    0.05156 =
         0.03684    0.01224    0.00523   -0.00043
F5    4    0.158676    0.460141    0.404621    11.00000    0.04869    0.04155 =
         0.02643   -0.00655    0.00817   -0.01079
F6    4    0.157388    0.271897    0.357301    11.00000    0.04028    0.03139 =
         0.04567    0.00675    0.00176    0.00567
B7    3    0.148034    0.387308    0.329638    11.00000    0.01626    0.02773 =
         0.02473    0.00119    0.00344   -0.00327
HKLF 4

REM  MIG052S_0m in C2/c
REM R1 =  0.0282 for    6144 Fo > 4sig(Fo)  and  0.0297 for all    6527 data
REM    309 parameters refined using      0 restraints

END

WGHT      0.0416      5.1786

REM Highest difference peak  1.816,  deepest hole -1.941,  1-sigma level  0.172
Q1    1   0.1155  0.1329  0.0265  11.00000  0.05    1.82
Q2    1   0.1187  0.0744  0.0681  11.00000  0.05    1.53
Q3    1   0.1208  0.0772  0.1080  11.00000  0.05    1.51
Q4    1   0.1253  0.1332  0.1439  11.00000  0.05    1.49
Q5    1   0.1214  0.2089  0.0738  11.00000  0.05    1.46
Q6    1   0.1232  0.1937  0.1198  11.00000  0.05    1.30
Q7    1   0.1599  0.4868  0.2619  11.00000  0.05    0.69
Q8    1   0.1961  0.0263 -0.0248  11.00000  0.05    0.68
Q9    1   0.0996  0.7197  0.0892  11.00000  0.05    0.66
Q10   1   0.1932  0.2007  0.0608  11.00000  0.05    0.63
Q11   1   0.0206  0.3639  0.1139  11.00000  0.05    0.63
Q12   1   0.1990  0.2606  0.1534  11.00000  0.05    0.63
Q13   1  -0.0926 -0.1482  0.1435  11.00000  0.05    0.58
Q14   1   0.0324  0.0340  0.1097  11.00000  0.05    0.58
Q15   1   0.0224  0.2599  0.1017  11.00000  0.05    0.58
Q16   1  -0.0328  0.6337  0.0975  11.00000  0.05    0.57
Q17   1  -0.0385  0.0109  0.1079  11.00000  0.05    0.56
Q18   1   0.1849  0.3187  0.3450  11.00000  0.05    0.55
Q19   1  -0.0100  0.1790  0.1237  11.00000  0.05    0.54
Q20   1  -0.0293 -0.3572  0.2985  11.00000  0.05    0.52
;
_shelx_res_checksum              69692
_shelx_hkl_file
;
   6   0   0   57.40    4.88
   6   0   0   65.35    5.60
  -6   0   0   58.24    5.13
  -6   0   0   59.99    4.87
   8   0   0  512.76   46.26
  -8   0   0  502.78   40.50
  -8   0   0  516.24   42.57
 -10   0   0  181.49   14.68
  10   0   0  193.32   14.70
 -10   0   0  187.28   15.45
  10   0   0  173.72   16.80
  12   0   0  511.29   38.72
 -12   0   0  444.23   40.67
 -12   0   0  505.03   38.69
 -14   0   0  295.86   22.99
  14   0   0  293.54   23.02
 -14   0   0  265.55   24.19
  14   0   0  299.59   26.33
 -16   0   0  144.32   10.86
  16   0   0  143.75   12.49
  16   0   0  128.18   10.87
 -16   0   0  125.32   11.45
 -18   0   0   18.10    1.60
  18   0   0   13.12    1.44
  18   0   0   17.92    1.76
 -18   0   0   15.55    1.45
 -20   0   0  148.82   14.11
  20   0   0  184.88   13.45
  20   0   0  170.07   15.41
 -20   0   0  165.69   13.41
 -22   0   0  122.18    9.10
  22   0   0  100.23    9.84
  22   0   0   96.28    8.54
  24   0   0  288.76   25.83
 -24   0   0  275.23   23.73
  26   0   0  129.92   10.73
 -26   0   0  100.02    9.78
 -28   0   0  226.18   19.02
  28   0   0  222.99   20.66
  30   0   0   53.78    5.28
 -32   0   0  106.94    8.33
  32   0   0   83.99    8.95
 -34   0   0  100.13    8.37
  34   0   0   91.17    9.05
  36   0   0   63.85    7.01
 -36   0   0   83.70    6.55
   3  -1   0   50.53    4.50
  -3  -1   0   45.45    4.12
   3   1   0   51.27    4.49
   5  -1   0    9.65    0.95
  -5  -1   0    8.94    0.84
   5   1   0    9.13    0.93
  -5   1   0    8.82    0.81
  -5   1   0    8.52    0.82
   5   1   0    9.20    0.79
  -7  -1   0   16.10    1.46
  -7  -1   0   17.73    1.35
   7  -1   0   18.01    1.39
   7  -1   0   18.28    1.63
   7   1   0   16.17    1.37
   7   1   0   12.90    1.59
  -7   1   0   15.37    1.45
  -7   1   0   16.42    1.39
   9  -1   0  228.96   17.98
  -9  -1   0  214.82   18.89
  -9  -1   0  228.00   17.94
   9  -1   0  243.87   20.56
  -9   1   0  214.47   17.97
   9   1   0  225.76   20.54
 -11  -1   0  398.09   35.45
 -11  -1   0  395.61   33.70
  11  -1   0  426.54   33.76
  11  -1   0  425.80   38.53
 -11   1   0  440.99   33.74
  11   1   0  475.00   33.75
 -11   1   0  402.45   35.44
  11   1   0  433.87   38.54
  13  -1   0  376.04   32.91
  13  -1   0  362.23   28.82
 -13  -1   0  377.16   28.75
 -13  -1   0  353.78   30.27
  13   1   0  362.50   32.90
 -13   1   0  359.47   28.78
 -13   1   0  342.81   30.26
  15  -1   0  186.42   16.36
 -15  -1   0  160.15   15.00
 -15  -1   0  187.98   14.23
  15  -1   0  181.28   14.28
 -15   1   0  172.71   15.00
  15   1   0  185.16   14.27
 -15   1   0  174.18   14.26
 -17  -1   0  105.41    9.10
 -17  -1   0  102.97    8.58
  17  -1   0  105.87    9.91
  17  -1   0  110.75    8.64
 -17   1   0  102.93    9.08
 -17   1   0  104.02    8.62
  17   1   0  106.08    8.61
  17   1   0  118.47    9.95
  19  -1   0   35.15    3.41
  19  -1   0   36.38    2.93
 -19  -1   0   36.79    2.90
 -19  -1   0   33.01    3.11
 -19   1   0   34.62    2.91
 -19   1   0   30.41    3.08
  19   1   0   35.41    3.41
  19   1   0   33.12    2.89
 -21  -1   0  113.62   10.48
  21  -1   0  128.46    9.98
  21   1   0  126.20   11.46
  21   1   0  124.45    9.96
 -21   1   0  116.96   10.50
 -21   1   0  129.57    9.96
 -23  -1   0    0.23    0.37
  23  -1   0    0.33    0.39
  23   1   0    0.60    0.46
 -23   1   0    0.84    0.42
 -23   1   0    1.03    0.40
  25  -1   0  144.25   12.99
 -25  -1   0  143.96   11.94
 -25   1   0  131.10   11.91
  27  -1   0   11.12    1.48
 -27  -1   0   11.10    1.36
  27   1   0   11.60    1.53
 -27   1   0    7.27    1.22
 -29  -1   0   94.88    8.88
  29   1   0  103.17    9.69
 -29   1   0  110.73    8.92
 -31  -1   0   -0.18    0.38
  31  -1   0    0.32    0.52
  31   1   0    0.58    0.50
 -31   1   0    0.46    0.48
  33  -1   0   33.57    3.55
  33   1   0   34.65    3.54
 -35  -1   0    0.40    0.46
  35  -1   0    0.74    0.54
 -35   1   0   -0.53    0.44
  35   1   0    0.00    0.47
   0  -2   0    1.80    0.32
   0   2   0    1.29    0.23
   0   2   0    0.86    0.22
   2  -2   0   21.66    1.98
  -2   2   0   18.36    1.70
   2   2   0   20.48    1.95
   2   2   0   20.14    1.69
  -2   2   0   18.47    1.68
  -4  -2   0   24.67    2.28
   4  -2   0   25.98    2.52
  -4   2   0   26.23    2.16
  -4   2   0   27.64    2.19
   4   2   0   23.90    2.17
   4   2   0   26.40    2.50
  -6  -2   0   49.77    4.45
   6  -2   0   51.40    4.22
  -6   2   0   55.15    4.43
   6   2   0   51.85    4.86
   6   2   0   51.56    4.22
  -6   2   0   50.29    4.24
  -8  -2   0   40.06    3.44
   8  -2   0   40.77    3.78
   8  -2   0   46.63    3.27
  -8  -2   0   41.21    3.22
   8   2   0   36.95    3.75
   8   2   0   37.32    3.25
  -8   2   0   36.87    3.41
  -8   2   0   33.74    3.27
 -10  -2   0   88.50    7.81
 -10  -2   0   91.29    7.37
  10  -2   0   99.00    7.44
 -10   2   0  100.88    7.44
  10   2   0   91.13    8.52
  10   2   0   82.14    7.41
 -12  -2   0    6.30    0.62
  12  -2   0    5.73    0.70
 -12  -2   0    5.25    0.75
  12  -2   0    5.72    0.89
 -12   2   0    7.18    0.75
  12   2   0    6.20    0.65
  12   2   0    5.02    0.83
 -12   2   0    5.70    0.67
 -14  -2   0    2.54    0.47
  14  -2   0    1.72    0.38
 -14  -2   0    1.23    0.29
  14  -2   0    0.86    0.45
 -14   2   0    1.65    0.37
  14   2   0    1.61    0.34
 -14   2   0    1.06    0.34
  14   2   0    1.55    0.46
 -16  -2   0   24.27    2.22
 -16  -2   0   26.19    2.43
  16  -2   0   27.22    2.31
  16  -2   0   32.48    2.70
 -16   2   0   29.25    2.44
  16   2   0   23.09    2.24
  16   2   0   25.18    2.66
 -16   2   0   27.24    2.29
  18  -2   0    0.23    0.28
 -18  -2   0    0.29    0.32
  18  -2   0    0.06    0.37
 -18   2   0    0.19    0.27
  18   2   0    0.11    0.36
  18   2   0    0.30    0.26
 -18   2   0    0.27    0.30
  20  -2   0    6.31    0.81
 -20  -2   0    5.81    0.83
  20  -2   0    5.56    0.95
 -20   2   0    4.92    0.79
 -20   2   0    5.25    0.73
  20   2   0    5.31    0.95
  20   2   0    5.69    0.73
  22  -2   0    1.47    0.47
  22  -2   0    1.37    0.54
 -22  -2   0    0.86    0.41
  22   2   0    1.35    0.56
 -22   2   0    0.90    0.47
 -22   2   0    1.81    0.45
  22   2   0    1.74    0.43
 -24  -2   0    6.56    1.15
  24  -2   0   11.82    1.50
 -24   2   0   12.08    1.22
 -24   2   0   11.19    1.29
  24   2   0    9.71    1.42
  26  -2   0    2.76    0.76
 -26  -2   0    0.92    0.52
  26   2   0    2.40    0.67
 -26   2   0    1.94    0.56
  28  -2   0    5.56    1.02
 -28  -2   0    6.94    0.98
 -28   2   0    3.52    0.79
  28   2   0    2.94    0.76
 -30  -2   0    1.36    0.56
  30  -2   0    1.98    0.71
  30   2   0    2.09    0.65
 -30   2   0    1.70    0.58
  32  -2   0    1.69    0.64
 -32  -2   0    1.46    0.53
  32   2   0    0.96    0.60
 -32   2   0    0.49    0.50
  34  -2   0    1.74    0.64
 -34  -2   0    1.17    0.57
 -34   2   0    1.08    0.59
  34   2   0    0.87    0.56
  36  -2   0    5.66    1.16
  36   2   0    6.00    1.14
   1  -3   0  214.80   18.84
  -1   3   0  212.82   16.49
   1   3   0  218.98   16.50
  -1   3   0  215.81   16.49
   1   3   0  175.74   16.47
  -3  -3   0   52.01    4.40
   3  -3   0   56.82    4.86
   3   3   0   52.44    4.20
  -3   3   0   54.69    4.20
  -3   3   0   45.49    4.21
   3   3   0   53.08    4.82
   3   3   0   51.49    4.18
  -5  -3   0  303.67   26.25
   5  -3   0  304.60   28.55
   5   3   0  331.81   25.00
   5   3   0  303.86   24.95
  -5   3   0  288.79   25.00
   5   3   0  356.66   28.55
   7  -3   0  179.48   12.95
  -7  -3   0  171.40   13.61
   7  -3   0  167.37   14.82
   7   3   0  139.96   14.78
   7   3   0  161.78   12.94
  -7   3   0  158.15   13.57
  -7   3   0  158.04   12.96
   9  -3   0  253.56   21.26
  -9  -3   0  268.01   22.35
   9  -3   0  288.30   24.33
   9   3   0  273.93   24.31
  -9   3   0  260.62   21.28
   9   3   0  262.55   21.26
  -9   3   0  265.18   22.32
  11  -3   0  170.80   14.88
 -11  -3   0  160.37   13.65
  11   3   0  183.81   12.97
  11   3   0  175.03   14.87
 -11   3   0  144.68   12.97
 -11   3   0  141.00   13.61
  13  -3   0  360.73   31.51
 -13  -3   0  321.05   28.95
  13  -3   0  337.35   27.57
  13   3   0  336.09   27.53
 -13   3   0  353.51   27.56
 -13   3   0  368.78   28.95
  15  -3   0   85.85    6.90
 -15  -3   0   89.51    7.27
  15  -3   0   72.40    7.90
 -15   3   0   72.70    7.23
  15   3   0   93.92    7.96
  15   3   0   89.48    6.87
 -15   3   0   91.39    6.91
  17  -3   0  371.08   33.26
 -17  -3   0  455.44   34.97
  17   3   0  445.14   38.00
 -17   3   0  388.24   34.92
  17   3   0  430.37   33.23
  19  -3   0   77.22    6.60
 -19  -3   0   85.27    6.98
  19  -3   0   72.81    7.55
  19   3   0   90.92    7.62
 -19   3   0   76.66    6.59
 -19   3   0   82.54    6.95
 -21  -3   0  249.85   18.58
  21  -3   0  183.38   17.63
  21  -3   0  215.83   20.19
 -21   3   0  218.19   17.62
 -21   3   0  221.21   18.54
  21   3   0  231.83   17.59
 -23  -3   0   56.46    5.25
 -23   3   0   63.86    5.01
  23   3   0   62.00    5.78
 -23   3   0   57.56    5.26
 -25  -3   0  266.45   21.61
  25  -3   0  254.35   23.47
 -25   3   0  256.06   20.50
 -25   3   0  246.43   21.58
  25   3   0  255.80   23.46
 -27  -3   0    3.22    0.70
  27  -3   0    3.33    0.82
 -27   3   0    2.99    0.68
  27   3   0    2.49    0.70
 -29  -3   0  146.59   11.69
  29  -3   0  141.09   12.72
 -29   3   0  121.02   11.64
  31  -3   0    0.24    0.50
 -31  -3   0    0.71    0.46
 -31   3   0    0.30    0.46
  31   3   0   -0.15    0.47
 -33  -3   0   68.54    6.31
  33  -3   0   75.05    6.98
  35  -3   0    3.64    0.91
 -35  -3   0    2.68    0.73
  35   3   0    2.76    0.80
   0  -4   0  521.35   45.43
   0   4   0  481.39   39.78
  -2  -4   0    0.11    0.16
   2  -4   0    0.15    0.30
   2   4   0    0.35    0.18
   2   4   0    0.06    0.19
   2   4   0   -0.01    0.24
  -2   4   0    0.22    0.19
  -2   4   0    0.16    0.22
   4  -4   0  798.13   62.35
   4   4   0  580.24   62.29
   6  -4   0  120.40   10.41
  -6  -4   0  112.28    9.51
  -6   4   0  110.02    9.07
   6   4   0  101.34   10.36
   6   4   0  112.76    9.00
   6   4   0  110.53    9.05
  -6   4   0  119.78    9.04
  -6   4   0  115.15    9.45
   8  -4   0  633.01   49.27
   8  -4   0  665.27   56.25
   8   4   0  626.37   56.23
  -8   4   0  616.92   49.27
   8   4   0  563.07   49.26
 -10  -4   0   24.30    2.19
  10  -4   0   23.82    2.06
 -10   4   0   22.24    2.09
  10   4   0   24.90    2.06
 -10   4   0   23.15    2.14
  10   4   0   27.60    2.45
  12  -4   0  502.91   38.80
  12  -4   0  487.71   44.29
 -12   4   0  495.91   40.71
 -12   4   0  455.45   38.78
  12   4   0  496.97   44.28
  14  -4   0  108.84    9.83
 -14  -4   0  105.66    9.01
  14  -4   0  110.19    8.55
  14   4   0  109.83    9.82
 -14   4   0   99.62    8.96
 -14   4   0  111.06    8.57
  14   4   0   96.95    8.51
 -16  -4   0  545.51   46.06
 -16   4   0  579.49   46.04
 -16   4   0  527.53   43.82
  16   4   0  550.15   43.81
  16   4   0  553.64   50.05
 -18  -4   0  129.44   10.49
  18  -4   0  134.71   11.47
  18  -4   0  117.66    9.97
  18   4   0  126.78    9.91
  18   4   0  127.24   11.42
 -18   4   0  108.95    9.93
 -18   4   0  118.90   10.45
  20  -4   0  282.22   21.00
 -20   4   0  280.74   20.96
 -20   4   0  266.45   22.03
  20   4   0  230.50   23.92
  20   4   0  249.77   20.90
  22  -4   0   23.77    2.05
 -22  -4   0   19.88    1.78
  22  -4   0   16.18    1.69
 -22   4   0   15.36    1.64
  22   4   0   16.59    1.95
 -22   4   0   17.11    1.75
  22   4   0   15.33    1.58
  24  -4   0  229.23   20.62
 -24  -4   0  226.21   18.92
 -24   4   0  210.53   17.96
  24   4   0  227.04   20.59
 -24   4   0  227.76   18.93
  26  -4   0   70.59    6.14
 -26  -4   0   68.59    5.61
 -26   4   0   58.57    5.25
  26   4   0   55.74    6.03
 -26   4   0   63.00    5.59
  28  -4   0   66.61    7.23
 -28  -4   0   79.18    6.68
  28   4   0   79.24    7.28
 -28   4   0   78.92    6.72
  30  -4   0   66.99    6.73
 -30  -4   0   63.34    6.12
  30   4   0   78.69    6.73
  32  -4   0   36.66    3.91
  32   4   0   39.67    3.91
 -34  -4   0   63.56    4.80
  34  -4   0   48.18    5.17
  34   4   0   45.79    5.10
  -1  -5   0    7.08    0.64
  -1  -5   0    6.92    0.84
   1  -5   0    8.46    0.86
  -1   5   0    6.71    0.66
  -1   5   0    7.04    0.70
   1   5   0    5.65    0.66
   1   5   0    6.52    0.68
  -3  -5   0    6.20    0.62
   3  -5   0    7.46    0.92
   3   5   0    6.22    0.61
  -3   5   0    6.08    0.62
   3   5   0    6.11    0.66
   3   5   0    7.13    0.85
  -3   5   0    5.29    0.67
  -5  -5   0  221.59   17.26
   5  -5   0  212.75   18.84
   5   5   0  215.85   16.41
   5   5   0  207.74   16.44
   5   5   0  203.35   18.79
  -5   5   0  172.66   16.42
  -5   5   0  211.23   16.47
   7  -5   0   20.33    1.95
  -7  -5   0   17.76    1.68
   7   5   0   18.60    1.55
  -7   5   0   17.35    1.60
   7   5   0   18.06    1.60
  -7   5   0   17.56    1.64
   7   5   0   19.10    1.89
  -7   5   0   21.55    1.60
   9  -5   0   32.92    2.87
   9  -5   0   28.49    2.41
  -9  -5   0   27.42    2.55
  -9   5   0   32.63    2.48
  -9   5   0   25.39    2.48
   9   5   0   28.50    2.41
   9   5   0   29.71    2.85
   9   5   0   28.92    2.35
  11  -5   0   85.12    6.80
 -11  -5   0   86.50    7.17
 -11   5   0   84.03    6.83
 -11   5   0   87.58    7.11
  11   5   0   80.10    7.81
  11   5   0   80.25    6.78
  13  -5   0   36.60    3.87
  13  -5   0   37.77    3.33
 -13  -5   0   40.29    3.53
 -13   5   0   42.26    3.47
  13   5   0   43.50    3.31
 -13   5   0   37.98    3.35
  13   5   0   39.43    3.87
 -15  -5   0    1.67    0.44
  15  -5   0    2.10    0.60
  15  -5   0    2.79    0.49
  15   5   0    1.27    0.50
 -15   5   0    1.34    0.38
  15   5   0    2.60    0.42
 -15   5   0    2.29    0.47
  17  -5   0   17.01    1.72
  17  -5   0   12.57    1.38
 -17  -5   0   13.64    1.46
 -17   5   0   15.32    1.45
 -17   5   0   14.62    1.40
  17   5   0   12.95    1.33
  17   5   0   15.75    1.62
 -19  -5   0    3.73    0.70
  19  -5   0    5.24    0.91
  19  -5   0    4.31    0.71
  19   5   0    5.15    0.65
 -19   5   0    3.80    0.70
  19   5   0    4.15    0.82
 -19   5   0    3.54    0.66
  21  -5   0    4.74    0.88
 -21  -5   0    8.22    1.03
  21  -5   0    7.61    1.20
  21   5   0    8.08    0.91
 -21   5   0    8.88    0.97
  21   5   0    5.49    1.02
 -21   5   0    7.63    1.01
  23  -5   0   13.78    1.63
 -23  -5   0    9.80    1.41
 -23   5   0   13.60    1.36
  23   5   0   15.44    1.63
  25  -5   0   48.46    4.95
 -25  -5   0   51.91    4.53
  25   5   0   49.89    4.92
 -25   5   0   50.15    4.26
  27  -5   0    4.11    0.99
 -27  -5   0    4.46    0.84
  27   5   0    3.64    0.82
 -27   5   0    4.84    0.79
  29  -5   0    6.04    1.28
 -29  -5   0   10.14    1.29
 -29   5   0   10.84    1.26
  29   5   0    8.33    1.32
  31  -5   0    3.81    0.96
 -31  -5   0    4.00    0.82
  31   5   0    3.94    0.91
  33  -5   0   11.69    1.84
 -33  -5   0   11.41    1.59
  33   5   0   17.88    1.79
   0  -6   0  123.94   10.02
   0  -6   0  118.23   11.04
   0   6   0  120.03    9.61
   0   6   0  116.29    9.61
  -2  -6   0   14.40    1.58
   2  -6   0   13.91    1.61
  -2  -6   0   16.72    1.35
  -2   6   0   14.82    1.32
  -2   6   0   15.18    1.36
   2   6   0   13.71    1.32
   4  -6   0  101.61    9.35
  -4  -6   0   99.80    8.48
   4   6   0   97.15    8.10
   4   6   0   95.89    9.28
   4   6   0  113.91    8.08
  -4   6   0   95.48    8.11
  -4   6   0  100.01    8.09
   6  -6   0   23.80    2.48
  -6  -6   0   24.84    2.17
  -6   6   0   23.58    2.12
  -6   6   0   24.15    2.06
   6   6   0   24.02    2.04
   6   6   0   25.56    2.45
   6   6   0   25.03    2.08
  -8  -6   0   79.74    7.65
  -8   6   0  102.66    7.35
   8   6   0   91.13    7.25
   8   6   0   89.31    8.38
   8   6   0   88.24    7.29
  -8   6   0   92.36    7.28
 -10  -6   0    5.51    0.67
  10  -6   0    5.68    0.86
  10  -6   0    4.28    0.59
 -10   6   0    4.87    0.67
  10   6   0    4.71    0.50
  10   6   0    4.64    0.60
 -10   6   0    5.38    0.59
  10   6   0    4.54    0.76
  12  -6   0  167.97   14.34
 -12  -6   0  158.33   13.11
  12  -6   0  149.14   12.46
 -12   6   0  151.06   12.48
  12   6   0  143.31   14.28
  12   6   0  162.42   12.46
 -14  -6   0    4.08    0.65
  14  -6   0    6.27    0.69
  14  -6   0    4.54    0.83
  14   6   0    4.51    0.58
  14   6   0    3.60    0.72
 -14   6   0    2.82    0.59
  16  -6   0   29.10    2.49
  16  -6   0   29.33    2.96
 -16  -6   0   27.81    2.63
 -16   6   0   26.61    2.49
  16   6   0   30.84    2.45
  16   6   0   27.12    2.89
  18  -6   0    8.71    1.26
 -18  -6   0    8.00    1.05
  18  -6   0    8.53    1.01
  18   6   0    8.32    0.90
  18   6   0    5.92    1.07
 -18   6   0    7.82    0.99
  20  -6   0   78.53    6.92
 -20  -6   0   72.29    6.28
  20  -6   0   72.71    6.01
  20   6   0   69.14    6.85
 -20   6   0   72.53    5.97
  20   6   0   69.01    5.90
  22  -6   0   10.10    1.60
 -22  -6   0   13.80    1.33
  22  -6   0   10.70    1.36
 -22   6   0   10.12    1.29
  22   6   0   12.04    1.60
  22   6   0   12.27    1.20
  24  -6   0   75.75    6.78
  24   6   0   67.66    6.67
 -24   6   0   67.25    5.80
 -26  -6   0   42.29    3.71
  26  -6   0   33.39    4.01
  26   6   0   45.79    4.09
 -26   6   0   39.62    3.49
 -28  -6   0   31.12    2.94
  28  -6   0   31.15    3.29
 -28   6   0   31.60    2.76
  28   6   0   27.98    3.16
  30  -6   0   12.51    1.91
 -30  -6   0   14.47    1.72
 -30   6   0   12.88    1.57
  30   6   0   15.85    1.94
  32  -6   0   40.67    3.85
 -32  -6   0   32.11    3.35
  32   6   0   36.72    3.72
  -1  -7   0  449.03   41.52
  -1  -7   0  459.57   38.07
  -1   7   0  430.00   36.31
   1   7   0  466.77   36.33
  -1   7   0  478.81   36.33
  -3  -7   0  373.84   31.61
  -3  -7   0  384.19   34.47
   3   7   0  379.89   30.12
  -3   7   0  378.38   30.16
  -5  -7   0  385.86   29.58
   5  -7   0  331.38   32.24
   5   7   0  332.48   28.18
   5   7   0  383.23   28.16
  -5   7   0  335.97   28.17
  -7  -7   0  184.68   14.45
   7  -7   0  184.01   15.84
  -7   7   0  175.92   13.79
   7   7   0  166.41   13.75
   7   7   0  182.94   13.73
  -7   7   0  148.38   13.73
   7   7   0  163.03   15.74
   9  -7   0  268.64   24.91
  -9  -7   0  275.32   22.83
  -9   7   0  278.93   21.71
   9   7   0  276.46   24.85
   9   7   0  271.07   21.72
   9   7   0  273.60   21.66
  -9   7   0  262.02   21.75
  11  -7   0   63.54    4.67
 -11  -7   0   52.34    4.89
  11  -7   0   51.00    5.41
  11   7   0   65.11    5.42
 -11   7   0   53.76    4.70
  11   7   0   54.82    4.64
  13  -7   0  256.59   22.09
 -13  -7   0  199.55   20.20
  13  -7   0  250.91   19.25
  13   7   0  246.55   19.23
 -13   7   0  254.91   19.27
  13   7   0  237.67   22.00
  15  -7   0   12.82    1.26
 -15  -7   0   12.14    1.33
  15  -7   0   11.63    1.64
  15   7   0   14.32    1.50
  15   7   0   13.07    1.22
 -15   7   0   11.44    1.34
  17  -7   0  186.54   17.40
 -17  -7   0  187.49   15.92
  17  -7   0  192.47   15.16
 -17   7   0  190.43   15.15
  17   7   0  195.92   17.36
  17   7   0  178.15   15.09
  19  -7   0   29.95    3.19
 -19  -7   0   31.62    2.84
  19   7   0   29.24    2.64
  19   7   0   33.48    3.18
 -19   7   0   29.60    2.70
  21  -7   0  195.36   18.31
  21   7   0  204.23   18.25
 -21   7   0  190.23   15.93
  21   7   0  202.38   15.91
 -23  -7   0   15.57    1.85
  23  -7   0   18.66    2.16
  23   7   0   19.13    2.05
 -23   7   0   19.51    1.78
  25  -7   0  180.43   17.91
 -25  -7   0  192.73   16.43
 -25   7   0  206.19   15.61
  25   7   0  193.11   17.86
  27  -7   0    4.38    1.08
 -27  -7   0    8.97    1.10
 -27   7   0    5.22    0.89
  27   7   0    6.34    1.14
 -29  -7   0  129.07   10.79
  29  -7   0  128.60   11.85
  29   7   0  124.44   11.73
 -29   7   0  119.68   10.22
 -31  -7   0    4.44    0.84
  31   7   0    4.16    0.94
 -31   7   0    4.36    0.82
   0  -8   0  244.59   23.26
   0   8   0  271.45   20.30
   0   8   0  246.54   20.30
   2  -8   0   -0.03    0.35
  -2  -8   0    0.39    0.38
   2   8   0    0.27    0.24
  -2   8   0    0.53    0.29
   2   8   0    0.25    0.25
  -2   8   0    0.35    0.25
  -4  -8   0  278.39   26.73
  -4  -8   0  329.55   24.51
   4  -8   0  283.30   26.77
   4   8   0  311.13   23.34
   4   8   0  305.88   23.35
  -4   8   0  276.21   23.36
  -4   8   0  264.08   23.33
  -6  -8   0    0.43    0.38
   6  -8   0    0.17    0.40
  -6  -8   0    0.76    0.27
   6   8   0    0.08    0.24
   6   8   0    0.32    0.25
  -6   8   0    0.83    0.35
  -6   8   0    0.61    0.27
  -8  -8   0  345.81   28.89
   8  -8   0  367.46   31.53
  -8   8   0  290.01   27.48
  -8   8   0  320.58   27.52
   8   8   0  362.85   27.45
   8   8   0  379.41   31.46
   8   8   0  355.11   27.51
  10  -8   0    1.59    0.55
 -10  -8   0    1.04    0.36
  10   8   0    1.66    0.48
  10   8   0    0.47    0.30
 -10   8   0    1.08    0.39
  12  -8   0  164.41   15.84
 -12  -8   0  179.87   14.51
  12  -8   0  183.59   13.81
 -12   8   0  176.04   13.82
  12   8   0  170.81   13.77
  12   8   0  154.51   15.77
  14  -8   0   15.17    1.59
  14  -8   0   17.38    1.98
 -14  -8   0   17.67    1.72
  14   8   0   14.76    1.54
 -14   8   0   18.01    1.65
  14   8   0   22.38    1.95
  16  -8   0   99.79    9.86
 -16  -8   0  111.19    9.02
 -16   8   0  101.80    8.55
  16   8   0  110.14    8.51
  16   8   0  100.65    9.79
  18  -8   0   25.36    2.56
  18  -8   0   29.51    3.08
 -18  -8   0   30.80    2.72
  18   8   0   28.91    2.52
 -18   8   0   30.39    2.58
  18   8   0   29.24    2.99
  20  -8   0  121.23    9.80
 -20  -8   0  115.37   10.27
  20  -8   0  127.40   11.31
  20   8   0  119.52   11.20
 -20   8   0  120.04    9.76
  20   8   0  117.92    9.73
 -22  -8   0   67.61    4.90
  22  -8   0   56.96    4.63
  22  -8   0   51.38    5.31
  22   8   0   48.36    5.21
 -22   8   0   50.59    4.53
  22   8   0   50.48    4.49
  24  -8   0   65.92    6.50
 -24  -8   0   69.18    5.89
  24   8   0   63.95    6.39
 -24   8   0   66.44    5.56
  26  -8   0   40.61    4.17
 -26  -8   0   40.52    3.73
 -26   8   0   39.69    3.52
 -28  -8   0   52.13    4.94
  28  -8   0   61.65    5.56
 -28   8   0   53.36    4.70
 -30  -8   0   31.12    3.07
 -30   8   0   33.33    2.93
  30   8   0   32.01    3.34
   1  -9   0   52.22    4.70
  -1  -9   0   42.29    4.62
   1   9   0   51.23    3.97
   1   9   0   46.11    3.96
  -1   9   0   44.95    3.98
  -1   9   0   50.40    3.97
  -3  -9   0    4.39    0.87
   3  -9   0    4.47    0.89
   3   9   0    4.02    0.58
  -3   9   0    3.74    0.61
   3   9   0    4.20    0.59
  -3   9   0    4.09    0.57
  -5  -9   0   22.46    2.39
   5  -9   0   26.56    2.49
  -5   9   0   25.53    2.06
  -5   9   0   20.44    1.98
   5   9   0   25.38    2.00
   5   9   0   18.89    1.97
  -7  -9   0    0.95    0.51
   7  -9   0    1.36    0.59
  -7   9   0    1.41    0.36
   7   9   0    1.53    0.37
  -7   9   0    1.39    0.45
   7   9   0    1.13    0.35
  -9  -9   0   -0.25    0.25
   9  -9   0    0.09    0.44
  -9   9   0    0.17    0.25
  -9   9   0   -0.23    0.29
   9   9   0    0.66    0.40
   9   9   0    0.22    0.27
 -11  -9   0    6.05    0.84
  11  -9   0    6.62    1.10
  11  -9   0    5.11    0.72
 -11   9   0    5.00    0.80
  11   9   0    6.60    0.77
  11   9   0    6.18    0.99
  13  -9   0    0.99    0.38
  13  -9   0    0.74    0.50
 -13  -9   0    1.41    0.43
  13   9   0    0.79    0.53
  13   9   0    1.02    0.36
 -13   9   0    1.85    0.47
  15  -9   0    6.74    1.09
  15  -9   0    3.47    0.68
 -15  -9   0    6.38    0.85
  15   9   0    5.71    0.74
 -15   9   0    5.65    0.83
  15   9   0    5.39    0.98
 -17  -9   0    0.83    0.42
  17  -9   0    1.09    0.59
  17  -9   0    1.50    0.45
 -17   9   0    1.25    0.47
  17   9   0    0.81    0.39
  17   9   0    1.26    0.54
  19  -9   0    0.78    0.43
  19  -9   0    0.96    0.62
 -19  -9   0    0.51    0.43
 -19   9   0    0.49    0.40
  19   9   0    1.44    0.55
  19   9   0    0.96    0.41
  21  -9   0    1.65    0.55
 -21  -9   0    1.35    0.53
  21  -9   0    1.01    0.66
  21   9   0    1.29    0.46
 -21   9   0    0.89    0.45
  21   9   0    1.76    0.61
 -23  -9   0    4.13    0.83
  23  -9   0    5.32    1.12
  23   9   0    5.05    0.99
 -23   9   0    4.67    0.78
 -25  -9   0   -0.01    0.42
  25  -9   0    0.17    0.63
  25   9   0    0.19    0.52
 -25   9   0    0.02    0.39
 -27  -9   0    1.82    0.59
  27   9   0    2.38    0.71
 -27   9   0    1.29    0.53
 -29  -9   0    0.04    0.46
  29   9   0    0.30    0.55
 -29   9   0    0.24    0.42
   0 -10   0   25.58    3.01
   0  10   0   28.15    2.52
   0  10   0   33.83    2.56
   2 -10   0    1.46    0.54
  -2 -10   0    1.23    0.53
  -2  10   0    0.89    0.39
   2  10   0    0.74    0.32
  -2  10   0    0.96    0.34
   2  10   0    0.51    0.33
  -4 -10   0  169.12   15.81
   4 -10   0  168.06   15.83
   4  10   0  199.56   13.74
   4  10   0  162.39   13.72
  -4  10   0  162.23   13.74
  -4  10   0  163.80   13.70
   6 -10   0    3.62    0.85
  -6 -10   0    2.04    0.69
  -6  10   0    4.14    0.57
   6  10   0    4.01    0.61
  -6  10   0    4.31    0.67
   6  10   0    4.13    0.59
   8 -10   0  199.83   17.85
  -8 -10   0  197.37   17.79
  -8  10   0  189.41   15.47
  -8  10   0  190.14   15.52
   8  10   0  190.27   15.47
 -10 -10   0    1.99    0.66
  10 -10   0    1.97    0.70
 -10  10   0    1.38    0.48
 -10  10   0    2.02    0.42
  10  10   0    2.83    0.49
  12 -10   0  185.86   12.98
  12 -10   0  148.08   14.92
  12  10   0  156.38   12.94
 -12  10   0  156.38   12.99
  12  10   0  155.66   14.84
  14 -10   0    3.19    0.85
  14 -10   0    2.76    0.54
 -14 -10   0    2.03    0.55
  14  10   0    2.20    0.66
 -14  10   0    2.93    0.62
  14  10   0    2.51    0.52
  16 -10   0  156.91   15.93
 -16 -10   0  197.29   14.66
  16  10   0  158.16   15.87
  16  10   0  182.09   13.85
 -16  10   0  164.82   13.88
 -18 -10   0   34.85    3.25
  18 -10   0   34.62    3.08
  18 -10   0   40.30    3.68
  18  10   0   34.01    3.02
 -18  10   0   32.61    3.06
  18  10   0   34.20    3.54
  20 -10   0  121.99   12.04
 -20 -10   0  127.64   10.99
 -20  10   0  129.53   10.44
  20  10   0  114.16   11.90
  20  10   0  145.34   10.42
 -22 -10   0   24.72    2.63
  22 -10   0   26.80    2.99
  22  10   0   28.98    2.57
  22  10   0   26.64    2.89
 -22  10   0   28.86    2.51
 -24 -10   0   51.27    4.69
  24  10   0   58.73    5.15
 -24  10   0   46.97    4.40
 -26 -10   0   19.34    2.03
  26  10   0   19.75    2.23
 -26  10   0   18.37    1.87
 -28 -10   0   48.80    3.78
  28  10   0   31.85    4.00
 -28  10   0   40.75    3.51
  -1 -11   0  138.37   13.56
  -1  11   0  155.35   11.78
  -1  11   0  150.20   11.74
   1  11   0  129.43   11.72
   1  11   0  156.37   11.78
  -3 -11   0   80.10    8.28
   3 -11   0   86.33    8.34
  -3  11   0   98.74    7.17
   3  11   0   85.62    7.14
   3  11   0   95.36    7.13
  -3  11   0   78.19    7.09
   5 -11   0  169.79   15.51
  -5 -11   0  176.49   15.49
  -5  11   0  162.40   13.39
   5  11   0  173.35   13.40
  -5  11   0  180.32   13.45
   5  11   0  141.68   13.39
  -7 -11   0   78.01    8.10
   7 -11   0   98.97    8.25
   7  11   0   83.14    6.99
   9 -11   0  181.21   17.11
  -9 -11   0  194.05   17.07
  -9  11   0  196.55   14.86
   9  11   0  156.15   14.78
  -9  11   0  196.74   14.80
  11 -11   0   42.78    4.35
  11 -11   0   40.64    3.63
 -11 -11   0   44.33    4.31
 -11  11   0   42.58    3.68
  11  11   0   44.47    3.61
 -13 -11   0  144.97   14.14
  13 -11   0  152.17   12.33
 -13  11   0  159.27   12.36
  13  11   0  153.28   12.30
  15 -11   0   25.69    2.51
  15 -11   0   19.76    2.96
 -15  11   0   25.72    2.52
  15  11   0   33.46    2.52
  15  11   0   36.62    3.02
  17 -11   0  202.17   16.78
  17 -11   0  163.93   14.52
 -17  11   0  196.33   14.54
  17  11   0  168.95   16.59
  17  11   0  172.50   14.48
  19 -11   0   36.77    3.15
  19 -11   0   29.60    3.66
 -19  11   0   33.49    3.10
  19  11   0   37.25    3.60
  19  11   0   38.07    3.09
 -21  11   0  134.55   11.29
  21  11   0  144.91   12.96
  21  11   0  138.02   11.27
 -23 -11   0   19.50    1.99
  23  11   0   19.54    2.14
 -23  11   0   16.39    1.78
  25  11   0   90.29    8.56
 -25  11   0   89.87    7.45
 -27 -11   0    4.90    0.92
 -27  11   0    4.83    0.82
   0 -12   0   51.71    5.33
   0  12   0   54.38    4.47
   0  12   0   54.67    4.52
   2 -12   0    6.47    1.16
  -2 -12   0    4.21    1.03
   2  12   0    6.10    0.76
   2  12   0    5.60    0.81
  -2  12   0    5.11    0.72
  -2  12   0    5.61    0.80
  -4 -12   0   82.37    7.94
   4 -12   0   78.97    7.95
  -4  12   0   79.55    6.81
   4  12   0   82.79    6.77
  -4  12   0   89.18    6.78
   6 -12   0    3.96    0.96
  -6 -12   0    2.66    0.81
  -6  12   0    3.47    0.66
  -6  12   0    4.76    0.65
   8 -12   0   60.94    6.02
  -8 -12   0   57.81    5.95
  -8  12   0   61.44    5.11
  -8  12   0   61.65    5.05
   8  12   0   62.88    5.07
  10 -12   0    7.75    1.31
 -10 -12   0    4.33    1.05
 -10  12   0    6.16    0.91
  10  12   0    8.52    0.91
  12 -12   0   44.45    3.84
 -12 -12   0   47.47    4.52
  12 -12   0   44.74    4.59
  12  12   0   46.40    3.80
 -12  12   0   42.42    3.85
  14 -12   0    2.03    0.51
  14 -12   0    2.06    0.80
 -14 -12   0    1.46    0.60
 -14  12   0    2.07    0.54
  14  12   0    2.30    0.51
  16 -12   0   43.63    3.83
  16 -12   0   34.19    3.12
 -16 -12   0   34.23    3.62
  16  12   0   32.59    3.04
 -16  12   0   36.52    3.13
  18 -12   0    5.85    0.84
  18  12   0    4.08    0.67
 -18  12   0    3.25    0.69
  20 -12   0   14.98    1.58
  20  12   0   15.36    1.81
  20  12   0   12.95    1.46
 -20  12   0   15.96    1.55
  22  12   0    9.71    1.65
 -22  12   0   14.89    1.39
  24  12   0    4.30    0.96
 -24  12   0    7.63    0.97
  -1 -13   0   26.83    2.97
   1 -13   0   29.33    3.02
  -1  13   0   19.60    2.39
  -1  13   0   27.26    2.38
   1  13   0   28.21    2.47
   1  13   0   32.40    2.41
   3 -13   0    6.22    1.30
  -3 -13   0    9.56    1.49
  -3  13   0    7.32    0.92
   3  13   0    8.67    0.99
  -3  13   0    9.22    1.08
   5 -13   0   39.44    3.63
  -5 -13   0   37.53    3.56
  -5  13   0   28.89    2.86
  -5  13   0   32.58    2.94
   7 -13   0   10.28    1.68
  -7 -13   0    9.27    1.59
   7  13   0   11.56    1.17
  -7  13   0    8.54    1.20
  -7  13   0   13.84    1.17
  -9 -13   0   17.90    1.99
   9 -13   0   15.66    2.14
  -9  13   0   14.65    1.57
  -9  13   0   17.26    1.51
   9  13   0   14.00    1.52
 -11 -13   0    6.63    1.24
  11 -13   0    8.33    1.02
  11 -13   0    9.84    1.53
 -11  13   0   10.60    1.15
  11  13   0    7.51    0.98
  13 -13   0   18.02    2.36
  13 -13   0   18.19    1.70
 -13 -13   0   16.33    2.04
 -13  13   0   20.46    1.75
  13  13   0   14.76    1.62
  15 -13   0    2.25    0.54
 -15 -13   0    1.06    0.60
  15  13   0    1.06    0.43
  17 -13   0   11.04    1.38
 -17 -13   0   12.06    1.71
 -17  13   0   11.52    1.37
  17  13   0   12.71    1.30
 -19 -13   0    0.30    0.49
  19 -13   0    1.30    0.52
  19  13   0    0.31    0.40
 -19  13   0    1.40    0.51
 -21 -13   0   16.97    2.09
 -21  13   0   18.80    1.81
   0 -14   0   94.48    9.10
   0  14   0   83.36    7.72
   0  14   0  111.09    7.90
  -2 -14   0    1.66    0.78
   2 -14   0    1.32    0.71
  -2  14   0    1.59    0.52
   2  14   0    1.84    0.46
  -2  14   0    1.96    0.46
  -4 -14   0  159.06   15.04
   4 -14   0  165.87   15.11
   4  14   0  158.46   12.96
  -4  14   0  166.58   12.99
  -4  14   0  155.66   13.02
   6 -14   0   10.22    1.88
  -6 -14   0   15.54    2.05
  -6  14   0   13.85    1.40
   6  14   0   16.21    1.45
  -6  14   0   14.70    1.52
   8 -14   0  109.29   10.29
  -8 -14   0   94.75   10.14
  -8  14   0   95.68    8.71
  -8  14   0  111.70    8.80
   8  14   0  125.65    8.78
  10 -14   0    7.30    0.94
 -10 -14   0    8.48    1.38
  10 -14   0    6.02    1.31
  10  14   0    7.94    0.94
 -10  14   0    5.75    0.94
 -12 -14   0  109.82   10.93
  12 -14   0  110.36    9.44
 -12  14   0  114.88    9.45
  12  14   0  126.08    9.41
  14 -14   0   13.45    1.54
 -14 -14   0   11.32    1.78
 -14  14   0   13.40    1.42
  14  14   0   14.80    1.41
 -16 -14   0   70.33    7.03
  16 -14   0   75.01    6.07
 -16  14   0   80.31    6.07
  16  14   0   64.82    5.98
 -18 -14   0   11.28    1.72
  18 -14   0   15.28    1.56
 -18  14   0    8.81    1.30
  18  14   0   13.58    1.31
   1 -15   0   26.51    3.01
  -1 -15   0   28.21    3.05
  -1  15   0   24.93    2.36
   1  15   0   27.63    2.38
  -3 -15   0   70.15    7.05
   3 -15   0   66.66    7.04
  -3  15   0   80.45    5.96
  -3  15   0   68.67    6.00
   3  15   0   70.76    5.92
  -5 -15   0   52.51    5.82
   5 -15   0   59.30    5.94
   5  15   0   58.47    4.90
  -5  15   0   57.30    4.97
  -5  15   0   64.95    4.91
  -7 -15   0   74.46    6.55
   7  15   0   66.03    5.46
  -7  15   0   66.49    5.53
  -7  15   0   60.27    5.44
  -9 -15   0   55.40    5.79
   9 -15   0   55.60    4.91
  -9  15   0   59.97    4.96
   9  15   0   62.25    4.91
 -11 -15   0   19.79    2.29
  11 -15   0   15.86    1.82
 -11  15   0   19.76    1.85
  11  15   0   20.71    1.81
 -13 -15   0   44.50    4.90
  13  15   0   52.80    4.18
 -13  15   0   48.68    4.20
 -15 -15   0   25.57    2.66
  15 -15   0   23.35    2.17
  15  15   0   22.27    2.09
 -15  15   0   20.63    2.13
   0 -16   0    0.50    0.68
   0  16   0    1.12    0.43
  -2 -16   0    0.62    0.70
   2 -16   0    0.74    0.77
  -2  16   0    1.49    0.44
  -4 -16   0    0.60    0.74
   4 -16   0    0.85    0.77
   4  16   0    1.56    0.46
  -4  16   0    1.67    0.45
  -6 -16   0    2.06    0.82
  -6  16   0    1.81    0.47
  -6  16   0    1.44    0.54
  -8 -16   0    5.58    1.16
   8 -16   0    3.58    0.65
   8  16   0    2.65    0.59
  -8  16   0    3.62    0.70
 -36   0   1   -0.08    0.45
  36   0  -1   -0.35    0.44
 -34   0   1    0.13    0.48
  34   0  -1    0.88    0.52
  32   0  -1   -0.07    0.44
 -32   0   1   -0.04    0.37
  30   0  -1   -0.14    0.45
 -30   0   1    0.11    0.40
 -28   0   1   -0.08    0.38
  28   0  -1    0.05    0.42
 -26   0   1    0.13    0.39
  26   0  -1    0.48    0.46
  24   0  -1    0.31    0.35
  24   0  -1   -0.11    0.40
 -24   0   1   -0.26    0.34
  22   0  -1    0.60    0.44
 -22   0   1    0.14    0.34
  22   0  -1    0.05    0.32
  20   0  -1   -0.16    0.25
  20   0  -1    0.28    0.39
 -20   0   1   -0.30    0.28
 -20   0   1    0.21    0.26
 -18   0   1    0.31    0.25
  18   0  -1    0.15    0.29
  18   0  -1    0.44    0.35
 -18   0   1    0.12    0.30
 -16   0   1    0.17    0.20
  16   0  -1    0.15    0.30
  16   0  -1    0.15    0.26
 -16   0   1   -0.14    0.25
 -14   0   1   -0.09    0.18
  14   0  -1    0.06    0.25
  14   0  -1    0.75    0.26
 -14   0   1    0.11    0.25
 -12   0   1   -0.11    0.20
  12   0  -1    0.12    0.24
  12   0  -1    0.01    0.22
 -12   0   1    0.21    0.17
 -10   0   1    0.12    0.15
 -10   0   1    0.18    0.20
  10   0  -1    0.08    0.21
  10   0  -1    0.00    0.24
   8   0  -1    0.02    0.18
  -8   0   1    0.04    0.19
  -8   0   1    0.09    0.14
   8   0  -1   -0.15    0.18
   6   0  -1    0.19    0.15
  -6   0   1    0.06    0.11
   6   0  -1    0.01    0.16
  -6   0   1   -0.01    0.16
   4   0  -1    0.07    0.14
   4   0  -1   -0.01    0.11
  -4   0   1   -0.05    0.11
  -4   0  -1   -0.68    0.11
   4   0   1   -0.73    0.18
   4   0   1   -0.42    0.11
   6   0   1   -1.10    0.18
  -6   0  -1   -0.99    0.16
   6   0   1   -0.96    0.15
   8   0   1   -0.29    0.14
  -8   0  -1   -0.59    0.16
  -8   0  -1   -0.63    0.15
   8   0   1   -0.45    0.21
 -10   0  -1   -0.44    0.17
 -10   0  -1   -0.13    0.19
  10   0   1   -0.28    0.16
  10   0   1   -0.27    0.24
  12   0   1   -0.24    0.17
 -12   0  -1   -0.29    0.21
  12   0   1   -0.15    0.32
 -12   0  -1   -0.02    0.23
 -14   0  -1   -0.14    0.24
 -14   0  -1   -0.25    0.22
  14   0   1   -0.26    0.28
  14   0   1   -0.62    0.16
 -16   0  -1   -0.24    0.25
 -16   0  -1   -0.27    0.24
  16   0   1   -0.12    0.20
  16   0   1   -0.39    0.31
  18   0   1   -0.21    0.20
  18   0   1   -0.27    0.28
 -18   0  -1    0.03    0.27
  20   0   1   -0.06    0.32
 -20   0  -1    0.31    0.32
 -20   0  -1   -0.17    0.29
  20   0   1   -0.23    0.23
  22   0   1    0.13    0.35
 -22   0  -1    0.16    0.34
 -22   0  -1    0.09    0.33
  24   0   1   -0.04    0.36
 -24   0  -1    0.47    0.38
 -26   0  -1    0.41    0.41
  26   0   1   -0.19    0.41
 -28   0  -1   -0.08    0.42
  28   0   1    0.97    0.56
 -30   0  -1    0.36    0.41
  30   0   1    0.66    0.51
 -32   0  -1   -0.08    0.39
  32   0   1    0.15    0.48
 -34   0  -1    0.12    0.44
  34   0   1    0.24    0.53
  35  -1  -1   61.89    5.95
 -35  -1   1   61.44    5.46
  35   1  -1   57.08    5.91
 -35   1   1   62.37    5.48
  33  -1  -1   33.78    3.26
 -33  -1   1   32.56    2.94
  33   1  -1   24.50    3.10
 -33   1   1   31.75    2.97
 -31  -1   1   68.39    7.05
  31  -1  -1   87.54    7.73
 -31   1   1   88.15    7.14
 -29  -1   1   22.69    2.48
  29   1  -1   24.00    2.70
 -29   1   1   31.67    2.59
 -27  -1   1  136.55   12.12
  27   1  -1  151.60   13.23
 -27   1   1  138.33   12.14
  25  -1  -1   15.42    1.81
 -25  -1   1   12.47    1.69
  25   1  -1   17.13    1.86
 -25   1   1   18.24    1.69
  23  -1  -1  159.01   14.74
  23  -1  -1  155.30   12.88
 -23  -1   1  163.01   13.57
  23   1  -1  159.89   14.75
  23   1  -1  155.26   12.85
 -23   1   1  165.09   13.56
  21  -1  -1    1.41    0.52
  21  -1  -1    1.41    0.44
 -21  -1   1    0.74    0.43
 -21   1   1    1.80    0.47
  21   1  -1    1.93    0.55
 -21   1   1    2.08    0.42
  21   1  -1    1.66    0.41
  19  -1  -1  239.32   21.17
  19  -1  -1  224.97   18.51
 -19  -1   1  228.39   19.47
  19   1  -1  227.50   21.14
 -19   1   1  219.34   19.44
 -19   1   1  246.46   18.46
 -17  -1   1    3.67    0.62
 -17  -1   1    5.46    0.53
  17  -1  -1    2.44    0.53
  17  -1  -1    2.98    0.65
 -17   1   1    3.34    0.60
 -17   1   1    3.91    0.54
  17   1  -1    3.91    0.74
  17   1  -1    3.85    0.56
 -15  -1   1  354.28   27.02
 -15  -1   1  308.96   25.63
  15   1  -1  336.32   29.37
 -15   1   1  301.07   27.00
 -15   1   1  334.91   25.68
  15   1  -1  302.34   25.70
  13  -1  -1    6.20    0.92
 -13  -1   1    7.10    0.69
  13  -1  -1    7.26    0.83
 -13  -1   1    7.24    0.81
  13   1  -1    7.98    0.91
 -13   1   1    7.18    0.81
 -13   1   1    7.97    0.75
  13   1  -1    7.95    0.78
  11  -1  -1  912.72   62.76
  11  -1  -1  668.89   71.51
  -9  -1   1   36.68    3.47
   9  -1  -1   40.87    3.32
  -9  -1   1   38.18    3.24
   9  -1  -1   48.30    3.80
   9   1  -1   33.89    3.77
  -9   1   1   43.67    3.49
  -9   1   1   42.60    3.29
  -7   1   1  463.89   38.68
  -5  -1   1    1.77    0.29
   5  -1  -1    2.37    0.33
   5  -1  -1    1.73    0.28
   5   1  -1    2.14    0.29
  -5   1   1    1.92    0.27
   5   1  -1    2.69    0.36
  -5   1   1    2.47    0.30
  -3  -1  -1   27.96    1.99
   3  -1   1   25.36    2.30
   3   1   1   22.32    2.08
   3   1   1   23.99    2.28
  -3   1  -1   22.68    2.00
   5  -1   1   77.65    5.93
  -5  -1  -1   78.29    5.95
   5  -1   1   71.72    6.24
   5  -1   1   77.73    6.83
  -5   1  -1   63.09    5.96
   5   1   1   76.81    6.26
   5   1   1   75.52    6.82
   5   1   1   74.69    5.93
   7  -1   1   21.14    2.30
  -7  -1  -1   26.88    1.98
   7  -1   1   26.37    1.97
  -7   1  -1   24.71    2.08
  -7   1  -1   23.43    2.00
   7   1   1   21.67    1.95
   7   1   1   22.67    2.30
   7   1   1   23.91    2.08
   9  -1   1  231.05   23.88
  -9  -1  -1  225.55   20.87
   9  -1   1  284.66   20.90
  -9  -1  -1  268.13   21.96
  -9   1  -1  278.04   20.91
   9   1   1  283.97   20.88
   9   1   1  267.07   23.90
  11  -1   1  154.60   14.41
 -11  -1  -1  179.36   15.19
 -11  -1  -1  181.89   14.42
  11  -1   1  203.28   16.57
  11   1   1  185.70   14.41
 -11   1  -1  189.76   14.45
  11   1   1  176.91   16.53
 -11   1  -1  178.68   15.17
  13  -1   1  205.10   17.84
 -13  -1  -1  224.79   18.77
 -13  -1  -1  234.76   17.85
 -13   1  -1  239.42   17.88
  13   1   1  224.19   17.84
 -13   1  -1  216.92   18.77
  13   1   1  222.87   20.44
  15  -1   1  113.37    9.61
  15  -1   1  108.08    8.32
 -15  -1  -1  110.15    8.31
 -15  -1  -1   92.07    8.76
 -15   1  -1   96.86    8.76
 -15   1  -1  102.54    8.33
  15   1   1  100.71    8.29
  17  -1   1  329.62   31.01
  17  -1   1  341.69   27.10
 -17  -1  -1  356.39   27.09
 -17  -1  -1  310.16   28.49
  17   1   1  358.14   27.08
 -17   1  -1  350.25   27.11
 -17   1  -1  291.42   28.48
  17   1   1  385.79   31.04
 -19  -1  -1  123.16    9.59
 -19  -1  -1  114.79   10.12
  19  -1   1  128.81    9.61
 -19   1  -1  111.54    9.60
  19   1   1  116.36   11.03
 -19   1  -1  120.79   10.14
  19   1   1  116.91    9.57
 -21  -1  -1  115.68   10.27
  21   1   1  119.27   11.21
 -21   1  -1  127.80    9.75
 -21   1  -1  118.30   10.26
  23  -1   1   83.01    7.85
 -23  -1  -1   74.92    7.16
  23   1   1   95.44    7.90
 -23   1  -1   80.16    7.16
 -23   1  -1   83.14    6.80
  25  -1   1  102.61   10.29
 -25  -1  -1  127.79    9.50
 -25   1  -1  106.37    9.48
  25   1   1  104.28   10.32
  27  -1   1  115.98   11.05
 -27   1  -1  125.04   10.15
  27   1   1  112.67   11.00
  29  -1   1   24.03    2.83
 -29  -1  -1   25.85    2.58
 -29   1  -1   26.66    2.59
  29   1   1   29.93    2.88
  31  -1   1   39.53    4.75
 -31  -1  -1   52.77    4.43
 -31   1  -1   52.16    4.43
  31   1   1   49.82    4.83
 -33  -1  -1   31.51    3.24
  33   1   1   34.81    3.56
 -33   1  -1   37.77    3.34
 -35  -1  -1   45.33    4.01
  35  -1   1   42.35    4.36
  35   1   1   39.76    4.32
 -35   1  -1   44.03    3.99
  36  -2  -1  107.54    9.78
 -36  -2   1  103.28    8.96
 -36   2   1   97.96    8.97
  36   2  -1  102.38    9.74
  34  -2  -1    9.72    1.53
 -34  -2   1   12.31    1.45
 -34   2   1    8.26    1.38
  34   2  -1   11.46    1.58
  32  -2  -1  113.08   10.95
 -32  -2   1  113.07   10.04
  32   2  -1  110.72   10.90
 -32   2   1  128.87   10.10
  30  -2  -1   38.20    3.83
 -30   2   1   39.02    3.54
  30   2  -1   35.67    3.81
 -28  -2   1  170.93   14.12
  28  -2  -1  181.57   15.39
 -28   2   1  145.92   14.09
  26  -2  -1   88.19    7.98
 -26  -2   1   88.99    7.34
  26   2  -1   95.34    8.02
 -26   2   1   67.36    7.26
  24  -2  -1  273.65   24.79
  24  -2  -1  303.17   21.72
 -24  -2   1  226.41   22.74
  24   2  -1  280.11   21.65
 -24   2   1  270.03   21.62
  22  -2  -1   61.78    4.94
  22  -2  -1   57.47    5.66
 -22  -2   1   55.12    5.18
 -22   2   1   58.78    5.17
  22   2  -1   56.83    4.86
 -22   2   1   63.11    4.89
  20  -2  -1  259.42   20.67
  20  -2  -1  262.78   23.59
  20   2  -1  258.36   20.61
 -20   2   1  251.43   20.60
  18  -2  -1   85.69    7.81
 -18  -2   1   78.93    7.13
  18  -2  -1   80.90    6.81
 -18   2   1   89.58    6.77
  18   2  -1   79.28    6.76
 -18   2   1   84.64    7.15
  18   2  -1   83.54    7.78
  16  -2  -1  543.98   45.58
  16   2  -1  500.61   39.90
 -16   2   1  509.82   39.88
 -16   2   1  423.70   41.90
  16   2  -1  533.60   45.57
  14  -2  -1  220.58   16.58
 -14  -2   1  228.89   17.41
  14  -2  -1  208.72   18.90
 -14   2   1  212.86   16.53
 -14   2   1  184.12   17.37
  14   2  -1  187.66   18.89
  12  -2  -1  793.82   67.68
  12  -2  -1  733.48   59.34
 -12   2   1  744.12   62.29
  12   2  -1  742.64   59.32
 -12   2   1  723.23   59.27
 -10  -2   1  457.59   38.77
  10  -2  -1  423.78   36.91
  10  -2  -1  498.68   42.11
  10   2  -1  464.52   36.91
  10   2  -1  461.04   42.11
 -10   2   1  456.93   36.88
 -10   2   1  489.87   38.76
   8  -2  -1  381.73   34.02
   8  -2  -1  365.38   29.82
  -8  -2   1  386.01   31.33
   8   2  -1  385.57   29.82
   8   2  -1  435.73   34.03
  -8   2   1  359.22   29.80
  -8   2   1  315.91   31.29
   6  -2  -1  262.67   21.37
  -6  -2   1  264.69   22.45
   6  -2  -1  228.10   24.37
   6   2  -1  276.81   24.39
   6   2  -1  277.93   21.38
  -6   2   1  268.64   21.36
  -6   2   1  302.45   22.44
   4  -2  -1   23.73    1.95
  -4  -2   1   19.42    2.05
   4  -2  -1   26.34    2.25
   4   2  -1   24.87    2.26
   4   2  -1   22.76    1.96
  -4   2   1   25.23    2.04
  -4   2   1   23.23    1.96
   0  -2   1  111.22    9.97
   0   2   1  107.45    8.71
   0   2   1  118.78    9.94
   0   2  -1  100.49    8.71
   4  -2   1  180.14   16.34
  -4   2  -1  194.02   14.27
  -4   2  -1  161.48   14.30
   4   2   1  171.80   16.32
   4   2   1  172.10   14.26
   4   2   1  195.73   14.28
  -6   2  -1  622.39   49.40
   8  -2   1  137.32   10.37
  -8  -2  -1  127.53   10.36
  -8  -2  -1  122.99   10.92
   8  -2   1  150.73   11.93
  -8   2  -1  120.39   10.40
  -8   2  -1  121.21   10.89
   8   2   1  123.48   11.88
   8   2   1  133.62   10.36
  10  -2   1  414.83   36.54
  10  -2   1  430.45   31.98
 -10  -2  -1  375.62   31.93
 -10  -2  -1  402.07   33.60
 -10   2  -1  346.85   33.56
  10   2   1  420.01   36.53
  10   2   1  418.10   31.96
 -10   2  -1  409.10   31.99
 -12  -2  -1   97.05    7.85
 -12  -2  -1   98.09    7.42
  12  -2   1   94.26    8.57
  12  -2   1   92.29    7.44
 -12   2  -1   88.34    7.82
  12   2   1   97.30    7.42
  12   2   1   93.15    8.57
 -12   2  -1   76.65    7.44
  14  -2   1  430.16   41.29
  14  -2   1  483.31   36.15
 -14  -2  -1  400.93   37.96
 -14  -2  -1  482.08   36.09
  14   2   1  469.22   36.11
 -14   2  -1  431.76   36.13
 -14   2  -1  480.68   37.97
 -16  -2  -1   56.63    4.59
  16  -2   1   54.47    5.35
  16  -2   1   60.37    4.62
 -16  -2  -1   65.36    4.93
 -16   2  -1   50.49    4.86
  16   2   1   47.04    5.32
 -16   2  -1   60.79    4.65
  16   2   1   54.47    4.58
 -18  -2  -1  438.09   39.93
 -18  -2  -1  485.79   37.96
  18  -2   1  488.27   38.01
  18   2   1  490.06   43.42
  18   2   1  470.80   37.96
 -18   2  -1  506.96   38.02
 -18   2  -1  463.28   39.93
 -20  -2  -1    3.22    0.62
  20  -2   1    3.82    0.62
  20  -2   1    4.56    0.82
 -20   2  -1    3.15    0.59
 -20   2  -1    3.08    0.57
  20   2   1    3.03    0.71
  20   2   1    4.12    0.55
 -22  -2  -1  404.75   35.43
  22  -2   1  418.55   38.51
 -22   2  -1  412.81   33.69
 -22   2  -1  478.58   35.47
  22   2   1  400.10   38.51
  24  -2   1    0.11    0.43
 -24  -2  -1    0.37    0.37
  24   2   1    0.35    0.48
 -24   2  -1    0.31    0.40
 -24   2  -1    0.38    0.38
 -26  -2  -1  267.67   23.91
  26  -2   1  294.01   26.08
 -26   2  -1  291.45   23.96
  28  -2   1    0.48    0.50
 -28  -2  -1    0.58    0.46
  28   2   1    1.05    0.57
 -28   2  -1    0.25    0.43
 -30  -2  -1  128.36   10.51
  30  -2   1  113.02   11.42
  30   2   1  106.92   11.34
 -30   2  -1  140.76   10.54
  32  -2   1    9.71    1.54
 -32  -2  -1   10.79    1.39
  32   2   1   10.77    1.58
 -32   2  -1    9.30    1.38
 -34  -2  -1   94.09    8.76
 -34   2  -1  113.50    8.87
  34   2   1   96.57    9.56
  35  -3  -1   22.74    3.08
 -35  -3   1   37.05    2.97
  35   3  -1   30.85    3.15
 -33  -3   1   12.35    1.47
  33  -3  -1    7.78    1.45
 -33   3   1    8.21    1.38
  33   3  -1   13.37    1.63
 -31  -3   1   15.38    1.57
  31  -3  -1   14.10    1.86
 -31   3   1   10.31    1.57
  31   3  -1   13.67    1.84
  29  -3  -1    6.97    1.20
 -29  -3   1    6.28    1.03
  29   3  -1    7.59    1.20
 -29   3   1    6.83    1.08
 -27  -3   1   63.73    5.56
  27  -3  -1   65.50    6.11
 -27   3   1   55.54    5.54
  27   3  -1   66.74    6.05
 -25  -3   1    0.18    0.43
  25  -3  -1    0.26    0.44
 -25   3   1    0.24    0.35
  25   3  -1    0.36    0.39
 -25   3   1    0.34    0.42
  23  -3  -1   69.84    6.34
 -23  -3   1   72.97    6.66
  23  -3  -1   80.03    7.29
 -23   3   1   81.53    6.31
 -23   3   1   81.26    6.68
  23   3  -1   74.88    6.28
  23   3  -1   75.76    7.26
  21  -3  -1    1.18    0.53
 -21  -3   1    1.51    0.48
  21  -3  -1    0.48    0.41
  21   3  -1    0.70    0.35
 -21   3   1    0.33    0.36
  21   3  -1    0.71    0.48
 -21   3   1    0.91    0.41
 -19  -3   1   63.64    4.82
  19  -3  -1   53.92    4.56
  19  -3  -1   52.83    5.22
 -19   3   1   55.19    4.52
  19   3  -1   48.79    4.49
  19   3  -1   58.03    5.25
 -19   3   1   51.49    4.77
  17  -3  -1   17.34    1.60
 -17  -3   1   13.43    1.64
 -17   3   1   17.71    1.67
 -17   3   1   16.05    1.56
  17   3  -1   20.96    1.89
  17   3  -1   17.90    1.55
  15  -3  -1  151.65   11.80
  15  -3  -1  133.00   13.46
 -15  -3   1  146.00   12.38
 -15   3   1  140.80   12.36
 -15   3   1  153.30   11.76
  15   3  -1  152.87   11.76
 -13  -3   1    1.43    0.40
  13  -3  -1    1.14    0.44
  13  -3  -1    2.29    0.41
 -13   3   1    1.88    0.38
  13   3  -1    1.42    0.33
 -13   3   1    1.47    0.35
  13   3  -1    1.90    0.49
  11  -3  -1  109.93    9.02
  11  -3  -1  115.50   10.33
 -11  -3   1  111.34    9.49
 -11   3   1  115.93    9.02
  11   3  -1  112.71    9.01
 -11   3   1  111.23    9.47
  11   3  -1  108.57   10.32
   9  -3  -1   10.75    1.03
  -9  -3   1    8.31    0.91
   9  -3  -1    7.87    0.86
   9   3  -1   12.61    1.05
  -9   3   1    7.18    0.86
  -9   3   1    9.02    0.89
   9   3  -1    9.43    0.87
   7  -3  -1  245.42   20.84
  -7  -3   1  229.50   19.16
  -7   3   1  230.58   19.13
  -7   3   1  218.91   18.23
   7   3  -1  238.84   20.83
   7   3  -1  211.44   18.23
  -5  -3   1   16.11    1.41
   5  -3  -1   15.76    1.56
   5  -3  -1   15.37    1.33
   5   3  -1   15.15    1.34
  -5   3   1   15.69    1.36
   5   3  -1   17.18    1.57
  -5   3   1   14.20    1.37
  -3  -3   1  137.27   11.48
   3  -3  -1  133.65   12.50
  -3   3   1  134.86   10.95
   3   3  -1  135.19   10.91
  -3   3   1  143.35   10.94
   3   3  -1  138.41   10.94
  -1  -3   1   43.04    4.10
   1  -3  -1   36.99    4.07
   1   3  -1   49.85    3.56
   1   3  -1   47.23    3.57
  -1   3   1   43.68    3.71
  -1   3   1   42.50    3.57
   1  -3   1  349.54   31.61
  -1   3  -1  327.82   27.66
   1   3   1  360.65   27.65
   1   3   1  383.77   27.67
   1   3   1  326.00   29.03
   1   3   1  342.05   31.56
   3  -3   1    0.86    0.30
   3   3   1    0.66    0.27
  -3   3  -1    0.97    0.19
   3   3   1    0.72    0.19
  -3   3  -1    0.30    0.24
   3   3   1    0.77    0.19
   3   3   1    0.88    0.19
   5  -3   1  124.20   10.82
   5   3   1  126.21   10.77
   5   3   1  118.36    9.40
   5   3   1  116.70    9.39
   5   3   1  113.32    9.89
  -5   3  -1  115.39    9.39
  -5   3  -1  111.55    9.44
   7  -3   1  129.36   12.43
   7   3   1  138.82   12.41
   7   3   1  149.56   10.82
  -7   3  -1  132.05   10.86
  -7   3  -1  138.17   11.35
   7   3   1  143.31   11.39
  -7   3  -1  118.71   10.81
  -9  -3  -1  192.63   18.26
   9  -3   1  226.41   19.91
  -9  -3  -1  235.50   17.35
  -9   3  -1  226.77   17.41
  -9   3  -1  197.22   18.23
   9   3   1  234.61   19.89
   9   3   1  215.75   17.36
 -11  -3  -1  127.18   11.50
  11  -3   1  132.68   10.93
 -11  -3  -1  138.30   10.90
  11  -3   1  135.46   12.57
 -11   3  -1  133.98   10.97
  11   3   1  140.94   12.54
 -11   3  -1  137.11   11.48
  11   3   1  146.28   10.92
 -13  -3  -1  159.18   15.18
  13  -3   1  176.32   16.56
 -13  -3  -1  186.20   14.40
  13  -3   1  169.14   14.44
  13   3   1  179.88   14.41
 -13   3  -1  199.38   15.18
 -13   3  -1  192.95   14.48
  13   3   1  182.12   16.54
  15  -3   1   74.06    5.86
  15  -3   1   61.81    5.03
 -15  -3  -1   59.43    5.30
 -15  -3  -1   64.99    4.98
  15   3   1   62.23    4.98
 -15   3  -1   57.38    5.27
  15   3   1   49.56    5.75
 -15   3  -1   62.86    5.06
 -17  -3  -1   94.61    7.58
  17  -3   1   92.61    8.30
  17  -3   1   88.36    7.18
  17   3   1   78.06    8.23
  17   3   1   90.85    7.13
 -17   3  -1   82.67    7.52
 -17   3  -1   90.83    7.20
  19  -3   1   25.74    2.17
  19  -3   1   26.57    2.55
 -19  -3  -1   25.57    2.30
  19   3   1   23.35    2.50
 -19   3  -1   24.73    2.17
  19   3   1   24.82    2.09
 -19   3  -1   19.33    2.23
 -21  -3  -1   13.95    1.28
  21  -3   1    6.98    1.32
 -21   3  -1   10.67    1.26
  21   3   1    9.83    1.39
 -21   3  -1   11.00    1.14
 -23  -3  -1   37.13    3.37
  23  -3   1   33.15    3.69
 -23   3  -1   39.10    3.18
 -23   3  -1   35.37    3.35
  23   3   1   37.77    3.64
 -25  -3  -1    6.11    1.02
 -25   3  -1    9.33    1.17
 -25   3  -1   11.68    1.13
  25   3   1    6.40    1.15
 -27  -3  -1   20.49    2.24
  27  -3   1   25.64    2.58
 -27   3  -1   23.59    2.29
  27   3   1   23.68    2.50
 -29  -3  -1   13.26    1.60
  29  -3   1   12.27    1.81
 -29   3  -1   12.79    1.60
  29   3   1   13.34    1.80
  31  -3   1   19.07    2.30
 -31   3  -1   18.44    2.12
  31   3   1   24.62    2.38
 -33  -3  -1   13.11    1.54
  33  -3   1   10.49    1.65
 -35  -3  -1    9.64    1.43
  35  -3   1   13.62    1.83
  35   3   1   13.38    1.80
 -34  -4   1    2.04    0.65
  34   4  -1    3.63    0.87
 -32  -4   1   14.84    1.70
  32  -4  -1   14.16    2.04
  32   4  -1   16.56    1.87
 -30  -4   1   11.30    1.31
  30  -4  -1    8.36    1.41
  30   4  -1    8.62    1.35
 -28  -4   1   29.84    2.58
  28  -4  -1   29.48    2.85
  28   4  -1   24.18    2.73
 -28   4   1   21.54    2.51
 -26  -4   1   11.53    1.40
  26   4  -1    8.70    1.44
 -26   4   1   11.25    1.41
 -26   4   1   11.90    1.21
 -24  -4   1    4.59    0.82
  24  -4  -1    4.83    0.83
  24  -4  -1    5.20    1.00
 -24   4   1    4.46    0.75
  24   4  -1    5.76    0.76
  24   4  -1    4.18    0.85
 -24   4   1    5.36    0.86
  22  -4  -1    4.62    0.90
  22  -4  -1    4.36    0.78
 -22  -4   1    3.79    0.74
  22   4  -1    4.37    0.87
  22   4  -1    4.48    0.67
 -22   4   1    4.70    0.79
 -22   4   1    6.08    0.78
 -20  -4   1   35.11    3.08
  20  -4  -1   35.68    3.36
  20  -4  -1   34.81    2.93
  20   4  -1   32.54    3.31
 -20   4   1   32.05    3.04
 -20   4   1   32.01    2.86
  20   4  -1   31.61    2.82
  18  -4  -1   38.26    3.52
  18  -4  -1   34.96    3.03
 -18  -4   1   40.93    3.20
 -18   4   1   33.85    3.16
  18   4  -1   28.94    3.44
 -18   4   1   33.42    3.00
  18   4  -1   36.44    2.98
 -16  -4   1    8.40    1.06
  16  -4  -1    8.91    1.03
  16  -4  -1    9.72    1.24
 -16   4   1    9.33    1.02
 -16   4   1    8.76    0.98
  16   4  -1    7.98    1.16
  16   4  -1    9.24    0.91
  14  -4  -1   26.34    2.19
 -14  -4   1   18.88    2.27
  14  -4  -1   30.06    2.57
  14   4  -1   28.11    2.55
 -14   4   1   25.74    2.18
 -14   4   1   24.08    2.26
  14   4  -1   24.83    2.15
 -12  -4   1   60.64    5.21
  12  -4  -1   57.58    5.68
 -12   4   1   60.06    5.17
 -12   4   1   59.42    4.95
  12   4  -1   60.00    4.92
  12   4  -1   64.92    5.69
  10  -4  -1    4.50    0.59
  10  -4  -1    3.90    0.70
 -10  -4   1    5.08    0.65
  10   4  -1    5.06    0.60
  10   4  -1    5.05    0.74
 -10   4   1    5.02    0.63
 -10   4   1    5.82    0.62
  -8  -4   1  160.81   13.66
   8  -4  -1  155.97   12.99
   8  -4  -1  162.30   14.86
  -8   4   1  157.62   13.01
  -8   4   1  165.35   13.62
   8   4  -1  181.72   14.89
   8   4  -1  156.45   12.99
  -6  -4   1  133.62    9.90
  -6   4   1  121.48    9.43
  -6   4   1  116.25    9.84
   6   4  -1  109.09    9.40
   6   4  -1  103.03   10.75
   6   4  -1  121.62    9.35
   4  -4  -1   13.28    1.33
  -4  -4   1   13.97    1.17
  -4   4   1   14.22    1.15
   4   4  -1   11.75    1.31
   4   4  -1   11.52    1.08
  -4   4   1   12.96    1.12
   4   4  -1   12.17    1.12
   2  -4  -1  174.81   15.83
  -2  -4   1  177.04   15.85
  -2  -4   1  198.15   14.52
   2   4  -1  169.44   13.83
  -2   4   1  165.44   13.85
   2   4  -1  164.12   13.85
  -2   4   1  163.76   13.84
  -2   4   1  177.13   14.49
   0  -4   1  101.36    8.64
   0  -4  -1   97.80    8.60
   0   4  -1   85.47    7.51
   0   4   1   89.51    7.51
   0   4   1  101.55    7.86
   0   4   1   93.94    7.51
   0   4  -1   87.98    7.51
   2   4   1   72.40    6.55
   2   4   1   82.44    5.72
  -2   4  -1   63.06    5.70
  -2   4  -1   74.65    5.74
   2   4   1   70.77    5.98
   2   4   1   63.88    5.70
   4  -4   1   75.66    6.55
   4   4   1   71.13    5.93
  -4   4  -1   61.07    5.63
   4   4   1   75.19    6.49
   4   4   1   66.95    5.63
   4   4   1   73.21    5.65
   6  -4   1   14.67    1.47
  -6   4  -1   13.14    1.17
   6   4   1   15.39    1.18
  -6   4  -1   13.17    1.25
   6   4   1   11.95    1.24
   6   4   1   14.00    1.16
   6   4   1   12.35    1.39
   8  -4   1    6.20    0.87
  -8  -4  -1    5.33    0.63
   8   4   1    5.31    0.59
  -8   4  -1    5.97    0.58
   8   4   1    5.85    0.80
  -8   4  -1    5.67    0.71
  -8   4  -1    5.21    0.57
   8   4   1    4.99    0.54
 -10  -4  -1  142.39   12.62
  10  -4   1  148.03   11.99
  10  -4   1  142.95   13.76
 -10  -4  -1  155.74   11.97
  10   4   1  148.03   13.76
  10   4   1  163.74   11.99
 -10   4  -1  143.23   12.04
 -10   4  -1  152.88   12.58
  12  -4   1    0.20    0.34
 -12  -4  -1    0.08    0.26
 -12  -4  -1    0.56    0.23
  12  -4   1    0.06    0.22
  12   4   1    0.74    0.25
 -12   4  -1    0.22    0.30
  12   4   1   -0.16    0.28
 -12   4  -1    0.26    0.24
  14  -4   1  113.76    9.60
 -14  -4  -1  101.13    8.24
  14  -4   1   86.20    8.29
 -14  -4  -1   85.71    8.73
 -14   4  -1  110.57    8.73
  14   4   1  103.65    9.53
 -14   4  -1  114.11    8.36
  14   4   1  110.86    8.28
  16  -4   1   20.10    1.90
  16  -4   1   22.54    2.29
 -16  -4  -1   23.83    2.05
  16   4   1   20.65    1.85
 -16   4  -1   18.53    1.91
  16   4   1   25.18    2.27
 -16   4  -1   20.82    1.99
  18  -4   1   72.29    6.98
  18  -4   1   68.38    6.02
 -18   4  -1   64.47    6.31
 -18   4  -1   89.78    6.08
  18   4   1   76.67    6.96
  18   4   1   71.50    5.96
  20  -4   1    1.55    0.60
  20  -4   1    2.13    0.51
 -20  -4  -1    1.47    0.47
  20   4   1    1.96    0.60
 -20   4  -1    1.84    0.47
  20   4   1    1.53    0.40
 -20   4  -1    2.53    0.55
  22  -4   1    5.77    1.03
 -22  -4  -1    6.99    0.94
  22   4   1    5.95    1.05
 -22   4  -1    6.29    0.92
 -22   4  -1    5.93    0.86
 -24  -4  -1    3.02    0.66
  24  -4   1    1.98    0.67
 -24   4  -1    1.93    0.55
 -24   4  -1    3.21    0.65
  24   4   1    1.61    0.61
 -26  -4  -1   20.01    1.90
  26  -4   1   21.11    2.22
 -26   4  -1   21.62    1.84
 -26   4  -1   15.21    1.90
  26   4   1   16.53    2.05
  28  -4   1    2.41    0.81
 -28  -4  -1    4.77    0.82
 -28   4  -1    4.02    0.75
  28   4   1    3.73    0.88
 -30  -4  -1   19.26    1.94
  30  -4   1   17.26    2.15
  30   4   1   18.03    2.12
  32  -4   1    0.13    0.51
 -32  -4  -1    0.10    0.43
  32   4   1   -0.02    0.49
 -34  -4  -1   13.79    1.52
  34  -4   1    6.62    1.49
  34   4   1   13.77    1.73
 -33  -5   1   20.03    2.06
  33   5  -1   18.91    2.24
 -31  -5   1  111.00   10.33
  31  -5  -1  133.42   11.41
  31   5  -1  118.26   11.26
  29  -5  -1   22.19    2.33
  29   5  -1   18.20    2.20
 -27  -5   1  185.41   16.18
  27  -5  -1  191.38   17.63
  27   5  -1  168.43   17.56
 -27   5   1  217.26   15.40
  25  -5  -1   17.88    1.93
 -25  -5   1   17.57    1.73
  25   5  -1   13.84    1.82
 -25   5   1   14.97    1.56
  23  -5  -1  165.37   14.18
 -23  -5   1  176.13   14.89
  23  -5  -1  195.88   16.24
 -23   5   1  152.96   14.87
 -23   5   1  177.18   14.13
  23   5  -1  184.70   14.12
  23   5  -1  176.01   16.19
 -21  -5   1   15.55    1.69
  21  -5  -1   20.07    1.96
  21  -5  -1   14.97    1.62
  21   5  -1   14.65    1.54
 -21   5   1   17.02    1.69
 -21   5   1   15.10    1.57
  21   5  -1   20.46    1.91
  19  -5  -1  272.06   26.24
  19  -5  -1  284.72   22.98
 -19  -5   1  309.76   24.13
  19   5  -1  272.27   26.20
  19   5  -1  291.37   22.92
 -19   5   1  282.52   24.10
 -19   5   1  294.88   22.94
  17  -5  -1   12.21    1.44
 -17  -5   1   11.45    1.26
  17  -5  -1   12.74    1.26
 -17   5   1   12.16    1.27
  17   5  -1   12.95    1.45
  17   5  -1   11.26    1.18
 -17   5   1   12.60    1.23
 -15  -5   1  362.68   28.54
  15  -5  -1  373.68   27.18
  15  -5  -1  306.09   31.01
  15   5  -1  326.16   27.13
 -15   5   1  345.72   28.51
 -15   5   1  329.23   27.14
  13  -5  -1    3.63    0.71
 -13  -5   1    3.54    0.60
  13  -5  -1    3.84    0.56
 -13   5   1    4.36    0.62
  13   5  -1    3.62    0.70
 -13   5   1    4.15    0.55
  13   5  -1    3.91    0.55
  11  -5  -1  372.68   27.91
 -11  -5   1  336.33   29.31
 -11   5   1  356.40   29.26
 -11   5   1  339.55   27.90
  11   5  -1  346.19   27.90
  -9  -5   1   22.91    2.01
   9  -5  -1   21.21    1.89
   9  -5  -1   22.89    2.24
  -9   5   1   22.42    1.94
  -9   5   1   16.74    1.90
   9   5  -1   22.35    2.21
   9   5  -1   24.77    1.90
   7  -5  -1  621.68   55.53
  -7  -5   1  631.48   51.08
  -7   5   1  591.88   48.63
   7   5  -1  604.54   48.64
  -5  -5   1   57.67    4.79
   5  -5  -1   58.20    5.28
   5   5  -1   54.90    4.57
   5   5  -1   52.23    5.24
  -5   5   1   62.42    4.60
  -5   5   1   56.41    4.73
   5   5  -1   52.40    4.52
  -3  -5   1  416.67   37.32
  -3  -5   1  436.86   34.28
   3  -5  -1  446.61   37.33
   3   5  -1  376.85   32.63
  -3   5   1  437.97   34.24
   3   5  -1  384.66   32.67
  -3   5   1  377.04   32.66
  -1  -5   1  138.08   11.91
   1  -5  -1  128.66   11.87
  -1  -5   1  142.70   10.84
  -1   5   1  126.37   10.36
  -1   5   1  127.31   10.82
   1   5  -1  131.66   10.37
   1   5  -1  126.86   10.35
  -1   5   1  115.09   10.35
  -1  -5  -1  534.34   51.43
  -1   5  -1  600.71   45.06
   3  -5   1  177.05   16.87
   3   5   1  209.41   14.72
  -3   5  -1  180.95   14.71
   3   5   1  178.91   16.82
   3   5   1  187.23   14.73
   3   5   1  174.86   15.44
  -3   5  -1  180.65   14.74
   5  -5   1  528.98   44.01
   5   5   1  473.80   43.95
   5   5   1  441.13   38.50
  -5   5  -1  436.13   38.51
   5   5   1  518.05   40.42
   5   5   1  455.42   38.46
  -5   5  -1  541.09   38.51
  -7  -5  -1   14.57    1.38
  -7   5  -1   18.24    1.32
   7   5   1   15.08    1.57
   7   5   1   15.17    1.28
  -7   5  -1   13.09    1.35
   7   5   1   12.52    1.30
  -9  -5  -1  529.76   45.39
   9  -5   1  576.23   49.40
  -9   5  -1  513.88   43.23
   9   5   1  554.80   43.22
   9   5   1  486.30   49.33
   9   5   1  524.48   43.15
  -9   5  -1  570.11   43.21
  -9   5  -1  595.72   45.33
 -11  -5  -1   25.56    2.43
 -11  -5  -1   26.41    2.25
  11  -5   1   28.61    2.29
 -11   5  -1   28.89    2.36
  11   5   1   26.81    2.27
 -11   5  -1   25.44    2.33
  11   5   1   26.15    2.69
  13  -5   1  304.84   26.36
  13  -5   1  353.47   30.20
 -13  -5  -1  340.42   26.31
 -13  -5  -1  323.82   27.70
  13   5   1  293.88   30.11
 -13   5  -1  342.02   26.39
  13   5   1  340.65   26.35
 -13   5  -1  348.53   27.67
  15  -5   1  109.81   10.24
 -15  -5  -1  103.50    9.34
  15  -5   1  105.18    8.86
  15   5   1   95.59    8.81
 -15   5  -1  118.82    9.31
  15   5   1  112.05   10.20
 -15   5  -1  125.89    8.91
 -17  -5  -1  220.20   15.40
  17  -5   1  167.61   16.72
 -17   5  -1  187.73   15.32
 -17   5  -1  162.83   14.59
  17   5   1  172.21   16.71
  17   5   1  181.01   14.54
  19  -5   1   51.00    4.73
 -19  -5  -1   57.40    4.99
  19   5   1   56.71    4.68
 -19   5  -1   65.37    4.78
  19   5   1   46.08    5.41
 -19   5  -1   65.71    5.01
 -21  -5  -1  127.94   10.91
  21  -5   1  123.75   11.92
  21   5   1  153.66   11.94
 -21   5  -1  109.47   10.33
 -23  -5  -1  134.46   12.02
  23  -5   1  121.05   13.08
 -23   5  -1  149.25   11.44
  23   5   1  159.93   13.13
 -25  -5  -1   63.07    5.78
  25  -5   1   69.22    6.39
 -25   5  -1   67.64    5.51
  25   5   1   63.51    6.33
 -27  -5  -1  101.72    9.74
 -27   5  -1  116.43    9.30
  27   5   1  124.06   10.70
  29  -5   1   61.26    5.96
 -29  -5  -1   66.91    5.44
  29   5   1   54.82    5.84
 -29   5  -1   59.76    5.12
  31  -5   1   73.63    7.62
 -31  -5  -1   81.47    6.98
  31   5   1   82.09    7.59
  33  -5   1   33.47    3.63
 -33  -5  -1   35.90    3.25
  33   5   1   32.73    3.52
  34   6  -1    6.82    1.22
 -32  -6   1  118.83    8.85
  32   6  -1   85.89    9.47
  30  -6  -1    5.74    1.31
 -30  -6   1    7.12    1.08
  30   6  -1    8.03    1.29
 -28  -6   1  115.29   10.76
  28  -6  -1  118.02   11.76
 -28   6   1  137.29   10.26
  28   6  -1  130.59   11.74
 -26  -6   1   13.06    1.65
  26  -6  -1   16.86    2.05
  26   6  -1   14.91    1.75
 -26   6   1   13.50    1.49
  24  -6  -1  156.72   13.89
  24  -6  -1  192.99   15.90
  24   6  -1  165.13   15.82
 -24   6   1  171.39   13.82
  22  -6  -1   53.60    4.76
  22  -6  -1   48.44    4.10
 -22  -6   1   47.03    4.26
  22   6  -1   48.26    3.98
  22   6  -1   47.48    4.65
 -22   6   1   41.86    4.00
  20  -6  -1  193.05   14.70
 -20  -6   1  149.23   15.37
  20  -6  -1  205.59   16.85
  20   6  -1  183.97   16.76
 -20   6   1  178.86   14.63
  20   6  -1  184.73   14.61
 -18  -6   1   76.48    5.78
  18  -6  -1   63.48    5.47
  18  -6  -1   68.36    6.33
 -18   6   1   63.82    5.45
  18   6  -1   58.52    6.24
  18   6  -1   65.79    5.40
  16  -6  -1  205.58   18.86
 -16  -6   1  198.90   17.29
  16  -6  -1  183.75   16.47
 -16   6   1  205.25   16.47
  16   6  -1  232.30   16.45
 -14  -6   1  139.98   12.63
  14  -6  -1  150.48   12.04
  14  -6  -1  153.07   13.80
  14   6  -1  171.36   13.81
  14   6  -1  133.97   11.99
 -14   6   1  151.61   12.04
  12  -6  -1   60.57    6.63
 -12  -6   1   72.50    6.07
 -12   6   1   71.08    5.78
  12   6  -1   65.31    6.60
  12   6  -1   72.15    5.74
 -12   6   1   79.27    6.01
  10  -6  -1  404.98   30.38
  10  -6  -1  359.98   34.69
 -10  -6   1  361.83   31.89
  10   6  -1  372.06   34.67
 -10   6   1  405.72   31.83
  10   6  -1  382.32   30.36
  -8  -6   1  256.74   18.80
  -8   6   1  218.25   18.69
  -8   6   1  224.08   17.90
   8   6  -1  212.02   17.80
   8   6  -1  218.81   17.88
   8   6  -1  216.09   20.43
  -6  -6   1  413.91   33.31
   6   6  -1  389.51   31.73
   6   6  -1  367.15   31.66
  -6   6   1  406.54   31.73
   6   6  -1  419.78   36.23
  -4  -6   1  157.22   16.37
   4  -6  -1  173.94   16.39
  -4  -6   1  189.83   15.00
  -4   6   1  194.15   14.34
   4   6  -1  158.14   14.30
   4   6  -1  194.48   14.29
  -4   6   1  185.24   14.31
   2  -6  -1  334.97   31.34
  -2  -6   1  360.76   28.74
  -2  -6   1  343.78   31.34
  -2   6   1  338.47   27.40
   2   6  -1  352.37   27.39
  -2   6   1  323.95   28.70
   2   6  -1  326.22   27.41
  -2   6   1  377.10   27.42
   0  -6   1  111.71   10.21
   0  -6  -1  118.00   10.21
   0   6  -1   97.43    8.87
   0   6   1  124.49    8.89
   0   6   1  104.12    9.26
  -2  -6  -1  355.79   29.80
   2  -6   1  321.11   29.83
   2   6   1  330.15   27.33
  -2   6  -1  319.67   26.07
   2   6   1  292.10   26.06
   2   6   1  348.47   26.05
  -2   6  -1  327.49   26.06
   4  -6   1   35.33    3.17
   4   6   1   28.15    2.63
  -4   6  -1   31.73    2.68
   4   6   1   31.21    3.06
  -4   6  -1   31.49    2.64
   4   6   1   33.58    2.64
   6  -6   1  208.99   18.78
   6   6   1  175.43   18.69
   6   6   1  179.06   16.34
   6   6   1  235.05   16.33
  -6   6  -1  207.08   16.39
  -6   6  -1  222.91   16.34
  -8  -6  -1   83.80    6.49
  -8   6  -1   66.93    6.13
   8   6   1   71.42    6.12
  -8   6  -1   76.65    6.21
   8   6   1   82.82    6.16
  10  -6   1  152.57   12.47
 -10  -6  -1  133.37   11.36
  10   6   1  118.82   10.76
  10   6   1  130.76   10.74
 -10   6  -1  130.56   10.83
  10   6   1  147.35   12.42
  12  -6   1   27.25    3.16
 -12  -6  -1   30.93    2.85
 -12  -6  -1   36.97    2.70
  12  -6   1   30.43    2.68
  12   6   1   29.42    3.13
  12   6   1   32.23    2.67
 -12   6  -1   34.33    2.75
  14  -6   1  342.93   27.94
 -14  -6  -1  345.42   29.35
  14  -6   1  355.42   31.98
  14   6   1  336.85   31.91
 -14   6  -1  355.80   27.94
  14   6   1  365.10   27.91
  16  -6   1    0.47    0.31
 -16  -6  -1    0.64    0.33
  16  -6   1    0.33    0.46
 -16   6  -1    0.75    0.38
  16   6   1    0.45    0.45
  16   6   1    1.13    0.33
 -18  -6  -1  231.07   19.32
  18  -6   1  223.25   18.37
  18   6   1  229.46   18.33
  18   6   1  238.99   21.04
 -18   6  -1  223.54   18.37
  20  -6   1   50.68    4.43
 -20  -6  -1   53.94    4.01
  20  -6   1   42.39    3.77
  20   6   1   41.42    3.68
 -20   6  -1   40.40    3.73
  20   6   1   38.38    4.27
 -22  -6  -1  255.30   21.02
  22  -6   1  255.97   22.93
 -22   6  -1  236.54   19.96
 -24  -6  -1   -0.27    0.32
  24  -6   1    0.51    0.55
 -24   6  -1   -0.25    0.35
  24   6   1   -0.22    0.37
 -26  -6  -1  161.28   13.50
  26  -6   1  147.82   14.71
 -26   6  -1  156.70   12.83
  26   6   1  167.83   14.73
 -28  -6  -1    1.10    0.53
  28  -6   1    0.32    0.57
 -28   6  -1    0.27    0.42
  28   6   1    1.12    0.56
 -30  -6  -1  119.47    9.80
  30  -6   1  112.78   10.72
  30   6   1  116.29   10.66
 -30   6  -1  104.78    9.26
 -32  -6  -1    3.77    0.84
  32  -6   1    4.56    1.04
  32   6   1    4.82    1.01
 -33  -7   1    5.15    0.88
  33   7  -1    2.57    0.82
 -31  -7   1    0.21    0.45
  31   7  -1    0.04    0.51
 -29  -7   1    3.16    0.70
 -29   7   1    2.18    0.64
  29   7  -1    4.13    0.93
  27  -7  -1    4.88    1.03
 -27  -7   1    5.61    0.92
 -27   7   1    4.73    0.82
  27   7  -1    3.04    0.89
 -25  -7   1    0.56    0.45
  25  -7  -1    1.47    0.63
  25   7  -1    0.95    0.60
 -25   7   1   -0.44    0.36
  23  -7  -1    2.32    0.76
 -23  -7   1    3.11    0.66
  23  -7  -1    2.45    0.62
 -23   7   1    1.27    0.51
  23   7  -1    2.26    0.51
  23   7  -1    1.72    0.68
  21  -7  -1    0.42    0.51
  21  -7  -1    0.48    0.42
 -21  -7   1    0.43    0.41
 -21   7   1   -0.12    0.36
  21   7  -1    0.28    0.42
  21   7  -1    0.87    0.37
  19  -7  -1    5.52    0.90
 -19  -7   1    7.72    1.03
  19  -7  -1    6.08    1.13
  19   7  -1    8.67    1.21
  19   7  -1    6.35    0.85
 -19   7   1    9.06    1.01
  17  -7  -1   -0.03    0.29
 -17  -7   1    0.39    0.37
  17  -7  -1    0.65    0.49
 -17   7   1   -0.18    0.33
  17   7  -1    0.28    0.43
  17   7  -1    0.02    0.27
  15  -7  -1    0.30    0.31
  15  -7  -1    1.08    0.50
 -15  -7   1    0.71    0.36
  15   7  -1    1.02    0.33
  15   7  -1    0.86    0.47
 -15   7   1    1.05    0.39
 -13  -7   1    8.06    1.00
  13  -7  -1   10.17    0.94
  13  -7  -1    5.89    1.13
 -13   7   1   10.62    0.99
  13   7  -1    5.71    1.05
  13   7  -1    9.58    0.92
  11  -7  -1   12.01    1.48
  11  -7  -1   11.43    1.22
 -11  -7   1   16.06    1.34
  11   7  -1   12.94    1.49
  11   7  -1   13.94    1.24
 -11   7   1   11.93    1.27
  -9  -7   1    3.53    0.54
   9  -7  -1    3.24    0.71
  -9   7   1    2.38    0.52
   9   7  -1    3.65    0.68
   9   7  -1    3.28    0.42
   9   7  -1    3.33    0.51
   7  -7  -1    5.86    0.90
  -7  -7   1    4.41    0.62
   7   7  -1    4.91    0.53
  -7   7   1    5.48    0.62
  -7   7   1    4.46    0.66
   7   7  -1    4.89    0.81
   7   7  -1    4.01    0.58
  -5  -7   1   12.64    1.29
   5  -7  -1   14.88    1.58
  -5  -7   1   13.96    1.55
  -5   7   1   13.37    1.25
  -5   7   1   14.85    1.32
   5   7  -1   13.50    1.24
   5   7  -1   14.14    1.28
  -3  -7   1   11.61    1.08
  -3  -7   1    9.24    1.40
   3  -7  -1   11.47    1.34
   3   7  -1   11.24    1.09
   3   7  -1   11.91    1.08
  -3   7   1   11.94    1.07
  -3   7   1   10.65    1.11
  -1  -7   1   -0.42    0.12
   1  -7  -1   -0.04    0.32
  -1  -7   1   -0.50    0.31
   1   7  -1    0.16    0.25
  -1   7   1   -0.01    0.23
  -1   7   1   -0.08    0.23
   1   7  -1   -0.13    0.22
  -1  -7  -1   58.88    5.35
   1  -7   1   59.96    5.40
   1   7   1   58.57    4.61
  -1   7  -1   45.52    4.60
  -1   7  -1   60.09    4.61
   1   7   1   56.38    4.61
  -3  -7  -1    0.07    0.18
   3  -7   1    0.51    0.39
  -3  -7  -1   -0.01    0.33
   3   7   1    0.02    0.20
   3   7   1    0.12    0.23
  -3   7  -1    0.01    0.21
  -3   7  -1    0.27    0.27
  -5  -7  -1   26.97    2.32
   5  -7   1   25.78    2.69
  -5   7  -1   20.81    2.24
  -5   7  -1   25.61    2.21
   5   7   1   27.71    2.64
   5   7   1   28.00    2.23
   5   7   1   28.07    2.22
   7  -7   1    2.65    0.59
  -7  -7  -1    1.65    0.37
   7   7   1    2.14    0.35
   7   7   1    1.34    0.44
  -7   7  -1    1.72    0.44
  -7   7  -1    1.78    0.36
   7   7   1    2.10    0.37
  -9  -7  -1   25.90    2.36
   9  -7   1   24.06    2.67
  -9   7  -1   25.74    2.22
   9   7   1   24.04    2.61
   9   7   1   31.13    2.26
   9   7   1   25.19    2.19
  -9   7  -1   26.52    2.30
 -11  -7  -1    4.76    0.69
  11  -7   1    4.42    0.86
  11   7   1    5.91    0.85
 -11   7  -1    3.89    0.68
  11   7   1    5.05    0.62
  13  -7   1    7.02    0.89
 -13  -7  -1    9.07    1.02
  13  -7   1    7.99    1.25
  13   7   1    8.09    1.14
  13   7   1    7.54    0.87
 -13   7  -1    7.78    0.97
 -15  -7  -1    9.39    1.26
  15  -7   1   13.04    1.20
  15  -7   1   10.89    1.55
 -15   7  -1    9.62    1.23
  15   7   1   12.60    1.41
  15   7   1   12.58    1.14
  17  -7   1    0.41    0.49
  17  -7   1    0.69    0.36
 -17  -7  -1    0.87    0.40
 -17   7  -1    0.27    0.35
  17   7   1    0.57    0.31
  17   7   1    0.77    0.48
  19  -7   1    1.25    0.46
  19  -7   1    1.69    0.65
 -19  -7  -1    1.98    0.53
 -19   7  -1    1.44    0.47
  19   7   1    1.43    0.54
  19   7   1    1.56    0.42
 -21  -7  -1    8.32    1.10
  21  -7   1    6.20    1.19
 -21   7  -1    8.88    1.05
  21   7   1    7.07    1.18
  23  -7   1    3.84    0.94
 -23  -7  -1    3.12    0.67
  23   7   1    2.41    0.70
 -23   7  -1    3.97    0.70
 -25  -7  -1   -0.08    0.39
  25  -7   1    0.71    0.60
  25   7   1    0.52    0.54
 -25   7  -1    0.36    0.43
  27  -7   1   12.32    1.63
 -27  -7  -1    8.15    1.27
 -27   7  -1    9.87    1.24
  27   7   1    9.83    1.47
 -29  -7  -1    4.44    0.83
 -29   7  -1    3.76    0.72
  29   7   1    2.34    0.79
 -31  -7  -1    1.00    0.54
  31  -7   1    0.20    0.61
  31   7   1    1.03    0.61
 -31   7  -1    1.92    0.59
 -30  -8   1    2.76    0.71
 -30   8   1    2.65    0.68
  30   8  -1    4.09    0.89
 -28  -8   1   43.26    4.17
 -28   8   1   45.58    3.98
  28   8  -1   50.04    4.62
 -26  -8   1   10.88    1.39
  26   8  -1    9.63    1.46
 -26   8   1   10.12    1.25
  24  -8  -1   50.09    5.17
 -24  -8   1   51.67    4.65
  24   8  -1   53.35    4.44
 -24   8   1   52.53    4.41
  24   8  -1   50.87    5.05
 -22  -8   1   48.47    4.52
  22  -8  -1   49.40    4.98
  22  -8  -1   55.37    4.37
 -22   8   1   50.18    4.28
  22   8  -1   46.02    4.87
  22   8  -1   52.00    4.23
  20  -8  -1   64.89    5.43
 -20  -8   1   64.00    5.69
  20   8  -1   63.34    5.34
  20   8  -1   63.27    6.19
 -20   8   1   67.54    5.40
  18  -8  -1   61.06    4.62
 -18  -8   1   54.59    4.82
  18  -8  -1   56.27    5.34
 -18   8   1   55.31    4.57
  18   8  -1   58.15    4.53
  18   8  -1   42.06    5.17
  16  -8  -1  111.53    9.27
 -16  -8   1  107.83    9.73
  16   8  -1  102.71   10.57
  16   8  -1  127.43    9.24
 -16   8   1  118.75    9.27
  14  -8  -1   50.79    4.74
  14  -8  -1   56.36    5.53
  14   8  -1   56.17    4.73
  14   8  -1   58.89    5.50
 -14   8   1   65.50    4.81
  12  -8  -1   76.08    6.29
  12  -8  -1   93.46    7.34
 -12  -8   1   75.90    6.62
  12   8  -1   68.84    6.25
  12   8  -1   77.12    7.24
 -12   8   1   74.30    6.32
  10  -8  -1   56.75    5.09
 -10  -8   1   64.67    5.39
  10  -8  -1   61.34    5.95
 -10   8   1   62.55    5.15
  10   8  -1   65.66    5.09
   8  -8  -1   77.58    8.36
  -8  -8   1   82.54    7.61
   8   8  -1  103.04    7.22
  -8   8   1   86.22    7.28
   8   8  -1   91.70    7.25
  -8   8   1   92.44    7.23
  -6  -8   1  195.36   15.83
  -6  -8   1  181.23   17.30
   6  -8  -1  191.33   17.32
   6   8  -1  182.67   15.08
  -6   8   1  183.10   15.10
   6   8  -1  196.02   15.05
   4  -8  -1  117.64   11.29
  -4  -8   1  132.49   10.27
   4   8  -1  122.82    9.80
   4   8  -1  130.03    9.79
  -4   8   1  125.28    9.80
  -4   8   1  101.22    9.80
   2  -8  -1   85.38    8.07
  -2  -8   1   92.26    8.08
  -2   8   1   85.43    6.95
  -2   8   1   80.19    6.97
   2   8  -1   91.57    6.96
   2   8  -1   82.24    6.96
   0  -8   1   49.17    5.02
   0  -8  -1   48.86    4.98
   0   8  -1   54.04    4.29
   0   8   1   58.75    4.31
   0   8   1   48.99    4.28
   0   8  -1   52.26    4.30
   2  -8   1   79.44    7.20
  -2  -8  -1   79.15    6.43
  -2  -8  -1   73.82    7.13
  -2   8  -1   77.38    6.17
   2   8   1   73.70    6.16
   2   8   1   74.88    6.16
  -2   8  -1   73.17    6.19
  -4  -8  -1    3.08    0.46
  -4  -8  -1    3.02    0.64
   4  -8   1    3.70    0.72
   4   8   1    2.47    0.44
  -4   8  -1    2.57    0.49
  -4   8  -1    3.59    0.49
   4   8   1    3.12    0.47
   6  -8   1  128.98   13.14
  -6  -8  -1  148.48   11.98
   6   8   1  149.02   13.11
  -6   8  -1  142.19   11.40
   6   8   1  141.02   11.41
   8  -8   1   16.01    1.83
  -8  -8  -1   14.08    1.49
   8   8   1   16.73    1.45
  -8   8  -1   16.48    1.43
   8   8   1   15.93    1.42
  -8   8  -1   15.32    1.51
 -10  -8  -1  219.79   17.26
  10  -8   1  199.59   18.85
 -10   8  -1  210.11   16.45
  10   8   1  188.52   18.76
  10   8   1  208.85   16.40
 -10   8  -1  202.01   16.38
  12  -8   1   10.86    1.10
  12  -8   1   10.14    1.49
 -12  -8  -1   10.07    1.17
 -12   8  -1   11.12    1.17
  12   8   1   15.43    1.46
  12   8   1   10.34    1.10
  14  -8   1   86.02    8.74
 -14  -8  -1   96.16    7.97
 -14   8  -1   93.55    7.59
  14   8   1   91.71    7.52
  14   8   1   95.44    8.70
  16  -8   1    5.74    0.89
  16  -8   1    8.19    1.27
 -16  -8  -1    8.76    1.04
  16   8   1    6.88    1.10
 -16   8  -1    8.20    0.99
  16   8   1    7.55    0.88
  18  -8   1  140.26   11.01
  18  -8   1  149.03   12.71
 -18  -8  -1  145.19   11.57
  18   8   1  113.46   12.54
 -18   8  -1  125.86   10.97
  18   8   1  141.52   10.94
 -20  -8  -1    1.28    0.50
  20  -8   1    1.29    0.63
  20  -8   1    1.88    0.53
 -20   8  -1    1.37    0.48
  20   8   1    2.24    0.50
  20   8   1    1.62    0.61
  22  -8   1  121.03   10.60
 -22  -8  -1  117.65    9.65
 -22   8  -1  107.67    9.14
  22   8   1  102.93   10.50
 -24  -8  -1   -0.10    0.36
  24  -8   1    0.83    0.64
 -24   8  -1    1.07    0.44
  24   8   1    0.77    0.59
  26  -8   1   40.30    4.35
 -26  -8  -1   44.45    3.93
  26   8   1   38.59    4.26
 -26   8  -1   45.80    3.69
  28  -8   1    3.23    0.93
 -28  -8  -1    4.08    0.83
 -28   8  -1    4.48    0.78
  28   8   1    4.62    0.94
 -30  -8  -1   54.61    4.98
 -30   8  -1   58.74    4.72
  30   8   1   51.65    5.43
 -29  -9   1    6.12    1.01
 -29   9   1    4.97    0.86
  29   9  -1    5.59    1.10
 -27  -9   1  107.20    8.34
  27   9  -1   88.94    9.00
 -27   9   1   91.28    7.86
 -25  -9   1   10.64    1.36
 -25   9   1    9.09    1.20
  25   9  -1   10.14    1.48
  23  -9  -1  146.71   11.68
 -23  -9   1  137.86   12.19
 -23   9   1  140.64   11.57
  23   9  -1  139.30   11.54
  23   9  -1  149.22   13.26
  21  -9  -1    7.53    1.10
  21  -9  -1    5.91    1.20
 -21  -9   1    8.37    1.12
 -21   9   1    7.19    1.01
  21   9  -1    8.78    1.29
  21   9  -1    7.83    0.97
  19  -9  -1  244.62   18.48
 -19  -9   1  243.11   19.40
  19  -9  -1  221.24   21.13
  19   9  -1  219.12   21.05
 -19   9   1  230.14   18.41
  19   9  -1  217.68   18.36
  17  -9  -1    8.72    1.07
  17  -9  -1    8.66    1.36
 -17  -9   1    9.00    1.15
  17   9  -1    7.86    0.97
  17   9  -1    7.72    1.19
 -17   9   1    8.59    1.08
 -15  -9   1  322.89   27.13
  15   9  -1  307.39   25.75
  15   9  -1  326.15   29.49
 -15   9   1  336.24   25.82
  13  -9  -1    0.22    0.30
  13  -9  -1    0.39    0.52
 -13  -9   1    0.40    0.36
 -13   9   1    0.20    0.34
  13   9  -1    0.05    0.34
  13   9  -1    0.37    0.33
  11  -9  -1  333.91   31.73
 -11  -9   1  332.77   29.11
  11   9  -1  297.70   27.66
  11   9  -1  400.77   31.69
 -11   9   1  376.08   27.74
  -9  -9   1    0.14    0.41
  -9  -9   1    0.28    0.30
   9  -9  -1    0.13    0.43
  -9   9   1    0.05    0.22
   9   9  -1    0.50    0.30
  -9   9   1    0.36    0.31
   7  -9  -1  389.10   34.00
  -7  -9   1  395.94   33.96
  -7   9   1  385.83   29.66
  -7   9   1  372.01   29.67
   7   9  -1  371.48   29.67
   7   9  -1  324.21   29.61
  -5  -9   1    0.45    0.42
   5  -9  -1    0.98    0.48
  -5   9   1    0.26    0.25
   5   9  -1    0.17    0.26
   5   9  -1    0.09    0.25
  -5   9   1    0.71    0.34
   3  -9  -1  445.82   40.44
  -3  -9   1  419.63   40.41
  -3   9   1  443.01   35.33
  -3   9   1  450.72   35.34
   3   9  -1  459.68   35.32
  -1  -9   1   27.26    2.79
   1  -9  -1   28.23    2.80
  -1   9   1   25.17    2.30
   1   9  -1   27.18    2.35
   1   9  -1   29.28    2.34
  -1   9   1   25.78    2.34
  -1  -9  -1  139.13   11.62
   1   9   1  108.41   10.02
  -1   9  -1  117.48   10.03
  -1   9  -1  133.83   10.08
   1   9   1  128.81   10.05
  -3  -9  -1    7.21    1.09
   3  -9   1    4.99    1.00
  -3   9  -1    6.10    0.83
   3   9   1    6.07    0.77
  -3   9  -1    7.22    0.79
   3   9   1    8.41    0.85
  -5  -9  -1  339.33   29.59
   5  -9   1  319.77   29.64
   5   9   1  326.39   25.83
   5   9   1  331.62   25.84
  -5   9  -1  298.58   25.86
  -5   9  -1  329.35   25.83
  -7  -9  -1   94.67    8.72
   7  -9   1   88.13    9.62
  -7  -9  -1  101.64    9.59
   7   9   1  117.88    8.33
  -7   9  -1   95.44    8.34
  -7   9  -1  119.82    8.32
   7   9   1   99.26    8.29
  -9  -9  -1  234.13   22.95
   9  -9   1  273.43   25.12
  -9   9  -1  263.41   21.89
  -9   9  -1  296.99   21.88
   9   9   1  288.16   21.86
   9   9   1  287.94   25.04
 -11  -9  -1   56.58    4.81
  11  -9   1   49.44    5.33
 -11   9  -1   55.65    4.60
  11   9   1   54.50    5.29
  11   9   1   52.37    4.53
 -11   9  -1   58.91    4.52
  13  -9   1  145.98   12.54
  13  -9   1  151.66   14.45
 -13  -9  -1  161.42   13.20
  13   9   1  162.67   14.39
  13   9   1  178.79   12.54
 -13   9  -1  133.44   12.55
  15  -9   1   59.28    4.99
  15  -9   1   58.40    5.82
 -15  -9  -1   50.21    5.22
  15   9   1   58.25    5.75
 -15   9  -1   71.36    5.06
  15   9   1   63.07    4.96
  17  -9   1  150.52   11.22
 -17  -9  -1  149.96   11.79
  17  -9   1  152.61   12.96
  17   9   1  120.89   12.76
  17   9   1  143.78   11.14
 -17   9  -1  114.24   11.15
 -19  -9  -1  152.20   12.39
  19  -9   1  133.93   11.75
  19  -9   1  141.02   13.56
  19   9   1  132.31   11.69
 -19   9  -1  149.99   11.77
  19   9   1  163.18   13.49
  21  -9   1  172.04   13.42
 -21  -9  -1  119.43   12.10
  21   9   1  146.58   13.24
 -21   9  -1  139.20   11.54
 -23  -9  -1   75.20    6.64
  23  -9   1   85.72    7.41
  23   9   1   75.63    7.23
 -23   9  -1   69.49    6.27
  25  -9   1   84.77    9.24
 -25  -9  -1   97.42    8.44
 -25   9  -1  101.77    8.00
  25   9   1  102.39    9.18
  27  -9   1   27.47    3.08
 -27  -9  -1   29.68    2.72
 -27   9  -1   23.91    2.51
  27   9   1   29.98    2.98
 -29  -9  -1   50.29    4.71
  29   9   1   53.68    5.15
 -29   9  -1   51.99    4.47
 -28  10   1   31.50    2.73
  28  10  -1   28.38    3.15
 -26 -10   1   14.15    1.70
  26  10  -1   14.68    1.85
 -26  10   1   12.08    1.46
 -24 -10   1   50.91    5.33
  24  10  -1   68.26    5.90
 -24  10   1   63.18    5.10
  22 -10  -1   29.98    3.13
 -22 -10   1   37.38    3.32
  22  10  -1   34.76    3.06
  22  10  -1   33.51    3.56
 -22  10   1   40.24    3.14
  20 -10  -1   76.52    5.81
  20 -10  -1   62.11    6.79
 -20 -10   1   75.34    6.08
 -20  10   1   68.35    5.71
  20  10  -1   63.65    5.65
  20  10  -1   65.05    6.54
 -18 -10   1   28.26    2.79
  18 -10  -1   30.11    2.67
  18  10  -1   30.94    2.60
  18  10  -1   28.61    3.06
 -18  10   1   29.29    2.65
  16 -10  -1   93.80    7.91
  16 -10  -1  102.54    9.17
 -16 -10   1   89.14    8.31
  16  10  -1   98.74    7.86
 -16  10   1   98.67    7.91
  14 -10  -1   18.89    2.26
  14 -10  -1   20.06    1.88
 -14  10   1   20.39    1.90
  14  10  -1   19.05    1.83
  14  10  -1   21.67    2.20
  12 -10  -1   49.93    5.01
  12 -10  -1   50.93    4.25
  12  10  -1   51.11    4.23
 -12  10   1   50.28    4.27
  10 -10  -1   38.49    4.00
 -10 -10   1   41.43    3.98
  10 -10  -1   37.81    3.35
 -10  10   1   39.55    3.38
  10  10  -1   40.99    3.36
  -8 -10   1   33.37    3.22
   8  10  -1   32.53    2.70
  -8  10   1   29.86    2.72
  -8  10   1   29.78    2.65
   6 -10  -1   33.37    3.55
  -6 -10   1   34.90    3.51
  -6  10   1   31.72    3.00
  -6  10   1   40.85    2.99
   6  10  -1   33.38    2.95
   4 -10  -1   85.38    8.34
  -4  10   1   89.83    7.19
  -4  10   1  101.02    7.17
   4  10  -1   82.06    7.15
   4  10  -1   81.76    7.15
   2 -10  -1  138.50   13.46
  -2 -10   1  137.75   13.44
   2  10  -1  130.90   11.65
  -2  10   1  134.07   11.65
  -2  10   1  161.46   11.65
   2  10  -1  163.96   11.66
   0 -10  -1   27.75    2.91
   0 -10   1   25.12    2.85
   0  10   1   25.39    2.35
   0  10  -1   32.57    2.41
   0  10   1   22.93    2.37
   0  10  -1   32.11    2.43
   2 -10   1   71.80    7.43
  -2 -10  -1   77.41    7.43
  -2  10  -1   73.08    6.40
   2  10   1   91.27    6.42
  -2  10  -1   77.41    6.37
   2  10   1   77.67    6.38
   4 -10   1   18.54    2.02
  -4 -10  -1   18.37    1.97
  -4  10  -1   16.49    1.63
  -4  10  -1   15.99    1.55
   4  10   1   19.18    1.59
   4  10   1   15.44    1.58
  -6 -10  -1  198.50   17.85
   6  10   1  194.03   15.53
   6  10   1  189.44   15.51
  -6  10  -1  195.06   15.57
  -6  10  -1  192.01   15.51
   8 -10   1   14.49    2.04
  -8 -10  -1   14.11    1.79
  -8  10  -1   18.48    1.52
  -8  10  -1   17.85    1.59
   8  10   1   15.01    1.50
  10 -10   1  164.64   16.11
  10  10   1  168.45   13.96
 -10  10  -1  201.45   14.06
 -10  10  -1  163.11   13.95
  12 -10   1    9.94    1.05
 -12 -10  -1   11.15    1.28
  12 -10   1   10.54    1.52
  12  10   1   10.66    1.42
 -12  10  -1    8.87    1.15
  12  10   1    8.82    1.05
  14 -10   1   84.44    6.93
 -14 -10  -1   84.83    7.32
  14 -10   1   78.37    8.06
  14  10   1   84.22    6.91
  14  10   1   89.05    8.00
 -14  10  -1   85.23    6.96
 -16 -10  -1    2.83    0.63
  16 -10   1    2.59    0.56
  16 -10   1    2.37    0.77
 -16  10  -1    3.18    0.63
  16  10   1    2.16    0.70
  16  10   1    2.95    0.56
  18 -10   1   72.33    7.48
 -18 -10  -1   79.85    6.80
  18 -10   1   73.78    6.46
  18  10   1   72.61    7.39
  18  10   1   75.73    6.41
 -18  10  -1   93.72    6.51
 -20 -10  -1    0.50    0.43
  20 -10   1    1.27    0.70
  20 -10   1    0.66    0.44
  20  10   1    0.52    0.40
 -20  10  -1    1.27    0.49
  20  10   1    0.23    0.55
  22 -10   1   55.73    5.85
 -22 -10  -1   68.29    5.35
  22  10   1   61.44    5.80
 -22  10  -1   52.67    4.97
 -24 -10  -1    3.56    0.74
  24 -10   1    1.69    0.77
 -24  10  -1    1.96    0.58
  24  10   1    2.92    0.74
 -26 -10  -1   48.01    4.48
  26 -10   1   48.10    5.02
  26  10   1   50.76    4.87
 -26  10  -1   49.25    4.23
 -28 -10  -1    0.96    0.52
 -28  10  -1    0.61    0.45
  28  10   1    0.08    0.54
 -27 -11   1    4.45    0.87
  27  11  -1    4.06    0.94
 -27  11   1    4.18    0.77
 -25 -11   1   -0.11    0.47
 -25  11   1    0.10    0.41
  25  11  -1    1.14    0.59
  23 -11  -1    2.45    0.69
  23  11  -1    2.63    0.81
  23  11  -1    3.10    0.66
 -23  11   1    3.63    0.71
  21 -11  -1    7.36    0.97
  21  11  -1    3.94    0.87
 -21  11   1    4.08    0.79
  21  11  -1    6.19    0.84
  19 -11  -1    1.31    0.54
  19  11  -1    1.19    0.61
 -19  11   1    2.16    0.54
  19  11  -1    1.82    0.49
  17 -11  -1    2.79    0.90
  17 -11  -1    3.08    0.67
  17  11  -1    3.75    0.65
 -17  11   1    4.16    0.71
  15 -11  -1    1.70    0.46
  15 -11  -1    1.46    0.67
  15  11  -1    0.95    0.41
 -15  11   1    0.61    0.41
  13 -11  -1    2.72    0.56
 -13 -11   1    3.56    0.82
  13 -11  -1    2.24    0.77
 -13  11   1    2.54    0.60
  13  11  -1    4.20    0.61
 -11 -11   1    9.93    1.39
  11 -11  -1    8.83    1.43
  11 -11  -1    9.00    1.02
 -11  11   1    8.52    1.07
  11  11  -1    7.96    1.00
  -9 -11   1    2.48    0.69
   9 -11  -1    1.64    0.72
   9  11  -1    2.56    0.48
  -9  11   1    2.13    0.52
  -7 -11   1   19.45    2.12
   7 -11  -1   16.85    2.15
  -7  11   1   13.56    1.71
  -7  11   1   23.50    1.72
   7  11  -1   19.45    1.72
   5 -11  -1    9.07    1.32
  -5 -11   1    5.03    1.12
  -5  11   1    6.37    0.91
  -5  11   1    7.95    0.89
   5  11  -1    8.69    0.92
  -3 -11   1   16.89    2.11
   3 -11  -1   16.99    2.15
   3  11  -1   20.93    1.75
  -3  11   1   19.58    1.74
   3  11  -1   18.39    1.77
  -3  11   1   20.77    1.78
  -1 -11   1    5.71    1.14
   1 -11  -1    7.59    1.22
  -1  11   1    6.55    0.81
   1  11  -1    6.82    0.83
  -1  11   1    7.13    0.89
   1  11  -1    7.82    0.93
  -1 -11  -1   10.90    1.92
   1 -11   1   15.81    2.11
   1  11   1   17.74    1.51
  -1  11  -1   16.33    1.56
   1  11   1   16.49    1.56
  -1  11  -1   17.24    1.51
  -3 -11  -1    2.50    0.71
   3 -11   1    3.24    0.81
   3  11   1    3.45    0.59
  -3  11  -1    2.28    0.55
   3  11   1    2.15    0.48
  -3  11  -1    2.75    0.49
  -5 -11  -1   25.11    2.99
   5 -11   1   36.32    3.16
  -5  11  -1   27.52    2.57
  -5  11  -1   33.26    2.54
   5  11   1   27.95    2.54
   5  11   1   26.77    2.50
  -7 -11  -1    0.00    0.44
   7 -11   1    0.15    0.50
  -7  11  -1   -0.18    0.27
  -7  11  -1    0.55    0.38
   7  11   1    0.38    0.31
   9 -11   1    3.09    0.85
  -9 -11  -1    1.24    0.58
  -9  11  -1    1.89    0.44
  -9  11  -1    2.38    0.53
   9  11   1    2.50    0.47
  11 -11   1    1.05    0.62
 -11  11  -1    0.69    0.42
  11  11   1    2.44    0.48
  13 -11   1    3.94    1.00
  13 -11   1    6.97    0.87
 -13  11  -1    4.91    0.81
  13  11   1    5.15    0.75
  13  11   1    6.44    1.02
  15 -11   1    1.16    0.41
  15 -11   1    0.54    0.60
  15  11   1    0.67    0.36
 -15  11  -1    0.04    0.39
  15  11   1    1.69    0.64
  17 -11   1    4.79    1.09
  17 -11   1    6.51    0.92
  17  11   1    7.31    0.83
  17  11   1    5.63    0.99
 -17  11  -1    3.50    0.77
  19 -11   1    0.96    0.63
  19 -11   1    0.98    0.48
  19  11   1    1.11    0.42
 -19  11  -1    1.78    0.54
  19  11   1    1.29    0.65
  21 -11   1    6.62    1.30
 -21 -11  -1    5.60    1.03
 -21  11  -1    7.50    1.01
  21  11   1    7.80    1.26
 -23 -11  -1    6.39    1.04
  23 -11   1    6.04    1.27
  23  11   1    7.19    1.17
 -23  11  -1    5.10    0.90
 -25 -11  -1    0.17    0.47
  25  11   1    0.33    0.54
 -25  11  -1    0.17    0.40
  24  12  -1   50.64    4.52
 -24  12   1   40.21    3.86
  22  12  -1   24.42    2.30
  22  12  -1   26.85    2.71
 -22  12   1   23.75    2.30
  20 -12  -1   84.14    6.54
  20  12  -1   75.01    6.44
 -20  12   1   75.38    6.46
  18 -12  -1   38.07    3.37
 -18 -12   1   37.71    3.89
  18  12  -1   38.08    3.31
 -18  12   1   39.02    3.35
  16 -12  -1   68.56    6.06
 -16 -12   1   68.69    6.98
  16  12  -1   83.34    6.04
 -16  12   1   69.83    6.04
  14 -12  -1   53.36    3.98
  14 -12  -1   43.42    4.68
 -14 -12   1   42.71    4.57
  14  12  -1   41.41    3.88
 -14  12   1   50.03    3.98
  12 -12  -1   67.22    6.75
 -12 -12   1   70.67    6.69
  12 -12  -1   69.91    5.75
  12  12  -1   66.68    5.70
 -12  12   1   71.85    5.78
 -10 -12   1   97.55    8.41
  10 -12  -1   90.99    7.21
  10 -12  -1   86.26    8.43
 -10  12   1   89.53    7.23
  10  12  -1   77.85    7.16
  -8 -12   1   61.65    6.10
   8 -12  -1   67.10    6.20
  -8  12   1   67.48    5.18
  -8  12   1   64.70    5.24
   8  12  -1   54.53    5.17
   6 -12  -1  116.87   10.41
  -6 -12   1  105.49   10.34
  -6  12   1  108.32    8.96
   4 -12  -1   83.85    9.82
  -4 -12   1  106.25    9.88
  -4  12   1  102.50    8.54
   4  12  -1  107.26    8.50
  -4  12   1  120.18    8.52
   2 -12  -1  110.58    9.12
  -2 -12   1   95.79    9.06
   2  12  -1   92.87    7.79
   2  12  -1   94.67    7.75
  -2  12   1   87.20    7.77
   0 -12  -1   35.45    4.12
   0 -12   1   53.72    4.29
   0  12  -1   41.16    3.49
   0  12   1   41.41    3.51
   0  12   1   39.33    3.43
   0  12  -1   38.81    3.45
   2 -12   1  141.52   13.42
  -2 -12  -1  146.82   13.44
   2  12   1  129.23   11.58
   2  12   1  151.02   11.57
  -2  12  -1  151.28   11.61
  -2  12  -1  141.40   11.55
   4 -12   1   41.25    4.34
  -4 -12  -1   35.55    4.23
   4  12   1   38.84    3.63
   4  12   1   43.48    3.61
  -4  12  -1   51.13    3.62
  -4  12  -1   44.04    3.67
  -6 -12  -1  205.20   19.06
   6 -12   1  197.51   19.09
  -6  12  -1  197.09   16.52
  -6  12  -1  193.22   16.57
   6  12   1  236.49   16.57
   8 -12   1   37.42    3.87
  -8 -12  -1   37.39    3.79
  -8  12  -1   31.42    3.14
   8  12   1   39.54    3.16
  -8  12  -1   40.58    3.24
 -10 -12  -1  158.66   14.47
  10 -12   1  152.26   14.50
 -10  12  -1  157.02   12.52
 -10  12  -1  165.82   12.60
  10  12   1  144.48   12.52
 -12 -12  -1    8.88    1.40
  12 -12   1   10.29    1.14
  12 -12   1    8.55    1.52
  12  12   1   10.03    1.10
 -12  12  -1    8.69    1.14
 -14 -12  -1   94.84    9.29
  14 -12   1   96.88    8.07
  14 -12   1   86.83    9.37
 -14  12  -1  107.52    8.12
  14  12   1  104.17    8.05
  16 -12   1    5.42    1.15
  16 -12   1    5.73    0.87
 -16  12  -1    6.27    0.88
  16  12   1    4.59    0.78
  18 -12   1   94.35    9.06
  18  12   1   83.49    7.70
  18  12   1  102.41    8.94
 -18  12  -1   98.99    7.77
  20 -12   1    1.15    0.70
  20  12   1    1.40    0.65
 -20  12  -1    1.77    0.53
  22  12   1   89.78    8.58
 -22  12  -1   91.09    7.48
  24  12   1    6.49    1.17
 -24  12  -1    6.72    0.97
  21 -13  -1    4.18    0.88
 -21 -13   1    4.01    0.96
 -21  13   1    4.80    0.83
  21  13  -1    6.58    0.83
 -19 -13   1  101.10    9.26
  19 -13  -1  101.19    8.07
  19  13  -1   91.47    7.95
 -17 -13   1    1.64    0.67
  17 -13  -1    1.22    0.49
 -17  13   1    1.65    0.55
  17  13  -1    2.18    0.52
 -15 -13   1  107.00   10.89
  15 -13  -1  111.22    9.47
  15  13  -1  120.35    9.44
 -15  13   1  124.13    9.47
 -13 -13   1    0.45    0.56
  13 -13  -1    0.22    0.34
  13  13  -1    1.01    0.39
 -13  13   1    0.43    0.40
  11 -13  -1  140.26   12.30
 -11 -13   1  125.79   12.15
  11 -13  -1  123.72   10.52
  11  13  -1  129.16   10.50
 -11  13   1  131.12   10.54
  -9 -13   1    9.18    1.42
   9 -13  -1    8.06    1.43
  -9  13   1    9.27    1.09
   9  13  -1    6.67    0.93
  -7 -13   1  164.38   13.86
  -7  13   1  148.96   11.98
  -7  13   1  151.45   11.93
   7  13  -1  131.31   11.92
   5 -13  -1    8.90    1.41
  -5 -13   1    9.56    1.38
   5  13  -1    5.12    0.80
  -5  13   1    7.13    0.87
  -5  13   1    6.86    0.94
   3 -13  -1  157.70   16.08
  -3 -13   1  170.01   16.07
  -3  13   1  173.75   13.91
   3  13  -1  162.02   13.90
  -3  13   1  200.24   13.99
  -1 -13   1    9.16    1.40
   1 -13  -1    5.50    1.18
  -1  13   1    5.75    0.82
   1  13  -1    7.21    0.89
  -1  13   1    6.67    0.94
   1  13  -1    7.49    0.98
  -1 -13  -1  156.13   15.05
   1 -13   1  174.25   15.14
   1  13   1  162.11   13.04
  -1  13  -1  160.25   12.98
  -1  13  -1  154.20   13.04
   1  13   1  163.24   12.99
   3 -13   1   11.96    1.85
  -3 -13  -1   13.77    1.87
  -3  13  -1   13.46    1.36
   3  13   1   12.94    1.27
  -3  13  -1   11.86    1.27
  -5 -13  -1  159.38   15.62
   5 -13   1  159.02   15.64
   5  13   1  165.79   13.50
  -5  13  -1  197.87   13.54
  -5  13  -1  154.17   13.54
   7 -13   1   13.28    1.85
  -7 -13  -1    7.75    1.54
  -7  13  -1   14.54    1.27
   7  13   1   14.54    1.27
  -7  13  -1    9.24    1.30
   9 -13   1   95.93    9.84
  -9 -13  -1  104.90    9.82
  -9  13  -1  103.40    8.40
  -9  13  -1  108.37    8.49
 -11 -13  -1   17.88    2.05
  11 -13   1   14.83    2.23
  11  13   1   15.27    1.59
 -11  13  -1   19.15    1.71
  13 -13   1   64.51    6.32
 -13 -13  -1   67.01    6.25
  13 -13   1   55.23    5.34
  13  13   1   70.58    5.35
  15 -13   1   26.83    2.59
  15 -13   1   30.48    3.22
 -15 -13  -1   27.34    3.03
 -15  13  -1   28.50    2.60
  15  13   1   30.73    2.58
 -17 -13  -1   61.16    5.57
  17 -13   1   45.01    4.75
  17 -13   1   65.20    5.72
 -17  13  -1   58.38    4.78
  17  13   1   56.26    4.72
 -19 -13  -1   19.53    2.26
  19 -13   1   16.34    1.93
  19  13   1   22.98    1.90
 -19  13  -1   19.27    1.90
 -21  13  -1   98.06    8.06
 -18 -14   1    7.92    1.45
  18 -14  -1   11.29    1.35
 -18  14   1   10.35    1.25
  18  14  -1    9.76    1.19
  16 -14  -1    6.70    1.07
 -16 -14   1   10.07    1.51
  16  14  -1    9.40    1.09
 -16  14   1    9.99    1.16
  14 -14  -1   18.48    1.60
 -14 -14   1   14.23    2.03
 -14  14   1   15.83    1.57
  14  14  -1   12.32    1.46
 -12 -14   1    7.83    1.39
  12 -14  -1   10.25    1.20
 -12  14   1    8.13    1.12
  12  14  -1   11.57    1.13
  10 -14  -1    6.97    0.93
 -10 -14   1    5.37    1.19
  10  14  -1    7.86    0.94
 -10  14   1    7.46    1.01
  -8 -14   1   14.61    2.00
  -8  14   1   14.38    1.45
   8  14  -1   12.88    1.36
  -6 -14   1   26.12    2.87
   6 -14  -1   23.37    2.89
  -6  14   1   31.02    2.32
   6  14  -1   20.36    2.27
  -6  14   1   27.86    2.38
   4 -14  -1    0.43    0.62
  -4 -14   1    2.46    0.78
  -4  14   1    0.83    0.38
  -4  14   1    0.36    0.39
  -2 -14   1    7.85    1.73
   2 -14  -1   14.28    2.04
   2  14  -1   11.07    1.31
  -2  14   1   18.51    1.52
  -2  14   1   16.35    1.38
   0 -14  -1   24.32    2.62
   0 -14   1   19.84    2.58
   0  14   1   21.24    2.03
   0  14   1   22.10    2.14
   0  14  -1   24.99    2.05
   2 -14   1   15.51    2.29
  -2  14  -1   17.09    1.72
   2  14   1   16.25    1.63
  -2  14  -1   19.11    1.65
  -4 -14  -1   19.79    2.15
   4 -14   1   22.01    2.19
   4  14   1   15.25    1.53
  -4  14  -1   14.78    1.62
  -4  14  -1   14.78    1.56
  -6 -14  -1   12.82    1.96
  -6  14  -1   17.73    1.52
  -6  14  -1   13.86    1.54
   6  14   1   15.25    1.48
   8 -14   1    2.80    0.93
  -8 -14  -1    3.22    0.86
   8  14   1    2.14    0.52
  -8  14  -1    3.38    0.64
 -10 -14  -1   25.98    2.87
  10 -14   1   26.88    2.95
 -10  14  -1   23.74    2.37
  10  14   1   27.45    2.35
 -12 -14  -1    1.18    0.68
  12 -14   1    1.53    0.73
  12 -14   1    2.05    0.54
  12  14   1    1.23    0.44
 -12  14  -1    1.66    0.54
  14 -14   1   11.60    1.89
  14 -14   1   11.51    1.41
 -14 -14  -1   13.30    1.84
 -14  14  -1   11.29    1.42
  14  14   1   15.45    1.37
 -16 -14  -1    3.81    0.91
  16 -14   1    3.73    0.71
  16  14   1    3.08    0.62
 -16  14  -1    2.83    0.65
 -18 -14  -1   14.01    2.11
  18 -14   1   18.17    1.94
 -18  14  -1   17.49    1.73
  18  14   1   17.57    1.68
 -15 -15   1   55.79    5.50
  15 -15  -1   49.00    4.67
 -15  15   1   58.15    4.70
  15  15  -1   57.31    4.65
  13 -15  -1    1.84    0.53
 -13 -15   1    1.55    0.70
 -13  15   1    1.10    0.50
  13  15  -1    2.15    0.49
 -11 -15   1   32.76    3.32
  11 -15  -1   27.55    2.68
 -11  15   1   31.20    2.73
  11  15  -1   30.18    2.66
   9 -15  -1    1.14    0.40
  -9 -15   1    0.41    0.53
   9  15  -1    1.97    0.48
  -9  15   1    2.00    0.55
  -7 -15   1   36.45    4.35
   7  15  -1   46.00    3.65
  -7  15   1   43.53    3.71
  -5 -15   1    1.57    0.70
  -5  15   1    2.30    0.50
  -5  15   1    2.21    0.58
   5  15  -1    2.02    0.48
   3 -15  -1   40.46    4.50
  -3 -15   1   46.40    4.55
  -3  15   1   36.64    3.66
  -3  15   1   47.14    3.81
   3  15  -1   48.76    3.71
  -1 -15   1    5.23    1.30
   1 -15  -1    5.74    1.32
   1  15  -1    7.20    0.91
  -1  15   1    8.89    0.96
  -1 -15  -1   11.19    1.92
   1 -15   1   14.63    2.06
  -1  15  -1   14.73    1.42
   1  15   1   14.42    1.40
   3 -15   1    5.28    1.14
  -3 -15  -1    2.31    0.90
   3  15   1    3.66    0.62
  -3  15  -1    3.11    0.57
  -3  15  -1    3.07    0.68
   5 -15   1   26.55    3.27
  -5 -15  -1   25.93    3.23
  -5  15  -1   32.86    2.77
  -5  15  -1   33.19    2.69
   5  15   1   30.72    2.65
  -7 -15  -1    8.75    1.60
   7 -15   1   11.13    1.78
  -7  15  -1   10.45    1.23
   7  15   1   12.85    1.14
  -7  15  -1    7.09    1.04
   9 -15   1   26.90    3.27
  -9 -15  -1   35.81    3.37
  -9  15  -1   26.96    2.71
   9  15   1   32.11    2.67
  11 -15   1   10.90    1.28
  11 -15   1   11.09    1.87
 -11 -15  -1    9.94    1.69
 -11  15  -1   10.08    1.33
  11  15   1   14.06    1.27
  13 -15   1   41.64    3.35
 -13 -15  -1   35.60    3.92
  13  15   1   40.08    3.29
 -13  15  -1   33.78    3.30
 -15 -15  -1    5.49    1.21
  15 -15   1    6.74    1.03
  15  15   1    9.45    1.04
 -15  15  -1    7.23    1.00
   8 -16  -1   65.92    5.72
  -8 -16   1   86.70    6.89
   8  16  -1   62.30    5.69
  -6 -16   1   48.58    5.42
   6  16  -1   57.77    4.54
  -4 -16   1   37.97    4.22
  -4  16   1   46.62    3.49
   4  16  -1   36.62    3.44
  -2 -16   1   68.23    7.10
  -2  16   1   73.01    5.95
   2  16  -1   73.97    5.97
   0 -16   1   36.95    3.87
   0  16  -1   35.38    3.10
   2  16   1   71.14    5.88
   4 -16   1   24.27    2.80
  -4 -16  -1   22.05    2.74
   4  16   1   22.85    2.12
  -4  16  -1   24.40    2.14
  -6 -16  -1   78.06    7.82
   6 -16   1   66.71    7.79
  -6  16  -1   91.65    6.63
   8 -16   1    3.45    1.12
  -8 -16  -1    6.13    1.25
  -8  16  -1    5.21    0.88
   8  16   1    6.57    0.84
  36   0  -2   45.55    4.55
 -36   0   2   44.50    4.18
 -34   0   2   87.52    7.68
  32   0  -2    8.33    1.33
 -32   0   2    9.24    1.28
 -30   0   2  151.52   11.52
  30   0  -2  117.39   12.42
 -28   0   2    2.01    0.60
  28   0  -2    1.96    0.66
 -26   0   2  448.83   39.18
  26   0  -2  486.74   42.60
 -24   0   2    8.47    1.09
  24   0  -2    7.90    1.01
  24   0  -2    6.35    1.11
 -22   0   2  384.21   30.65
  22   0  -2  346.76   29.16
  20   0  -2    0.05    0.34
  20   0  -2    0.20    0.32
 -20   0   2    0.26    0.24
 -20   0   2   -0.02    0.28
  18   0  -2  496.47   45.35
 -18   0   2  532.05   39.66
 -18   0   2  473.01   41.75
  18   0  -2  493.56   39.76
  16   0  -2   18.98    1.74
 -16   0   2   20.84    1.85
 -16   0   2   17.04    1.64
  16   0  -2   21.13    2.02
 -14   0   2  766.66   65.53
  14   0  -2  785.03   65.64
 -14   0   2  929.82   68.96
  12   0  -2   23.11    1.87
 -12   0   2   17.76    1.92
  12   0  -2   22.28    2.11
 -12   0   2   20.87    1.77
   8   0  -2    6.14    0.68
  -8   0   2    5.83    0.54
  -8   0   2    5.23    0.64
   8   0  -2    6.00    0.68
   6   0  -2  424.29   30.70
   6   0  -2  346.74   34.95
   4   0  -2  204.68   18.57
  -4   0   2  233.16   18.52
  -4   0   2  259.29   19.50
  -4   0  -2  202.81   16.06
   4   0   2  214.35   16.85
   4   0   2  187.62   18.33
   6   0   2  673.68   60.97
   8   0   2  421.05   39.17
  -8   0  -2  442.86   34.31
  10   0   2  547.53   46.28
 -10   0  -2  562.65   44.06
 -12   0  -2  822.72   59.87
 -12   0  -2  701.59   56.97
  12   0   2  655.46   56.94
  12   0   2  694.07   65.05
 -14   0  -2  307.76   27.28
  14   0   2  330.45   25.92
 -14   0  -2  353.36   25.97
  14   0   2  311.70   29.69
 -16   0  -2  288.32   24.38
  16   0   2  296.97   24.34
  16   0   2  335.02   27.93
 -18   0  -2  281.42   22.28
 -18   0  -2  249.49   21.16
 -20   0  -2  204.00   15.61
  20   0   2  183.94   17.88
  22   0   2   94.04    8.40
 -22   0  -2   96.61    7.29
 -22   0  -2   77.04    7.64
 -24   0  -2  240.79   20.32
  24   0   2  240.56   22.11
 -26   0  -2   73.40    5.95
  26   0   2   61.49    6.45
 -28   0  -2  159.90   15.11
  28   0   2  197.82   16.51
 -30   0  -2   15.57    1.52
  30   0   2    9.24    1.61
 -32   0  -2  126.91   10.71
  32   0   2  121.26   11.62
 -34   0  -2   15.72    1.71
  34   0   2   13.72    1.97
  35  -1  -2   31.45    3.35
 -35  -1   2   35.02    3.12
  35   1  -2   28.47    3.34
 -35   1   2   34.41    3.16
 -33  -1   2   20.33    2.18
  33  -1  -2   23.80    2.41
 -33   1   2   19.22    2.17
  33   1  -2   20.96    2.36
  31  -1  -2   54.85    5.03
 -31  -1   2   52.11    4.59
 -31   1   2   44.95    4.55
 -29  -1   2   29.86    2.94
  29  -1  -2   38.52    3.26
 -29   1   2   25.59    2.90
  29   1  -2   30.74    3.21
 -27  -1   2   90.17    7.30
  27  -1  -2   83.50    7.92
  27   1  -2   92.50    7.89
 -27   1   2   68.41    7.22
  25  -1  -2    9.47    1.60
 -25  -1   2   16.09    1.52
  25  -1  -2   14.08    1.54
  25   1  -2   13.86    1.38
 -25   1   2   14.00    1.47
  25   1  -2   13.23    1.59
  23  -1  -2   64.58    6.75
 -23  -1   2   69.81    6.21
  23  -1  -2   68.24    5.92
  23   1  -2   72.45    6.79
 -23   1   2   84.99    6.28
  23   1  -2   69.95    5.90
  21  -1  -2   11.91    1.42
  21  -1  -2   17.73    1.72
 -21  -1   2   17.60    1.58
 -21   1   2   15.83    1.39
  21   1  -2   16.61    1.69
  21   1  -2   10.95    1.39
 -21   1   2   15.78    1.55
 -19  -1   2   43.55    4.04
  19  -1  -2   45.88    4.39
  19  -1  -2   45.00    3.85
 -19   1   2   46.26    4.06
  19   1  -2   42.90    3.82
 -19   1   2   49.24    3.78
  19   1  -2   46.38    4.41
  17  -1  -2  102.25    8.65
 -17  -1   2  105.41    9.09
 -17  -1   2  104.04    8.53
  17  -1  -2  112.53    9.90
 -17   1   2  107.13    8.58
 -17   1   2  108.14    9.10
  17   1  -2  108.27    9.88
 -15  -1   2   36.49    3.10
 -15  -1   2   33.11    2.81
  15  -1  -2   38.06    3.36
  15   1  -2   31.28    2.90
 -15   1   2   30.66    3.06
 -15   1   2   37.60    2.87
  15   1  -2   35.66    3.35
  13  -1  -2  345.43   32.05
 -13  -1   2  356.93   29.53
 -13  -1   2  365.59   28.00
  13  -1  -2  363.44   28.13
  13   1  -2  360.48   28.11
 -13   1   2  367.17   28.04
  13   1  -2  310.49   32.04
  11  -1  -2   53.06    3.68
 -11  -1   2   47.37    3.85
 -11  -1   2   45.07    3.55
  11  -1  -2   38.96    4.13
  11   1  -2   43.67    4.15
 -11   1   2   45.01    3.59
  11   1  -2   44.82    3.64
 -11   1   2   37.13    3.81
   9  -1  -2  373.90   29.58
   9  -1  -2  378.13   33.70
   9   1  -2  357.06   29.57
  -9   1   2  367.87   31.05
  -9   1   2  372.70   29.51
   9   1  -2  381.50   33.70
   7  -1  -2   78.25    7.55
   7  -1  -2   81.69    6.65
  -7  -1   2   83.30    6.98
  -7   1   2   90.52    6.61
  -7   1   2   78.61    6.97
   7   1  -2   83.87    7.56
   7   1  -2   81.85    6.64
  -5  -1   2  425.50   35.48
   3  -1  -2   46.24    3.37
   3   1  -2   38.00    3.81
  -3   1   2   41.90    3.34
  -3   1   2   39.76    3.53
   3   1  -2   42.50    3.37
   1   1  -2  358.37   28.46
   1  -1   2   81.07    7.54
   1  -1   2   85.38    6.91
   1   1   2   82.37    6.58
  -1   1  -2   76.02    6.59
   1   1   2   87.55    6.92
  -3  -1  -2  252.27   19.26
   3  -1   2  242.26   22.01
   3   1   2  252.74   20.24
  -3   1  -2  222.92   19.27
  -5  -1  -2  297.81   23.93
   5  -1   2  333.61   27.35
   5  -1   2  296.49   25.12
   5   1   2  295.35   27.32
  -5   1  -2  284.48   23.94
   7  -1   2  406.05   29.92
  -7  -1  -2  315.41   28.48
   7  -1   2  340.24   32.55
  -7   1  -2  336.23   28.50
   7   1   2  396.33   32.55
   9  -1   2   64.66    5.62
   9  -1   2   69.23    5.94
  -9  -1  -2   74.40    5.67
   9  -1   2   67.85    6.52
   9   1   2   74.33    5.97
  -9   1  -2   68.91    5.68
   9   1   2   72.26    5.60
  11  -1   2   82.68    7.06
  11  -1   2   74.56    6.06
 -11  -1  -2   86.21    6.11
 -11   1  -2   67.34    6.11
 -11   1  -2   69.71    6.40
  11   1   2   78.51    6.05
  11   1   2   70.19    7.02
 -13  -1  -2    0.02    0.23
  13  -1   2    0.10    0.29
  13  -1   2    0.09    0.17
 -13  -1  -2   -0.06    0.21
  13   1   2   -0.07    0.15
 -13   1  -2   -0.05    0.21
  13   1   2   -0.08    0.33
 -13   1  -2    0.20    0.28
 -15  -1  -2  167.20   15.07
  15  -1   2  195.60   15.06
  15  -1   2  195.75   17.31
 -15  -1  -2  187.91   15.88
 -15   1  -2  183.36   15.11
  15   1   2  195.09   15.04
  15   1   2  198.39   17.33
 -15   1  -2  187.38   15.86
  17  -1   2    6.96    0.68
 -17  -1  -2    7.57    0.81
 -17  -1  -2    6.16    0.84
  17  -1   2    6.18    1.00
  17   1   2    7.16    0.99
 -17   1  -2    4.82    0.78
 -17   1  -2    4.89    0.74
  17   1   2    6.07    0.65
 -19  -1  -2  159.69   12.88
  19  -1   2  181.48   14.85
 -19   1  -2  148.99   13.56
 -19   1  -2  156.01   12.89
  19   1   2  158.04   14.79
 -21  -1  -2    4.00    0.67
  21  -1   2    4.16    0.85
 -21  -1  -2    4.41    0.76
  21   1   2    5.09    0.88
 -21   1  -2    4.77    0.71
 -21   1  -2    5.25    0.78
  23  -1   2   94.51    8.79
 -23  -1  -2  106.18    8.07
 -23   1  -2   93.88    7.61
  23   1   2   85.26    8.74
 -23   1  -2   86.11    8.00
 -25  -1  -2    3.70    0.73
  25  -1   2    5.01    0.95
 -25   1  -2    2.89    0.68
  25   1   2    4.99    0.96
  27  -1   2   61.51    6.93
 -27  -1  -2   78.54    6.41
  27   1   2   72.79    7.00
 -27   1  -2   79.65    6.44
  29  -1   2    8.57    1.30
 -29  -1  -2    6.06    1.08
 -29   1  -2    8.66    1.19
  29   1   2   10.01    1.36
  31  -1   2   75.70    7.00
 -31  -1  -2   70.18    6.40
 -31   1  -2   69.32    6.40
  31   1   2   75.19    7.02
  33  -1   2    6.66    1.21
 -33  -1  -2    5.26    0.96
  33   1   2    7.87    1.24
 -33   1  -2    4.32    0.93
 -35  -1  -2   41.08    3.64
  35   1   2   36.53    3.91
 -35   1  -2   38.07    3.65
 -36  -2   2    0.29    0.47
 -36   2   2    0.24    0.53
  36   2  -2    0.48    0.59
 -34  -2   2    2.96    0.77
  34  -2  -2    3.04    0.87
  34   2  -2    1.55    0.73
 -34   2   2    3.38    0.77
 -32  -2   2   -0.15    0.40
  32  -2  -2    0.16    0.48
 -32   2   2   -0.27    0.40
  32   2  -2    0.34    0.48
 -30  -2   2   14.21    1.45
  30  -2  -2    9.03    1.58
  30   2  -2   11.78    1.61
 -30   2   2   13.00    1.57
  28  -2  -2    4.34    0.86
 -28  -2   2    2.38    0.67
 -28   2   2    1.78    0.62
  28   2  -2    4.23    0.87
 -26  -2   2    1.01    0.50
  26  -2  -2    2.32    0.69
 -26   2   2    2.85    0.66
  26   2  -2    2.71    0.70
  26   2  -2    2.87    0.67
 -24  -2   2   -0.07    0.36
  24  -2  -2    0.32    0.41
  24  -2  -2    0.66    0.40
  24   2  -2    0.63    0.37
  24   2  -2    0.13    0.34
 -24   2   2   -0.04    0.40
  22  -2  -2    1.42    0.57
 -22  -2   2    2.50    0.57
  22  -2  -2    1.84    0.53
 -22   2   2    2.53    0.47
  22   2  -2    2.19    0.49
 -22   2   2    2.12    0.55
  22   2  -2    1.63    0.59
  20  -2  -2    3.14    0.59
 -20  -2   2    2.29    0.55
  20  -2  -2    2.42    0.61
 -20   2   2    2.42    0.56
 -20   2   2    2.18    0.46
  20   2  -2    2.16    0.49
  20   2  -2    3.47    0.69
  18  -2  -2   19.59    2.17
  18  -2  -2   24.82    1.98
 -18  -2   2   19.22    2.01
 -18   2   2   20.93    2.01
 -18   2   2   22.29    1.87
  18   2  -2   22.68    1.91
  18   2  -2   19.33    2.19
 -16  -2   2    7.72    0.93
  16  -2  -2    7.33    0.90
  16  -2  -2    6.13    0.98
 -16   2   2    6.61    0.90
 -16   2   2    7.24    0.79
  16   2  -2    6.85    0.83
  16   2  -2    7.27    1.02
  14  -2  -2  103.24    7.95
  14  -2  -2   86.32    9.03
 -14  -2   2   97.21    8.34
 -14   2   2   91.62    8.32
 -14   2   2  106.93    7.89
  14   2  -2  100.37    7.92
  12  -2  -2    0.03    0.30
 -12  -2   2    0.77    0.33
  12  -2  -2    0.73    0.32
  12   2  -2    0.79    0.29
 -12   2   2    0.40    0.31
 -12   2   2    0.05    0.23
  12   2  -2    0.40    0.33
  10  -2  -2   29.71    2.28
 -10  -2   2   23.34    2.36
  10  -2  -2   26.17    2.56
 -10   2   2   29.22    2.37
  10   2  -2   27.00    2.58
 -10   2   2   23.19    2.21
  10   2  -2   25.83    2.24
  -8  -2   2   96.27    8.05
   8  -2  -2   93.52    7.66
   8   2  -2   99.63    8.74
   8   2  -2   93.98    7.66
  -8   2   2   93.38    8.04
  -8   2   2   91.09    7.63
  -6  -2   2    9.75    0.94
   6  -2  -2    8.05    0.98
   6  -2  -2    8.44    0.88
   6   2  -2   10.53    1.02
  -6   2   2    8.41    0.93
   6   2  -2   10.50    0.91
  -6   2   2    9.29    0.88
   4  -2  -2   14.42    1.20
  -4  -2   2   16.96    1.28
   4  -2  -2   13.69    1.34
   4   2  -2   12.42    1.21
  -4   2   2   12.88    1.19
  -4   2   2   12.57    1.25
  -2  -2   2    1.69    0.28
   2  -2  -2    2.12    0.29
  -2  -2   2    1.69    0.34
  -2   2   2    2.13    0.30
   2   2  -2    1.75    0.29
   2   2  -2    2.33    0.28
  -2   2   2    1.75    0.28
   0  -2   2    6.86    0.76
   0   2  -2    6.46    0.62
   0   2   2    7.31    0.63
   0   2   2    6.23    0.60
   0   2  -2    6.61    0.65
   0   2   2    6.81    0.65
   0   2   2    7.13    0.69
   2  -2   2    8.08    0.88
   2   2   2    8.22    0.74
  -2   2  -2    7.31    0.74
  -2   2  -2    7.62    0.68
   2   2   2    7.95    0.68
   2   2   2    7.67    0.81
   2   2   2    7.07    0.70
   4  -2   2    7.57    0.73
   4  -2   2    9.21    0.92
  -4   2  -2    8.69    0.70
   4   2   2    7.80    0.87
   4   2   2    8.30    0.70
   4   2   2    6.34    0.71
  -4   2  -2    8.39    0.78
   6  -2   2    4.13    0.64
  -6  -2  -2    3.76    0.48
   6  -2   2    3.91    0.45
   6   2   2    4.18    0.41
  -6   2  -2    4.33    0.41
   6   2   2    4.50    0.63
   6   2   2    3.96    0.50
  -6   2  -2    4.89    0.56
   8  -2   2   69.32    6.11
  -8  -2  -2   68.33    5.83
   8  -2   2   80.30    6.74
   8   2   2   71.71    6.15
   8   2   2   80.13    6.72
   8   2   2   72.25    5.79
  -8   2  -2   67.29    5.86
  10  -2   2    6.65    0.63
 -10  -2  -2    7.98    0.69
  10  -2   2    3.86    0.81
 -10   2  -2    6.12    0.69
 -10   2  -2    8.08    0.76
  10   2   2    7.12    0.61
  10   2   2    6.32    0.72
  10   2   2    6.83    0.91
 -12  -2  -2   19.25    1.75
  12  -2   2   19.57    1.98
  12  -2   2   18.20    1.62
 -12  -2  -2   20.71    1.65
 -12   2  -2   17.71    1.73
  12   2   2   16.80    1.96
 -12   2  -2   17.48    1.68
  12   2   2   21.26    1.60
 -14  -2  -2   32.26    2.89
 -14  -2  -2   36.89    3.09
  14  -2   2   29.01    3.40
  14  -2   2   34.77    2.89
 -14   2  -2   33.91    3.06
  14   2   2   35.65    2.85
  14   2   2   37.13    3.43
 -14   2  -2   38.90    2.97
  16  -2   2    7.82    0.81
  16  -2   2    8.25    1.16
 -16  -2  -2    7.44    0.81
 -16  -2  -2    4.98    0.82
 -16   2  -2    7.22    0.85
  16   2   2    6.01    0.68
 -16   2  -2    7.46    0.88
  16   2   2    7.61    1.03
  18  -2   2   11.73    1.12
 -18  -2  -2   10.22    1.16
  18  -2   2    9.94    1.40
 -18  -2  -2   10.54    1.06
  18   2   2   14.56    1.39
 -18   2  -2   10.39    1.12
 -18   2  -2    9.50    1.12
  18   2   2   10.66    1.01
 -20  -2  -2    7.99    0.99
  20  -2   2    9.42    1.22
  20   2   2    4.70    0.99
 -20   2  -2    7.66    0.93
 -20   2  -2    6.50    0.92
  22  -2   2    3.89    0.86
 -22  -2  -2    3.41    0.70
 -22   2  -2    3.60    0.69
  22   2   2    5.69    0.92
 -22   2  -2    4.31    0.72
 -24  -2  -2    3.77    0.69
  24  -2   2    2.37    0.73
 -24   2  -2    4.12    0.68
 -24   2  -2    1.66    0.53
  24   2   2    2.42    0.66
  26  -2   2   10.39    1.61
 -26  -2  -2   10.65    1.41
  26   2   2   13.84    1.52
 -26   2  -2   10.59    1.34
 -26   2  -2   12.31    1.48
  28  -2   2    0.05    0.52
 -28  -2  -2    0.72    0.44
  28   2   2    0.79    0.55
 -28   2  -2    0.22    0.44
  30  -2   2    2.93    0.79
 -30  -2  -2    2.74    0.69
 -30   2  -2    1.67    0.63
  30   2   2    3.46    0.81
 -32  -2  -2    4.33    0.87
  32  -2   2    5.37    1.07
  32   2   2    6.21    1.09
 -32   2  -2    5.01    0.92
  34  -2   2    0.78    0.57
 -34  -2  -2    1.38    0.56
  34   2   2    0.60    0.52
 -34   2  -2    1.35    0.60
 -35  -3   2   49.67    4.77
  35   3  -2   55.31    5.19
  33  -3  -2   29.13    2.97
 -33  -3   2   21.88    2.62
 -33   3   2   30.10    2.74
  33   3  -2   28.07    2.90
 -31  -3   2   91.28    7.90
  31  -3  -2   93.11    8.61
  31   3  -2   90.95    8.60
 -31   3   2   86.50    7.92
  29  -3  -2   62.81    5.67
 -29  -3   2   57.18    5.17
 -29   3   2   52.37    5.17
  29   3  -2   58.79    5.62
  27  -3  -2  100.14    8.34
 -27  -3   2   79.27    7.59
 -27   3   2   86.79    7.63
  27   3  -2   85.74    8.30
 -25  -3   2   61.79    6.07
  25  -3  -2   69.35    6.66
  25  -3  -2   66.37    5.83
  25   3  -2   73.91    6.66
 -25   3   2   73.25    5.77
  25   3  -2   64.26    5.75
 -25   3   2   80.22    6.16
  23  -3  -2   79.14    7.83
  23  -3  -2   82.79    6.88
 -23  -3   2   85.99    7.23
 -23   3   2   81.28    6.81
  23   3  -2   78.63    7.83
  23   3  -2   93.12    6.85
 -23   3   2   80.68    7.20
 -21  -3   2  119.22   10.59
  21  -3  -2  124.63   11.53
  21  -3  -2  120.92   10.10
  21   3  -2  133.12   10.07
  21   3  -2  132.09   11.54
 -21   3   2  116.02   10.02
 -19  -3   2  179.81   17.26
  19  -3  -2  204.53   18.79
  19  -3  -2  213.52   16.47
 -19   3   2  224.95   16.41
  19   3  -2  219.24   16.43
  19   3  -2  212.39   18.79
 -19   3   2  179.23   17.25
  17  -3  -2  323.65   26.41
 -17  -3   2  321.28   27.72
  17  -3  -2  294.74   30.08
  17   3  -2  306.76   26.36
 -17   3   2  367.83   27.74
 -17   3   2  331.29   26.35
  17   3  -2  372.57   30.16
  15  -3  -2  174.81   16.61
  15  -3  -2  189.73   14.58
 -15  -3   2  182.94   15.30
 -15   3   2  178.51   15.28
  15   3  -2  179.26   16.62
  15   3  -2  188.43   14.55
 -15   3   2  176.74   14.52
  13  -3  -2  364.65   28.94
 -13  -3   2  357.43   30.39
  13   3  -2  396.75   33.01
 -13   3   2  356.52   28.88
  13   3  -2  371.46   28.92
 -13   3   2  333.03   30.36
  11  -3  -2  155.97   14.30
 -11  -3   2  158.61   13.18
  11  -3  -2  173.02   12.55
 -11   3   2  159.00   13.16
  11   3  -2  154.02   14.31
  11   3  -2  144.90   12.52
 -11   3   2  149.77   12.50
  -9  -3   2  352.42   29.11
   9  -3  -2  325.37   31.60
   9  -3  -2  352.19   27.72
  -9   3   2  355.45   27.70
   9   3  -2  362.77   31.62
  -9   3   2  341.75   29.08
  -7  -3   2  162.83   13.63
   7  -3  -2  156.77   12.97
   7  -3  -2  169.98   14.80
  -7   3   2  152.12   12.96
   7   3  -2  157.97   12.97
   7   3  -2  176.28   14.81
  -7   3   2  161.66   13.61
   5  -3  -2  328.03   27.25
   5  -3  -2  395.80   31.08
  -5  -3   2  361.59   28.61
  -5   3   2  317.71   27.23
   5   3  -2  321.61   31.08
   5   3  -2  327.08   27.25
  -5   3   2  348.76   28.60
   3  -3  -2   11.15    0.97
  -3  -3   2    9.53    0.88
  -3  -3   2    8.84    1.00
   3   3  -2    9.71    0.86
  -3   3   2    9.39    0.87
   3   3  -2    8.27    0.82
  -1  -3   2  301.01   26.96
   1  -3  -2  317.55   26.90
  -1  -3   2  316.81   24.76
   1   3  -2  300.45   23.58
  -1   3   2  262.04   23.58
   1   3  -2  305.30   23.60
  -1   3   2  266.41   24.75
  -1   3   2  307.40   23.59
   1  -3   2    5.91    0.86
  -1   3  -2    8.57    0.71
   1   3   2    7.78    0.70
   1   3   2    7.60    0.73
  -1   3  -2    9.00    0.76
   1   3   2    7.13    0.81
   3  -3   2  391.87   36.19
   3   3   2  432.78   31.66
   3   3   2  356.94   36.13
   3   3   2  413.38   33.26
   5  -3   2   42.32    3.47
   5  -3   2   37.81    3.88
   5   3   2   42.88    3.33
   5   3   2   42.98    3.33
  -5   3  -2   43.22    3.32
   5   3   2   39.14    3.51
   5   3   2   40.30    3.86
  -5   3  -2   37.31    3.38
   7  -3   2  720.73   62.96
   7   3   2  686.57   62.91
  -7   3  -2  677.44   55.14
   9  -3   2    4.25    0.75
  -9  -3  -2    4.86    0.54
   9  -3   2    4.84    0.51
   9   3   2    3.22    0.54
  -9   3  -2    4.44    0.50
   9   3   2    4.42    0.48
   9   3   2    5.35    0.72
  -9   3  -2    5.31    0.63
  11  -3   2  478.58   39.53
  11  -3   2  502.31   45.20
 -11  -3  -2  452.20   39.51
 -11   3  -2  505.99   39.57
  11   3   2  527.70   45.19
 -11   3  -2  522.07   41.52
  13  -3   2    0.96    0.26
  13  -3   2    0.37    0.36
 -13  -3  -2    0.46    0.29
 -13  -3  -2    1.36    0.29
  13   3   2    0.72    0.22
 -13   3  -2    0.84    0.29
 -13   3  -2    1.29    0.36
  13   3   2    0.83    0.44
 -15  -3  -2  425.28   37.25
  15  -3   2  452.36   35.44
 -15  -3  -2  460.76   35.41
  15   3   2  450.36   35.40
  15   3   2  452.21   40.51
 -15   3  -2  432.01   37.22
 -15   3  -2  444.84   35.46
  17  -3   2    0.98    0.52
  17  -3   2    1.90    0.40
 -17  -3  -2    1.20    0.40
 -17  -3  -2    1.29    0.35
 -17   3  -2    1.38    0.43
 -17   3  -2    1.46    0.41
  17   3   2    1.14    0.47
  17   3   2    1.54    0.32
 -19  -3  -2  299.99   26.97
 -19   3  -2  314.51   25.67
  19   3   2  319.33   29.35
 -19   3  -2  352.12   26.98
  21  -3   2   14.41    1.59
 -21  -3  -2   13.08    1.38
  21   3   2   10.67    1.60
 -21   3  -2   12.75    1.33
 -21   3  -2   12.89    1.36
  23  -3   2  137.91   12.45
 -23  -3  -2  128.68   11.37
 -23   3  -2  131.12   11.38
 -23   3  -2  135.92   10.82
 -25  -3  -2    3.07    0.67
  25  -3   2    2.25    0.74
  25   3   2    3.01    0.76
 -25   3  -2    3.15    0.68
 -25   3  -2    2.88    0.64
 -27  -3  -2  107.71   10.07
  27  -3   2  131.21   11.07
 -27   3  -2  112.93   10.11
 -27   3  -2  115.64    9.61
  27   3   2  121.97   11.01
 -29  -3  -2    6.07    0.98
  29  -3   2    8.12    1.31
  29   3   2    6.23    1.18
 -29   3  -2    7.07    1.08
 -31  -3  -2  102.68    8.52
  31  -3   2   94.45    9.26
  31   3   2   97.42    9.27
 -31   3  -2   95.87    8.51
 -33  -3  -2   19.72    1.82
  33  -3   2   10.74    1.93
  33   3   2   17.48    1.96
  35  -3   2   71.99    7.23
 -35  -3  -2   76.12    6.71
  35   3   2   75.52    7.22
 -34  -4   2   76.14    6.41
  34   4  -2   67.79    6.91
 -32  -4   2    8.86    1.23
  32   4  -2    8.28    1.34
 -30  -4   2  116.20    9.74
  30  -4  -2  109.28   10.61
  30   4  -2  112.22   10.57
 -28  -4   2    8.16    1.16
  28  -4  -2    7.31    1.32
  28   4  -2    9.64    1.33
 -28   4   2    8.45    1.22
 -26  -4   2  251.72   20.46
  26  -4  -2  229.65   22.25
  26   4  -2  244.31   22.24
 -26   4   2  247.50   19.44
  26   4  -2  236.25   19.49
 -26   4   2  243.25   20.49
  24  -4  -2    0.50    0.49
 -24  -4   2    0.55    0.41
  24  -4  -2   -0.26    0.39
  24   4  -2    0.84    0.51
 -24   4   2   -0.22    0.38
  24   4  -2    0.63    0.38
 -24   4   2    1.02    0.39
  22  -4  -2  345.41   31.44
 -22  -4   2  339.61   28.90
 -22   4   2  386.29   28.94
  22   4  -2  316.89   27.46
 -22   4   2  344.69   27.47
  22   4  -2  334.58   31.39
  20  -4  -2   23.25    2.23
 -20  -4   2   24.86    2.34
  20  -4  -2   26.47    2.55
 -20   4   2   24.27    2.16
  20   4  -2   23.38    2.52
 -20   4   2   23.69    2.31
  20   4  -2   24.93    2.16
  18  -4  -2  751.45   66.17
  18  -4  -2  725.83   58.03
 -18  -4   2  729.54   60.91
  18   4  -2  656.00   57.96
 -18   4   2  774.42   60.92
 -18   4   2  691.16   57.92
  18   4  -2  781.17   66.16
  16  -4  -2    0.93    0.36
 -16  -4   2    0.27    0.32
  16  -4  -2    0.89    0.39
 -16   4   2    0.22    0.29
  16   4  -2    0.61    0.35
  16   4  -2    0.62    0.30
 -16   4   2    0.23    0.27
  14  -4  -2  339.98   27.30
 -14  -4   2  339.93   28.67
  14  -4  -2  324.69   31.12
  14   4  -2  336.70   27.27
 -14   4   2  360.83   28.65
  14   4  -2  364.67   31.16
 -14   4   2  329.05   27.25
  12  -4  -2   91.20    8.11
 -12  -4   2   83.80    7.45
  12   4  -2   85.03    8.10
 -12   4   2   96.43    7.43
  12   4  -2   80.41    7.06
  10  -4  -2  584.63   45.57
  10  -4  -2  613.76   51.98
 -10  -4   2  602.58   47.85
 -10   4   2  498.16   45.51
  10   4  -2  626.95   52.00
 -10   4   2  586.24   47.81
  10   4  -2  503.16   45.54
   8  -4  -2  200.85   15.64
  -8  -4   2  200.76   16.43
   8  -4  -2  181.07   17.84
  -8   4   2  194.65   15.64
  -8   4   2  196.02   16.40
   8   4  -2  207.91   17.87
   8   4  -2  189.29   15.63
  -6  -4   2  660.16   51.56
  -6   4   2  629.53   49.08
   6   4  -2  564.02   49.10
   6   4  -2  620.42   56.01
  -4  -4   2  139.30   11.79
   4  -4  -2  142.06   12.84
  -4   4   2  126.51   11.22
   4   4  -2  140.08   11.20
  -4   4   2  136.13   11.24
   4   4  -2  131.24   12.84
  -4   4   2  145.16   11.77
   4   4  -2  164.68   11.25
   2  -4  -2  448.04   40.72
  -2  -4   2  483.68   37.46
  -2  -4   2  487.05   40.78
  -2   4   2  438.39   35.68
   2   4  -2  448.17   35.67
   2   4  -2  393.06   35.70
   0  -4   2   55.26    5.31
   0   4   2   55.67    4.80
   0   4  -2   62.17    4.61
   0   4   2   51.92    4.58
   0   4   2   52.95    4.59
   0   4  -2   63.27    4.60
   2  -4   2  497.87   43.84
  -2   4  -2  467.80   38.37
   2   4   2  527.64   43.79
  -2   4  -2  448.46   38.38
   2   4   2  476.16   38.38
   4  -4   2   92.29    8.86
  -4   4  -2   93.54    7.67
   4   4   2   85.04    7.67
   4   4   2   90.41    8.06
   4   4   2  103.36    7.67
  -4   4  -2  110.34    7.74
   4   4   2   97.02    8.80
   6  -4   2  609.24   57.74
   6   4   2  652.55   57.70
  -6   4  -2  624.60   50.57
  -6   4  -2  660.47   50.54
   8  -4   2  133.34   13.30
   8   4   2  153.34   12.20
  -8   4  -2  126.89   11.56
   8   4   2  148.39   13.29
  -8   4  -2  144.68   11.64
   8   4   2  147.07   11.56
  -8   4  -2  151.51   12.13
   8   4   2  154.30   11.57
  10  -4   2  429.50   31.47
  10  -4   2  398.70   35.99
 -10  -4  -2  395.93   31.45
  10   4   2  384.00   33.05
 -10   4  -2  354.16   31.49
 -10   4  -2  447.23   33.03
  10   4   2  357.64   35.94
  10   4   2  396.69   31.45
 -12  -4  -2  277.67   23.89
  12  -4   2  301.22   27.38
 -12  -4  -2  314.66   25.16
  12  -4   2  317.60   23.92
  12   4   2  304.11   23.89
  12   4   2  299.21   27.36
 -12   4  -2  307.16   25.10
 -12   4  -2  280.62   23.95
 -14  -4  -2  209.06   18.34
 -14  -4  -2  222.95   17.42
  14  -4   2  213.34   20.01
  14  -4   2  223.76   17.45
  14   4   2  226.02   20.00
 -14   4  -2  209.26   18.31
  14   4   2  210.81   17.40
 -14   4  -2  232.45   17.49
  16  -4   2  360.12   30.38
 -16  -4  -2  362.18   30.38
  16  -4   2  382.81   34.77
 -16   4  -2  363.64   31.90
  16   4   2  395.78   30.34
  16   4   2  426.31   34.75
 -18  -4  -2  173.30   14.82
  18  -4   2  148.03   14.06
  18  -4   2  173.71   16.17
 -18   4  -2  177.79   14.11
  18   4   2  195.57   14.03
 -18   4  -2  185.91   14.79
  18   4   2  171.56   16.13
  20  -4   2  348.11   32.26
 -20   4  -2  333.37   29.61
 -20   4  -2  354.24   28.20
  20   4   2  377.35   32.23
  22  -4   2   24.83    2.52
 -22  -4  -2   27.00    2.28
 -22   4  -2   21.23    2.11
  22   4   2   21.96    2.46
 -22   4  -2   21.32    2.22
 -24  -4  -2  154.10   13.85
 -24   4  -2  171.72   13.17
  24   4   2  165.35   15.12
 -24   4  -2  160.60   13.86
  26  -4   2   62.80    6.19
 -26  -4  -2   60.76    5.60
 -26   4  -2   58.58    5.61
 -26   4  -2   69.74    5.34
  26   4   2   64.67    6.14
  28  -4   2   95.48   10.69
 -28  -4  -2  126.55    9.85
  28   4   2  116.82   10.72
 -28   4  -2  117.11    9.35
 -30  -4  -2   15.43    1.64
  30  -4   2   15.67    2.02
  30   4   2   12.17    1.85
 -32  -4  -2   73.38    6.30
  32  -4   2   66.76    6.90
  32   4   2   72.32    6.87
 -34  -4  -2    7.38    1.12
  34  -4   2    6.18    1.25
  34   4   2    8.22    1.28
 -33  -5   2   12.82    1.56
  33   5  -2   10.60    1.64
 -31  -5   2   10.96    1.46
  31   5  -2   11.92    1.65
 -29  -5   2    4.21    0.88
  29  -5  -2    6.25    1.24
  29   5  -2    5.36    1.04
 -27  -5   2    5.72    0.92
  27  -5  -2    4.73    0.99
 -27   5   2    5.31    0.84
  27   5  -2    5.69    1.01
  25  -5  -2   20.31    1.98
 -25  -5   2   16.46    1.70
  25  -5  -2   16.44    1.69
  25   5  -2   13.60    1.54
 -25   5   2   16.57    1.61
  25   5  -2   15.04    1.86
  23  -5  -2    0.80    0.46
 -23  -5   2   -0.17    0.35
  23  -5  -2    0.71    0.52
  23   5  -2    1.51    0.59
 -23   5   2    1.29    0.49
  23   5  -2    1.10    0.40
 -23   5   2    1.14    0.44
  21  -5  -2   83.58    7.89
 -21  -5   2   85.61    7.26
  21  -5  -2   81.75    6.90
  21   5  -2   90.50    7.91
 -21   5   2   87.36    7.25
  21   5  -2   81.26    6.84
 -21   5   2   76.95    6.85
  19  -5  -2    6.27    1.00
 -19  -5   2    5.93    0.88
  19  -5  -2    6.28    0.86
  19   5  -2    3.98    0.86
 -19   5   2    5.62    0.84
  19   5  -2    6.20    0.78
 -19   5   2    6.61    0.82
  17  -5  -2    1.45    0.49
 -17  -5   2    1.88    0.45
  17  -5  -2    1.48    0.43
 -17   5   2    0.80    0.37
 -17   5   2    1.63    0.41
  17   5  -2    1.71    0.41
  17   5  -2    1.33    0.47
  15  -5  -2   36.48    3.28
  15  -5  -2   25.33    2.78
 -15  -5   2   31.15    2.97
 -15   5   2   36.59    2.95
 -15   5   2   32.35    2.81
  15   5  -2   33.57    2.79
  15   5  -2   36.41    3.27
 -13  -5   2   22.40    2.20
  13  -5  -2   23.02    2.09
  13  -5  -2   25.42    2.44
 -13   5   2   23.00    2.16
  13   5  -2   25.28    2.45
 -13   5   2   27.36    2.13
  13   5  -2   22.45    2.07
 -11  -5   2   58.57    4.83
  11  -5  -2   45.55    5.22
 -11   5   2   55.83    4.59
  11   5  -2   60.19    4.58
  11   5  -2   60.15    5.27
 -11   5   2   54.61    4.77
   9  -5  -2   28.54    2.93
  -9  -5   2   31.94    2.70
   9  -5  -2   30.19    2.55
   9   5  -2   33.02    2.97
   9   5  -2   30.15    2.55
  -9   5   2   29.41    2.57
  -9   5   2   29.25    2.64
  -7  -5   2  133.32   10.28
   7  -5  -2  110.78    9.75
   7  -5  -2  129.85   11.20
  -7   5   2  122.87    9.78
  -7   5   2  118.28   10.22
   7   5  -2  126.02   11.19
   7   5  -2  109.83    9.75
   7   5  -2  124.10    9.69
  -5  -5   2   13.24    1.18
   5  -5  -2   13.11    1.33
   5   5  -2   11.34    1.08
  -5   5   2   13.86    1.13
   5   5  -2   10.13    1.12
  -5   5   2   14.23    1.17
  -5   5   2   11.45    1.11
   5   5  -2   12.90    1.33
   3  -5  -2   64.27    5.94
  -3  -5   2   65.32    5.98
  -3  -5   2   64.86    5.41
  -3   5   2   59.22    5.16
   3   5  -2   60.10    5.17
  -3   5   2   68.37    5.19
  -3   5   2   64.74    5.39
   3   5  -2   64.80    5.16
   1  -5  -2   86.40    8.45
   1   5  -2  103.04    7.39
   1   5  -2   92.16    7.38
  -1   5   2   91.58    7.39
  -1   5   2   89.78    7.72
  -1   5   2   88.41    7.37
   1  -5   2   15.04    1.67
   1   5   2   18.77    1.44
  -1   5  -2   14.79    1.39
   1   5   2   15.67    1.39
   1   5   2   19.87    1.42
  -1   5  -2   12.26    1.40
   3  -5   2  212.16   18.66
  -3   5  -2  212.60   16.29
   3   5   2  197.07   16.24
  -3   5  -2  197.20   16.25
   3   5   2  202.48   18.58
   3   5   2  203.00   17.06
   5  -5   2  135.61   12.11
   5   5   2  125.46   11.01
   5   5   2  136.67   12.03
  -5   5  -2  132.97   10.54
   5   5   2  127.90   10.48
   5   5   2  130.76   10.48
  -5   5  -2  129.26   10.48
   7  -5   2   31.33    3.31
   7   5   2   34.90    2.78
   7   5   2   32.76    2.95
  -7   5  -2   30.45    2.84
  -7   5  -2   34.43    2.77
   7   5   2   36.62    3.27
   7   5   2   33.14    2.76
   9  -5   2    0.05    0.37
   9   5   2    0.39    0.25
  -9   5  -2    0.41    0.30
  -9   5  -2    0.13    0.16
  -9   5  -2    0.16    0.20
   9   5   2    0.16    0.18
   9   5   2    0.11    0.29
   9   5   2    0.07    0.20
 -11  -5  -2   27.41    2.73
  11  -5   2   39.12    3.16
 -11  -5  -2   32.63    2.58
  11  -5   2   36.77    2.59
  11   5   2   29.55    2.56
 -11   5  -2   23.95    2.62
 -11   5  -2   29.66    2.68
  11   5   2   30.05    3.03
  13  -5   2    0.38    0.44
  13  -5   2    0.31    0.23
 -13  -5  -2   -0.04    0.22
 -13  -5  -2    0.41    0.29
  13   5   2    0.15    0.21
 -13   5  -2   -0.21    0.20
  13   5   2   -0.07    0.30
 -13   5  -2    0.12    0.32
  15  -5   2   32.13    2.77
 -15  -5  -2   24.78    2.90
  15  -5   2   36.65    3.35
 -15   5  -2   37.78    2.92
 -15   5  -2   37.35    2.86
  15   5   2   34.20    3.27
  15   5   2   29.49    2.72
  17  -5   2    8.55    1.34
  17  -5   2    9.54    1.00
 -17  -5  -2    8.35    1.11
 -17   5  -2    9.25    1.08
 -17   5  -2    8.93    1.08
  17   5   2   10.48    0.95
  17   5   2    8.33    1.30
 -19  -5  -2    2.35    0.54
  19  -5   2    0.88    0.54
  19   5   2    1.61    0.54
 -19   5  -2    1.65    0.47
 -19   5  -2    0.71    0.39
 -21  -5  -2   46.30    3.71
  21  -5   2   41.30    4.08
 -21   5  -2   39.34    3.45
  21   5   2   35.09    3.98
 -23  -5  -2   51.55    4.47
  23  -5   2   51.29    4.96
  23   5   2   48.69    4.90
 -23   5  -2   48.23    4.24
 -25  -5  -2    0.63    0.44
  25  -5   2    0.63    0.54
  25   5   2    1.07    0.55
 -25   5  -2    0.68    0.44
  27  -5   2   33.81    3.39
 -27   5  -2   29.78    2.84
  27   5   2   32.05    3.30
 -29  -5  -2    0.26    0.45
  29  -5   2    1.49    0.70
  29   5   2    1.55    0.63
 -29   5  -2    1.06    0.51
  31  -5   2   11.88    1.88
 -31  -5  -2   16.16    1.70
  31   5   2   15.37    1.82
  33  -5   2    4.93    1.09
 -33  -5  -2    5.17    0.96
  33   5   2    4.47    1.00
 -34  -6   2   34.56    3.32
  34   6  -2   32.87    3.52
 -32  -6   2    2.03    0.66
  32   6  -2    1.89    0.71
 -30  -6   2   74.72    6.62
  30   6  -2   75.69    7.21
 -28  -6   2    0.02    0.46
  28   6  -2    0.11    0.50
 -28   6   2    0.08    0.41
 -26  -6   2   28.45    2.99
  26  -6  -2   39.66    3.48
  26   6  -2   27.28    3.25
 -26   6   2   36.09    2.88
  24  -6  -2   11.64    1.56
 -24  -6   2   10.31    1.34
  24  -6  -2   10.03    1.35
 -24   6   2   10.38    1.25
  24   6  -2   10.92    1.23
  24   6  -2    9.92    1.47
  22  -6  -2   19.91    2.13
  22  -6  -2   19.35    1.84
 -22  -6   2   17.82    1.86
 -22   6   2   19.23    1.78
  22   6  -2   17.96    2.02
  22   6  -2   17.17    1.72
  20  -6  -2    0.89    0.44
 -20  -6   2    0.83    0.46
  20  -6  -2    0.69    0.52
  20   6  -2    0.64    0.47
 -20   6   2    0.64    0.41
  20   6  -2    0.87    0.38
  18  -6  -2   58.97    5.62
 -18  -6   2   59.14    5.15
  18  -6  -2   54.26    4.89
  18   6  -2   60.50    4.84
 -18   6   2   60.62    4.87
  18   6  -2   56.76    5.59
 -16  -6   2   33.92    3.16
  16  -6  -2   38.13    3.50
  16  -6  -2   31.20    2.98
 -16   6   2   34.47    3.13
 -16   6   2   34.36    2.99
  16   6  -2   35.63    2.97
  16   6  -2   37.45    3.47
 -14  -6   2   88.08    7.40
  14  -6  -2   87.56    7.04
  14  -6  -2   84.09    8.06
 -14   6   2   73.74    7.01
 -14   6   2   93.80    7.35
  14   6  -2   86.40    8.06
  14   6  -2   89.69    7.02
  12  -6  -2    0.22    0.26
  12  -6  -2    0.25    0.34
 -12  -6   2    0.31    0.29
 -12   6   2    0.71    0.32
 -12   6   2    0.54    0.26
  12   6  -2    0.61    0.27
  12   6  -2    0.46    0.38
  10  -6  -2  128.51   10.80
 -10  -6   2  133.04   11.36
  10  -6  -2  153.94   12.40
  10   6  -2  127.35   10.79
 -10   6   2  132.36   10.81
 -10   6   2  130.67   11.29
  10   6  -2  137.25   12.37
  -8  -6   2    8.10    0.84
   8  -6  -2    8.52    0.77
   8  -6  -2    5.81    0.95
   8   6  -2    7.82    0.69
   8   6  -2    4.28    0.88
   8   6  -2    7.01    0.77
  -8   6   2    7.84    0.82
  -8   6   2    8.72    0.75
   6  -6  -2   74.40    7.63
  -6   6   2   84.79    6.63
  -6   6   2   87.09    6.92
   6   6  -2   84.82    6.60
  -6   6   2   76.56    6.65
   6   6  -2   83.40    6.66
  -4  -6   2   64.16    5.14
   4  -6  -2   62.09    5.68
  -4  -6   2   60.56    5.69
  -4   6   2   58.87    4.93
  -4   6   2   57.74    4.90
   4   6  -2   59.93    4.92
  -4   6   2   56.96    5.08
   4   6  -2   63.42    4.90
  -2  -6   2  162.99   14.46
   2  -6  -2  160.39   14.42
  -2  -6   2  164.83   13.18
   2   6  -2  150.03   12.57
  -2   6   2  151.66   12.59
   2   6  -2  156.21   12.59
  -2   6   2  156.27   13.15
   0  -6  -2   51.46    4.36
   0  -6   2   48.67    4.40
   0   6  -2   43.41    3.75
   0   6  -2   41.99    3.73
   0   6   2   48.63    3.74
   0   6   2   47.24    3.75
   0   6   2   41.52    3.87
   2  -6   2  177.71   16.96
   2   6   2  167.35   15.46
   2   6   2  195.30   14.76
  -2   6  -2  198.13   14.79
  -2   6  -2  186.45   14.76
   4  -6   2   26.38    2.91
   4   6   2   26.75    2.44
  -4   6  -2   32.00    2.45
   4   6   2   27.89    2.44
   4   6   2   30.10    2.55
   4   6   2   28.19    2.85
  -4   6  -2   33.77    2.51
   6  -6   2   96.81    8.81
   6   6   2   93.09    7.98
   6   6   2   95.81    7.59
  -6   6  -2   96.41    7.59
   6   6   2   92.70    7.59
   6   6   2   94.70    8.73
  -6   6  -2   91.53    7.65
   8  -6   2   25.66    2.64
   8   6   2   26.85    2.16
  -8   6  -2   27.30    2.27
   8   6   2   26.65    2.18
   8   6   2   26.05    2.57
  -8   6  -2   22.70    2.16
  10  -6   2   59.61    5.53
 -10  -6  -2   59.19    4.98
  10   6   2   53.74    5.44
  10   6   2   58.86    4.71
 -10   6  -2   56.08    4.69
  10   6   2   59.38    4.68
 -10   6  -2   56.65    4.78
 -12  -6  -2   33.76    3.01
  12  -6   2   28.89    3.34
 -12  -6  -2   36.24    2.84
  12   6   2   34.22    2.81
  12   6   2   33.34    3.33
 -12   6  -2   34.06    2.90
 -14  -6  -2    7.41    0.96
  14  -6   2    8.08    1.21
  14  -6   2    6.92    0.86
  14   6   2    7.26    0.84
  14   6   2    7.33    1.08
 -14   6  -2    9.64    1.02
  16  -6   2   10.86    1.05
 -16  -6  -2   11.11    1.14
  16  -6   2   10.23    1.42
  16   6   2   11.66    0.99
 -16   6  -2    8.93    1.12
  16   6   2    5.96    1.21
  18  -6   2   35.39    3.68
  18  -6   2   33.82    3.10
 -18  -6  -2   37.43    3.30
 -18   6  -2   36.12    3.13
  18   6   2   39.19    3.06
  18   6   2   34.93    3.62
 -20  -6  -2   64.43    5.07
  20   6   2   59.92    5.51
 -20   6  -2   48.09    4.77
  22  -6   2   24.90    2.34
 -22  -6  -2   18.83    1.93
  22   6   2   16.51    2.07
 -22   6  -2   18.94    1.83
  24  -6   2   27.02    2.73
 -24  -6  -2   21.78    2.34
 -24   6  -2   24.75    2.24
  24   6   2   23.53    2.57
 -26  -6  -2    9.93    1.32
  26  -6   2   11.25    1.55
 -26   6  -2   10.37    1.27
  26   6   2    8.98    1.43
 -28  -6  -2   16.62    1.75
  28  -6   2   16.27    2.25
 -28   6  -2   15.76    1.70
  28   6   2   18.58    2.02
 -30  -6  -2   21.50    2.19
  30  -6   2   21.30    2.48
 -30   6  -2   21.18    2.08
 -32  -6  -2   56.71    5.24
  32  -6   2   60.32    5.80
 -33  -7   2   19.83    1.97
  33   7  -2   16.35    2.08
  31   7  -2   91.72    8.71
 -29  -7   2   72.73    6.45
  29   7  -2   65.73    7.00
 -29   7   2   80.31    6.11
 -27  -7   2   76.00    7.48
  27   7  -2   98.67    8.24
 -27   7   2   85.26    7.11
 -25  -7   2   54.54    5.77
  25  -7  -2   71.30    5.64
  25   7  -2   76.65    5.52
 -25   7   2   74.22    5.55
  25   7  -2   54.90    6.30
 -23  -7   2  106.12    9.42
  23  -7  -2  109.41    9.03
  23  -7  -2  111.52   10.35
  23   7  -2  119.93   10.28
  23   7  -2  103.05    8.91
 -23   7   2  108.64    8.94
 -21  -7   2   81.37    7.11
  21  -7  -2   91.57    7.85
  21  -7  -2   76.84    6.78
  21   7  -2   82.75    6.71
 -21   7   2   82.24    6.74
  21   7  -2   77.38    7.72
 -19  -7   2  168.45   14.23
  19  -7  -2  162.48   13.56
  19  -7  -2  169.24   15.51
 -19   7   2  172.93   13.53
  19   7  -2  169.23   15.46
  19   7  -2  163.84   13.49
  17  -7  -2  231.21   21.08
  17  -7  -2  224.14   18.45
 -17  -7   2  216.16   19.36
  17   7  -2  253.08   18.41
 -17   7   2  223.48   18.41
  15  -7  -2   81.29    6.36
  15  -7  -2   73.83    7.27
 -15  -7   2   65.15    6.65
  15   7  -2   85.27    6.33
 -15   7   2   80.58    6.35
 -13  -7   2  218.85   16.52
  13  -7  -2  205.30   15.71
  13  -7  -2  160.89   17.89
 -13   7   2  221.63   15.71
  13   7  -2  174.35   15.64
 -11  -7   2  115.83    9.63
  11  -7  -2  110.25   10.49
  11  -7  -2  114.48    9.15
  11   7  -2  100.37   10.45
  11   7  -2  131.08    9.15
 -11   7   2  106.25    9.15
  -9  -7   2  366.11   28.79
   9  -7  -2  345.09   31.33
   9   7  -2  310.89   31.27
  -9   7   2  353.39   27.41
   9   7  -2  343.72   27.40
  -7  -7   2   92.80    7.12
   7  -7  -2   80.23    7.80
  -7  -7   2   84.84    7.82
   7   7  -2   80.42    6.71
   7   7  -2   79.96    6.77
  -7   7   2   82.80    6.79
  -5  -7   2  442.61   36.69
  -5  -7   2  445.81   39.96
   5  -7  -2  442.10   39.95
   5   7  -2  447.63   34.91
   5   7  -2  445.60   34.96
  -5   7   2  421.70   34.96
  -5   7   2  439.14   34.95
  -5   7   2  431.74   36.61
  -3  -7   2   81.88    7.93
   3  -7  -2   96.25    7.93
  -3  -7   2   88.18    7.16
  -3   7   2   77.26    7.12
   3   7  -2   80.28    6.85
  -3   7   2   78.67    6.86
   3   7  -2   83.78    6.85
  -3   7   2   95.04    6.86
   1  -7  -2  393.74   35.45
  -1  -7   2  374.04   35.48
   1   7  -2  408.76   31.02
  -1   7   2  399.26   31.02
   1   7  -2  396.81   31.03
  -1   7   2  384.53   31.01
  -1   7   2  371.71   32.50
  -1  -7  -2   57.17    5.49
   1  -7   2   64.43    5.59
   1   7   2   65.34    4.76
   1   7   2   50.97    4.94
  -1   7  -2   57.72    4.75
   1   7   2   58.99    4.76
  -1   7  -2   56.12    4.78
  -3  -7  -2  349.81   30.43
   3   7   2  335.09   26.62
  -3   7  -2  306.22   26.62
  -3   7  -2  330.73   26.61
   3   7   2  339.89   26.60
   3   7   2  343.71   27.92
   5  -7   2    9.86    1.25
   5   7   2    6.60    0.79
  -5   7  -2    8.87    0.84
   5   7   2    9.10    0.86
   5   7   2    5.95    1.01
   5   7   2    8.94    0.84
  -5   7  -2    8.15    0.94
   7   7   2  453.81   35.01
   7   7   2  432.36   35.02
  -7   7  -2  461.49   35.07
  -7   7  -2  415.22   35.01
  -9  -7  -2    2.95    0.49
   9  -7   2    1.39    0.57
  -9   7  -2    3.64    0.47
   9   7   2    3.22    0.45
   9   7   2    2.57    0.41
  -9   7  -2    2.03    0.50
   9   7   2    3.25    0.66
  11  -7   2  412.63   38.27
 -11  -7  -2  408.57   35.14
  11   7   2  429.78   33.39
 -11   7  -2  419.57   33.43
  11   7   2  408.42   33.43
 -11   7  -2  442.95   33.50
  13  -7   2    0.85    0.34
 -13  -7  -2    0.27    0.31
  13  -7   2   -0.15    0.41
 -13   7  -2    0.70    0.38
  13   7   2    0.46    0.29
  13   7   2    0.58    0.41
  15  -7   2  302.96   22.11
 -15  -7  -2  273.83   23.22
  15  -7   2  270.61   25.34
 -15   7  -2  275.70   22.11
  15   7   2  260.54   25.25
  15   7   2  273.05   22.05
  17  -7   2    0.80    0.55
  17  -7   2    1.17    0.39
 -17  -7  -2    0.60    0.40
 -17   7  -2    0.87    0.40
  17   7   2    1.24    0.51
  17   7   2    0.49    0.32
 -19  -7  -2  323.31   23.94
  19   7   2  267.35   25.99
 -19   7  -2  262.45   22.72
 -21  -7  -2   16.31    1.60
  21  -7   2   16.62    1.88
 -21   7  -2   12.38    1.48
  21   7   2   15.37    1.79
  23  -7   2  145.20   14.15
 -23  -7  -2  151.81   12.94
 -23   7  -2  147.00   12.30
  23   7   2  163.05   14.11
  25  -7   2   13.52    1.72
 -25  -7  -2    6.95    1.17
 -25   7  -2   10.10    1.23
  25   7   2   10.57    1.47
 -27  -7  -2  129.32   10.89
  27  -7   2  116.34   11.89
 -27   7  -2  139.92   10.37
  27   7   2  120.38   11.84
  29  -7   2    9.09    1.43
 -29  -7  -2    6.96    1.11
 -29   7  -2    9.07    1.13
  29   7   2    5.95    1.16
 -31  -7  -2  133.15   11.23
  31  -7   2  136.01   12.33
 -31   7  -2  121.93   10.63
  31   7   2  131.42   12.22
 -32  -8   2   10.11    1.47
  32   8  -2   13.77    1.74
 -30  -8   2   89.45    7.50
  30   8  -2   82.84    8.11
 -30   8   2   83.79    7.08
 -28  -8   2    1.15    0.54
  28   8  -2    1.32    0.61
 -28   8   2    1.21    0.51
 -26  -8   2   87.09    7.06
 -26   8   2   75.82    6.62
  26   8  -2   78.14    7.62
 -24  -8   2    3.26    0.68
  24  -8  -2    2.74    0.70
  24   8  -2    1.83    0.66
 -24   8   2    2.02    0.57
  24   8  -2    2.54    0.56
  22  -8  -2  168.73   14.54
 -22  -8   2  168.13   15.23
 -22   8   2  175.24   14.48
  22   8  -2  191.78   14.46
  22   8  -2  193.43   16.58
 -20  -8   2    6.30    0.93
  20  -8  -2    6.34    0.92
  20  -8  -2    4.11    0.98
 -20   8   2    4.85    0.80
  20   8  -2    6.02    0.76
  20   8  -2    4.61    0.91
  18  -8  -2  164.89   13.87
 -18  -8   2  186.97   14.58
  18  -8  -2  177.69   15.89
 -18   8   2  175.93   13.84
  18   8  -2  167.00   13.80
  18   8  -2  158.03   15.81
  16  -8  -2    1.64    0.57
  16  -8  -2    1.54    0.45
 -16  -8   2    1.87    0.51
 -16   8   2    0.95    0.44
  16   8  -2    1.38    0.52
  16   8  -2    2.28    0.48
 -14  -8   2  185.77   15.66
  14  -8  -2  185.79   14.91
  14  -8  -2  185.27   17.05
 -14   8   2  192.17   14.90
  14   8  -2  183.84   14.87
  14   8  -2  178.70   17.02
  12  -8  -2   23.65    2.13
 -12  -8   2   24.47    2.26
  12  -8  -2   24.35    2.53
 -12   8   2   24.89    2.17
  12   8  -2   23.86    2.13
  12   8  -2   23.98    2.49
 -10  -8   2  146.09   14.07
  10  -8  -2  181.27   15.42
 -10   8   2  172.61   13.42
  10   8  -2  169.39   15.35
  10   8  -2  167.97   13.41
  -8  -8   2   29.68    2.71
   8   8  -2   28.25    2.58
  -8   8   2   33.87    2.64
   6  -8  -2  226.72   21.50
  -6  -8   2  248.32   21.53
  -6  -8   2  251.92   19.70
   6   8  -2  223.26   18.76
   6   8  -2  224.19   18.72
  -6   8   2  244.79   18.75
  -6   8   2  225.87   18.78
   4  -8  -2   21.06    2.20
  -4  -8   2   21.13    2.21
  -4   8   2   20.71    1.80
   4   8  -2   21.75    1.83
  -4   8   2   18.71    1.82
   4   8  -2   20.96    1.81
   2  -8  -2  293.84   26.13
   2   8  -2  284.43   22.82
  -2   8   2  279.83   22.83
   2   8  -2  287.30   22.83
   0  -8  -2   32.21    3.14
   0  -8   2   30.50    3.19
   0   8   2   30.01    2.67
   0   8   2   30.00    2.65
   0   8  -2   30.37    2.68
   0   8  -2   36.21    2.67
   2  -8   2  183.07   16.82
  -2  -8  -2  200.43   16.77
  -2   8  -2  185.76   14.63
   2   8   2  166.48   15.29
  -2   8  -2  175.21   14.59
   2   8   2  198.43   14.61
   2   8   2  171.92   14.59
   4  -8   2  106.59    8.40
  -4  -8  -2   89.35    8.28
   4   8   2   72.88    7.15
   4   8   2   90.85    7.18
  -4   8  -2   88.47    7.22
  -4   8  -2   90.22    7.17
   6  -8   2  145.12   13.98
  -6  -8  -2  150.80   12.72
  -6   8  -2  161.05   12.17
  -6   8  -2  150.40   12.10
   6   8   2  153.97   12.11
   6   8   2  143.76   13.88
  -8  -8  -2   62.97    5.42
   8  -8   2   73.62    6.13
   8   8   2   57.12    5.13
  -8   8  -2   63.27    5.15
  -8   8  -2   61.98    5.22
   8   8   2   67.71    6.00
   8   8   2   59.96    5.15
  10  -8   2  123.89   11.82
 -10  -8  -2  126.05   10.75
 -10   8  -2  113.71   10.19
  10   8   2  125.42   10.20
  10   8   2  122.62   10.18
  10   8   2  130.16   11.77
 -10   8  -2  149.95   10.31
 -12  -8  -2   63.44    5.73
  12  -8   2   65.25    6.35
  12   8   2   64.28    5.42
  12   8   2   77.95    6.34
 -12   8  -2   62.46    5.48
 -14  -8  -2   77.97    6.61
  14  -8   2   79.52    6.27
  14  -8   2   72.52    7.30
 -14   8  -2   82.07    6.32
  14   8   2   77.64    7.23
  14   8   2   69.53    6.22
  16  -8   2  159.76   15.85
  16  -8   2  190.97   13.81
 -16  -8  -2  164.38   14.49
  16   8   2  175.17   15.79
 -16   8  -2  171.21   13.80
  16   8   2  164.56   13.73
  18  -8   2   44.02    4.68
  18  -8   2   48.58    4.01
 -18  -8  -2   49.74    4.23
 -18   8  -2   48.03    4.02
  18   8   2   54.51    3.96
  18   8   2   35.91    4.55
 -20  -8  -2  102.67    8.67
  20   8   2   97.95    9.47
 -20   8  -2  100.70    8.23
  22  -8   2   51.49    5.42
 -22  -8  -2   56.15    4.90
 -22   8  -2   52.83    4.63
  22   8   2   58.82    5.40
 -24  -8  -2   97.00    9.40
  24  -8   2  111.94   10.38
 -24   8  -2  109.56    8.95
  24   8   2  120.48   10.32
 -26  -8  -2   17.65    1.87
  26  -8   2   15.66    2.27
  26   8   2   20.92    2.12
 -26   8  -2   17.62    1.81
  28  -8   2   43.54    4.09
 -28  -8  -2   31.96    3.57
 -28   8  -2   41.98    3.46
  28   8   2   39.58    3.97
 -30  -8  -2   15.03    1.74
  30  -8   2   15.60    2.03
 -30   8  -2    9.39    1.46
  30   8   2   18.32    1.89
 -29  -9   2   -0.19    0.38
 -29   9   2   -0.57    0.39
  29   9  -2    0.15    0.51
 -27  -9   2    0.35    0.45
  27   9  -2   -0.25    0.50
 -27   9   2    0.21    0.44
 -25  -9   2    2.89    0.73
  25  -9  -2    5.71    0.91
 -25   9   2    3.52    0.71
  25   9  -2    2.09    0.74
  25   9  -2    5.85    0.80
 -23  -9   2    0.62    0.49
  23  -9  -2    0.53    0.50
  23   9  -2    0.63    0.38
 -23   9   2    0.17    0.38
  23   9  -2    0.75    0.50
 -21  -9   2    0.63    0.42
  21  -9  -2    1.23    0.48
 -21   9   2   -0.23    0.37
  21   9  -2    1.16    0.60
  21   9  -2    1.13    0.42
 -19  -9   2    7.99    1.08
  19  -9  -2    6.95    1.01
  19   9  -2    7.64    1.18
 -19   9   2    7.43    1.00
  19   9  -2    7.59    0.96
 -17  -9   2    9.42    1.25
  17  -9  -2   10.73    1.21
  17  -9  -2   10.59    1.51
  17   9  -2   10.41    1.43
  17   9  -2    9.80    1.14
 -17   9   2    9.49    1.17
  15  -9  -2    0.24    0.33
  15  -9  -2    0.54    0.46
 -15  -9   2   -0.58    0.35
  15   9  -2    0.63    0.32
  15   9  -2    0.53    0.49
 -15   9   2    0.03    0.33
 -13  -9   2    1.42    0.45
  13  -9  -2    1.30    0.41
  13  -9  -2    1.54    0.60
  13   9  -2    1.24    0.37
  13   9  -2    1.30    0.53
 -13   9   2    1.27    0.40
  11  -9  -2    3.83    0.66
 -11  -9   2    5.33    0.79
  11  -9  -2    4.70    0.96
  11   9  -2    6.64    0.72
 -11   9   2    4.49    0.71
   9  -9  -2    0.70    0.52
   9  -9  -2    0.26    0.26
  -9  -9   2    0.51    0.41
  -9   9   2    0.10    0.31
   9   9  -2    0.42    0.30
  -7  -9   2    0.28    0.42
   7  -9  -2    0.44    0.47
  -7   9   2    0.26    0.28
  -7   9   2    0.35    0.33
   7   9  -2    0.62    0.30
   5  -9  -2    2.85    0.73
  -5  -9   2    2.20    0.64
   5   9  -2    3.41    0.51
  -5   9   2    2.08    0.49
  -5   9   2    4.30    0.54
   5   9  -2    3.07    0.51
  -3  -9   2    0.61    0.44
   3  -9  -2    1.10    0.52
  -3   9   2    0.00    0.29
   3   9  -2    1.24    0.35
   3   9  -2    0.49    0.32
  -3   9   2    0.45    0.29
   1  -9  -2    0.17    0.43
  -1  -9   2    1.10    0.59
   1   9  -2    0.47    0.30
  -1   9   2    1.32    0.33
   1   9  -2    1.49    0.37
  -1   9   2    0.49    0.31
  -1  -9  -2    0.73    0.43
   1  -9   2   -0.25    0.40
   1   9   2    0.44    0.27
  -1   9  -2   -0.01    0.29
   1   9   2    0.32    0.27
  -1   9  -2    0.03    0.23
   3  -9   2   -0.03    0.41
  -3  -9  -2   -0.22    0.29
  -3   9  -2    0.04    0.25
   3   9   2   -0.02    0.25
   3   9   2    0.34    0.28
  -3   9  -2    0.28    0.30
  -5  -9  -2    6.62    0.80
  -5  -9  -2    4.66    0.93
   5  -9   2    8.17    1.14
   5   9   2    6.45    0.77
  -5   9  -2    5.80    0.73
   5   9   2    5.43    0.72
  -7  -9  -2    5.14    0.64
   7  -9   2    2.17    0.71
   7   9   2    4.33    0.77
  -7   9  -2    3.74    0.54
   7   9   2    3.13    0.53
   7   9   2    3.95    0.56
  -7   9  -2    3.30    0.61
   9  -9   2    4.33    0.94
  -9  -9  -2    4.18    0.66
  -9   9  -2    3.80    0.67
   9   9   2    4.66    0.62
   9   9   2    4.47    0.82
  -9   9  -2    4.99    0.64
   9   9   2    4.25    0.62
 -11  -9  -2    9.52    0.95
  11  -9   2    7.60    1.27
 -11   9  -2    7.61    0.86
  11   9   2    4.92    1.01
 -11   9  -2    8.41    1.00
  11   9   2    7.81    0.90
 -13  -9  -2    3.69    0.66
  13  -9   2    3.35    0.56
  13  -9   2    3.53    0.88
  13   9   2    3.13    0.55
 -13   9  -2    3.63    0.67
  13   9   2    4.77    0.88
  15  -9   2    0.05    0.41
  15  -9   2    0.09    0.30
 -15  -9  -2    0.21    0.32
 -15   9  -2    0.07    0.34
  15   9   2    0.14    0.31
  15   9   2   -0.18    0.36
  17  -9   2   -0.15    0.47
 -17  -9  -2    0.13    0.35
  17  -9   2   -0.06    0.35
  17   9   2   -0.29    0.39
  17   9   2    0.79    0.37
 -17   9  -2   -0.12    0.35
  19  -9   2   16.83    1.71
 -19  -9  -2   11.70    1.41
 -19   9  -2    7.77    1.22
  19   9   2   11.29    1.54
 -21  -9  -2    0.86    0.49
  21  -9   2    1.40    0.70
 -21   9  -2    0.53    0.45
  21   9   2    1.57    0.66
 -23  -9  -2    0.33    0.40
  23  -9   2    0.35    0.54
  23   9   2    0.63    0.57
 -23   9  -2    0.20    0.40
  25  -9   2    0.81    0.69
 -25  -9  -2    0.35    0.42
  25   9   2    0.91    0.62
 -25   9  -2    0.48    0.44
 -27  -9  -2    0.29    0.43
  27  -9   2    0.29    0.65
  27   9   2   -0.15    0.44
 -27   9  -2    0.31    0.41
 -29  -9  -2   -0.27    0.44
  29  -9   2    0.64    0.65
 -29   9  -2   -0.18    0.42
  29   9   2    0.03    0.55
 -28 -10   2    1.56    0.59
  28  10  -2    0.91    0.61
 -28  10   2    1.14    0.51
 -26 -10   2   31.65    3.08
  26  10  -2   30.52    3.31
 -26  10   2   34.12    2.89
 -24 -10   2    0.95    0.51
  24 -10  -2    1.09    0.58
  24  10  -2    0.75    0.42
 -24  10   2    0.74    0.49
  24  10  -2    1.31    0.63
  22 -10  -2   82.95    7.40
 -22 -10   2   87.69    7.78
 -22  10   2   92.32    7.36
  22  10  -2   88.85    7.31
  22  10  -2   93.50    8.46
 -20 -10   2    0.59    0.48
  20 -10  -2    0.67    0.44
 -20  10   2    0.30    0.40
  20  10  -2    0.79    0.55
  20  10  -2    0.42    0.37
  18 -10  -2  160.77   13.06
 -18 -10   2  134.80   13.69
 -18  10   2  150.71   13.02
  18  10  -2  188.77   13.01
  18  10  -2  170.64   14.92
  16 -10  -2    3.74    0.96
  16 -10  -2    2.78    0.59
 -16 -10   2    1.89    0.62
  16  10  -2    2.71    0.71
 -16  10   2    2.77    0.63
  16  10  -2    3.67    0.58
  14 -10  -2  192.04   18.06
 -14  10   2  197.59   15.72
  14  10  -2  195.76   15.68
  12 -10  -2   16.19    1.85
  12 -10  -2   14.77    1.49
 -12 -10   2   14.96    1.80
  12  10  -2   16.16    1.48
 -12  10   2   15.59    1.53
 -10 -10   2   92.49    9.10
  10 -10  -2   89.66    7.88
  10 -10  -2  101.11    9.19
  10  10  -2   99.46    7.90
 -10  10   2  103.57    7.94
   8 -10  -2    5.95    1.02
  -8 -10   2    6.12    1.02
   8  10  -2    4.57    0.70
  -8  10   2    5.11    0.74
  -6 -10   2  259.52   23.58
   6 -10  -2  253.03   23.55
  -6  10   2  249.02   20.50
   6  10  -2  256.77   20.53
  -6  10   2  265.88   20.54
  -4 -10   2   72.37    6.20
   4  10  -2   61.60    5.25
  -4  10   2   66.75    5.26
   4  10  -2   59.72    5.26
  -4  10   2   62.07    5.29
  -2 -10   2   31.89    3.23
   2 -10  -2   32.81    3.19
   2  10  -2   30.30    2.66
   2  10  -2   32.78    2.65
  -2  10   2   26.75    2.62
  -2  10   2   31.93    2.67
   0 -10   2   14.10    1.83
   0 -10  -2   12.95    1.58
   0  10   2   13.01    1.23
   0  10  -2   13.01    1.31
   0  10   2   12.71    1.29
   0  10  -2   13.58    1.27
  -2 -10  -2   43.60    4.40
   2 -10   2   43.49    4.44
  -2  10  -2   44.26    3.73
   2  10   2   44.61    3.73
   2  10   2   45.92    3.76
  -2  10  -2   46.42    3.80
  -4 -10  -2   24.37    2.40
   4 -10   2   22.98    2.43
   4  10   2   19.64    1.94
  -4  10  -2   18.90    1.99
  -4  10  -2   23.41    1.96
   4  10   2   24.06    1.98
  -6 -10  -2  236.75   21.79
   6 -10   2  232.28   21.87
   6  10   2  239.57   18.99
  -6  10  -2  245.00   19.05
  -6  10  -2  236.09   18.97
   6  10   2  235.26   18.99
   8 -10   2  123.66   11.25
  -8 -10  -2  126.52   11.17
   8  10   2  102.90    9.64
  -8  10  -2  124.30    9.65
  -8  10  -2  123.91    9.72
  10 -10   2   97.92    9.77
 -10  10  -2  101.34    8.47
  10  10   2  109.34    9.71
 -10  10  -2   96.81    8.39
  10  10   2  113.02    8.42
  12 -10   2   35.93    3.08
 -12 -10  -2   21.44    2.56
  12  10   2   26.97    2.90
  12  10   2   31.76    2.47
 -14 -10  -2  116.60    9.74
  14 -10   2  106.49    9.23
  14 -10   2  107.34   10.71
  14  10   2  108.82    9.20
 -14  10  -2  126.26    9.29
  14  10   2  116.73   10.64
  16 -10   2   65.36    6.44
 -16  10  -2   62.37    5.52
  16  10   2   67.42    5.47
  16  10   2   70.06    6.39
 -18 -10  -2   53.09    4.50
  18 -10   2   50.78    4.28
  18 -10   2   51.17    5.02
 -18  10  -2   44.48    4.23
  18  10   2   59.11    4.97
  18  10   2   44.45    4.16
  20 -10   2   61.11    6.55
 -20 -10  -2   80.08    5.98
  20  10   2   61.29    6.44
 -20  10  -2   66.09    5.62
  22 -10   2   20.44    2.58
 -22 -10  -2   22.96    2.24
  22  10   2   20.61    2.45
 -22  10  -2   25.97    2.16
  24 -10   2   26.81    3.19
 -24 -10  -2   33.15    2.88
  24  10   2   25.60    3.08
 -24  10  -2   32.78    2.72
  26 -10   2    5.34    1.21
 -26 -10  -2    6.30    1.00
  26  10   2    4.46    1.01
 -26  10  -2    4.24    0.82
  28 -10   2   39.13    3.91
 -28 -10  -2   34.24    3.38
  28  10   2   35.24    3.71
  27  11  -2   67.24    6.87
 -27  11   2   76.30    6.01
 -25  11   2   60.71    4.65
  25  11  -2   48.30    5.28
  23 -11  -2  106.31    9.42
 -23  11   2  117.49    9.36
  23  11  -2  112.07    9.30
  23  11  -2  121.03   10.72
  21 -11  -2  115.17    8.64
  21  11  -2   99.90    8.51
 -21  11   2   99.83    8.56
  19 -11  -2   66.29    5.37
  19  11  -2   66.11    6.14
  19  11  -2   67.16    5.30
 -19  11   2   55.47    5.30
  17 -11  -2   63.11    5.36
 -17  11   2   67.19    5.37
  17  11  -2   61.51    5.30
  15 -11  -2   76.79    6.96
 -15 -11   2  101.00    8.10
  15  11  -2   80.22    6.93
 -15  11   2   84.05    6.97
  13 -11  -2  124.99   10.04
  13  11  -2  109.23    9.99
 -13  11   2  138.48   10.07
  11 -11  -2   34.86    3.10
  11 -11  -2   34.88    3.70
 -11 -11   2   36.23    3.67
 -11  11   2   35.98    3.11
  11  11  -2   37.29    3.09
  -9 -11   2  161.29   15.49
   9 -11  -2  162.42   13.47
  -9  11   2  172.32   13.50
   9  11  -2  172.78   13.48
  -7 -11   2   48.91    4.72
   7 -11  -2   48.12    4.74
   7  11  -2   46.35    3.97
  -7  11   2   46.86    3.94
  -7  11   2   47.03    3.99
   5 -11  -2  316.75   32.61
   5  11  -2  381.31   28.48
  -5  11   2  338.94   28.48
  -5  11   2  387.08   28.48
   3 -11  -2   52.17    5.59
  -3 -11   2   52.38    5.64
   3  11  -2   55.95    4.79
  -3  11   2   62.69    4.78
   3  11  -2   62.36    4.79
   1 -11  -2  358.96   28.90
  -1 -11   2  303.08   28.85
   1  11  -2  283.02   25.11
  -1  11   2  302.35   25.12
   1  11  -2  318.39   25.17
  -1  11   2  330.18   25.16
  -1 -11  -2   38.78    3.98
   1 -11   2   37.84    4.01
  -1  11  -2   46.34    3.41
  -1  11  -2   38.50    3.33
   1  11   2   39.56    3.37
   1  11   2   37.06    3.30
   3 -11   2  232.56   21.32
  -3 -11  -2  250.98   21.29
   3  11   2  237.85   18.49
  -3  11  -2  230.05   18.54
  -3  11  -2  208.00   18.48
   3  11   2  230.99   18.52
  -5 -11  -2   16.90    1.65
   5 -11   2   14.24    1.83
   5  11   2   10.46    1.23
   5  11   2   12.22    1.25
  -5  11  -2   12.13    1.23
  -5  11  -2   12.99    1.33
   7 -11   2  256.54   24.21
  -7 -11  -2  280.51   24.19
   7  11   2  277.17   21.06
  -7  11  -2  264.18   21.10
  -7  11  -2  240.03   21.03
  -9 -11  -2    0.37    0.42
   9 -11   2    0.58    0.55
  -9  11  -2    0.03    0.34
   9  11   2    0.08    0.31
  -9  11  -2    0.67    0.36
 -11  11  -2  184.85   14.09
 -11  11  -2  162.09   14.13
  11  11   2  177.95   14.09
  13 -11   2    1.30    0.63
  13 -11   2    0.87    0.40
  13  11   2    1.46    0.43
  13  11   2    1.62    0.58
 -13  11  -2    0.96    0.43
  15 -11   2  135.71   14.21
  15 -11   2  151.53   12.33
  15  11   2  157.24   12.28
  15  11   2  160.88   14.14
 -15  11  -2  154.01   12.34
  17 -11   2    3.61    0.93
  17 -11   2    2.74    0.62
 -17  11  -2    2.99    0.63
  17  11   2    3.23    0.80
  17  11   2    2.29    0.56
  19 -11   2  128.82   11.74
 -19 -11  -2  110.80   10.73
 -19  11  -2  134.79   10.18
  19  11   2  123.10   11.64
 -21 -11  -2    1.21    0.54
  21 -11   2    0.51    0.67
  21  11   2    1.69    0.67
 -21  11  -2    1.46    0.52
  23 -11   2  128.77   13.41
 -23 -11  -2  168.51   12.35
  23  11   2  155.24   13.37
 -23  11  -2  123.07   11.60
 -25 -11  -2   10.33    1.42
  25 -11   2   10.78    1.74
  25  11   2   10.80    1.61
 -25  11  -2   11.08    1.33
  24 -12  -2    0.45    0.52
 -24  12   2    0.12    0.41
  24  12  -2    0.79    0.46
  22 -12  -2   19.83    2.23
 -22  12   2   24.63    2.18
  22  12  -2   24.77    2.18
 -20 -12   2    2.94    0.81
  20 -12  -2    2.04    0.64
  20  12  -2    3.89    0.66
 -20  12   2    3.54    0.68
  18 -12  -2   24.64    2.50
 -18 -12   2   27.70    2.94
 -18  12   2   29.18    2.50
  18  12  -2   28.23    2.47
 -16 -12   2    2.42    0.71
  16 -12  -2    1.43    0.52
 -16  12   2    1.48    0.50
  16  12  -2    1.74    0.46
 -14 -12   2   63.28    6.50
  14  12  -2   67.47    5.59
 -14  12   2   71.05    5.63
 -12 -12   2    0.02    0.43
  12 -12  -2    0.47    0.36
 -12  12   2    0.55    0.40
  12  12  -2    0.36    0.34
  10 -12  -2   48.48    4.99
 -10 -12   2   52.08    4.97
  10  12  -2   49.40    4.17
 -10  12   2   49.14    4.21
  -8 -12   2    3.19    0.80
   8 -12  -2    2.50    0.82
   8  12  -2    3.62    0.58
  -8  12   2    2.67    0.61
   6 -12  -2   25.13    3.13
  -6 -12   2   25.29    3.13
   6  12  -2   31.76    2.60
  -6  12   2   31.82    2.66
  -6  12   2   32.91    2.60
   4 -12  -2   13.21    1.94
  -4 -12   2   15.27    2.01
  -4  12   2   16.88    1.47
   4  12  -2   15.21    1.40
  -4  12   2   11.76    1.37
   2 -12  -2   49.84    5.07
  -2 -12   2   47.14    5.06
  -2  12   2   48.27    4.29
   2  12  -2   58.80    4.30
  -2  12   2   50.41    4.25
   2  12  -2   50.39    4.30
   0 -12   2   21.35    2.50
   0 -12  -2   18.69    2.44
   0  12   2   17.07    2.01
   0  12  -2   24.81    2.10
   0  12  -2   28.53    2.06
   0  12   2   24.38    2.03
   2 -12   2   49.96    4.93
  -2 -12  -2   51.22    4.88
  -2  12  -2   49.04    4.16
   2  12   2   44.48    4.07
   2  12   2   54.09    4.16
  -2  12  -2   47.30    4.09
   4 -12   2   26.58    2.88
  -4 -12  -2   25.68    2.82
   4  12   2   30.75    2.40
  -4  12  -2   24.69    2.30
   4  12   2   25.65    2.30
  -4  12  -2   25.37    2.37
  -6 -12  -2   25.73    2.90
   6 -12   2   26.68    2.97
  -6  12  -2   27.31    2.39
  -6  12  -2   27.25    2.45
   6  12   2   28.05    2.40
   8 -12   2   23.08    3.19
   8  12   2   30.02    2.65
  -8  12  -2   33.18    2.74
  -8  12  -2   34.33    2.68
  10 -12   2   29.92    2.83
 -10 -12  -2   31.34    2.75
  10  12   2   21.87    2.16
 -10  12  -2   22.43    2.17
 -10  12  -2   22.79    2.26
 -12 -12  -2   17.40    2.06
  12 -12   2   17.94    2.38
  12  12   2   18.18    1.68
 -12  12  -2   17.66    1.76
 -14 -12  -2   29.01    3.20
  14 -12   2   30.42    2.75
  14 -12   2   30.19    3.33
  14  12   2   30.60    2.71
 -14  12  -2   33.82    2.81
  16 -12   2   14.19    1.55
  16 -12   2   12.24    1.90
 -16  12  -2   12.55    1.53
  16  12   2   13.73    1.41
  16  12   2   15.46    1.75
  18 -12   2   11.03    1.50
  18 -12   2   14.45    1.97
  18  12   2   14.18    1.37
 -18  12  -2   12.70    1.50
  18  12   2   13.10    1.81
  20 -12   2    5.70    1.30
 -20  12  -2   10.23    1.18
  20  12   2    7.25    1.22
  22 -12   2   15.31    2.12
 -22  12  -2   12.85    1.58
  22  12   2   15.30    1.96
  24 -12   2   15.86    2.55
 -24  12  -2   18.37    1.94
  24  12   2   24.64    2.35
  21 -13  -2   21.18    2.01
 -21 -13   2   18.19    2.23
 -21  13   2   22.67    1.96
  21  13  -2   18.60    1.90
  19 -13  -2   14.82    1.63
 -19 -13   2   16.73    1.91
 -19  13   2   15.32    1.57
  19  13  -2   15.57    1.57
 -17 -13   2    8.67    1.31
  17 -13  -2    4.86    0.92
 -17  13   2   10.80    1.13
  17  13  -2    7.29    0.98
  15 -13  -2   18.23    1.78
 -15 -13   2   17.17    2.13
 -15  13   2   17.97    1.76
  15  13  -2   18.11    1.70
  13 -13  -2   14.98    1.55
  13  13  -2   15.42    1.50
 -13  13   2   15.92    1.57
  11 -13  -2    8.22    0.98
 -11 -13   2    7.25    1.27
  11  13  -2    8.21    0.92
 -11  13   2    4.34    0.85
   9 -13  -2   23.97    2.13
  -9 -13   2   20.50    2.56
   9  13  -2   23.78    2.13
  -9  13   2   25.46    2.20
  -7 -13   2    8.29    1.39
   7  13  -2    8.43    0.97
  -7  13   2    7.81    1.02
   5 -13  -2   35.74    4.20
  -5 -13   2   51.72    4.30
  -5  13   2   39.22    3.54
   5  13  -2   40.21    3.50
  -5  13   2   41.57    3.49
   3 -13  -2    5.90    1.21
  -3 -13   2    6.03    1.17
  -3  13   2    4.56    0.79
  -3  13   2    5.46    0.77
   1 -13  -2   18.07    2.35
  -1 -13   2   18.00    2.36
  -1  13   2   22.72    1.88
  -1  13   2   24.34    1.98
   1  13  -2   18.29    1.85
  -1 -13  -2    0.80    0.62
   1 -13   2    1.77    0.74
   1  13   2    2.18    0.52
   1  13   2    1.60    0.43
   3 -13   2   30.73    2.99
  -3 -13  -2   21.64    2.85
   3  13   2   26.59    2.32
  -3  13  -2   25.94    2.30
   3  13   2   26.23    2.42
  -3  13  -2   27.24    2.41
  -5 -13  -2    3.12    0.87
   5 -13   2    3.04    0.95
   5  13   2    3.48    0.58
  -5  13  -2    3.16    0.58
  -5  13  -2    3.81    0.70
   7 -13   2   27.26    3.07
  -7 -13  -2   28.72    3.02
  -7  13  -2   25.82    2.49
  -7  13  -2   28.62    2.46
   7  13   2   28.39    2.44
  -9 -13  -2    1.15    0.59
   9 -13   2    0.58    0.65
  -9  13  -2    1.07    0.38
   9  13   2    0.58    0.38
  -9  13  -2    0.36    0.41
  11 -13   2   26.25    3.01
 -11 -13  -2   23.31    2.88
 -11  13  -2   26.73    2.47
  11  13   2   30.67    2.42
  13 -13   2    0.20    0.54
 -13 -13  -2    0.80    0.54
  13 -13   2    0.56    0.36
  13  13   2    0.40    0.39
 -13  13  -2    0.34    0.41
  15 -13   2   18.32    1.81
  15 -13   2   18.36    2.50
 -15 -13  -2   17.85    2.18
 -15  13  -2   20.55    1.87
  15  13   2   18.32    1.78
 -17 -13  -2    3.96    0.94
  17 -13   2    3.11    0.71
  17 -13   2    3.69    1.02
  17  13   2    4.30    0.71
 -17  13  -2    4.70    0.77
  19 -13   2   15.37    2.11
 -19  13  -2   13.63    1.59
  21 -13   2    0.98    0.79
 -21  13  -2    1.31    0.53
  21  13   2    1.10    0.66
 -18 -14   2   59.39    5.94
  18 -14  -2   59.70    5.13
  18  14  -2   72.66    5.10
 -18  14   2   50.52    5.05
 -16 -14   2    5.76    1.13
  16 -14  -2    3.35    0.73
 -16  14   2    5.08    0.82
  16  14  -2    5.41    0.79
  14 -14  -2   86.64    7.19
 -14 -14   2   90.88    8.38
 -14  14   2   89.57    7.19
  14  14  -2   82.30    7.13
  12 -14  -2    1.83    0.51
 -12 -14   2    1.47    0.66
  12  14  -2    1.32    0.47
 -12  14   2    1.37    0.51
  10 -14  -2  133.17   10.58
 -10 -14   2  124.74   12.20
  10  14  -2  131.13   10.53
  -8 -14   2   19.43    2.01
   8 -14  -2   15.29    1.50
   8  14  -2   12.60    1.48
  -8  14   2   16.20    1.57
  -6 -14   2  125.31   13.68
  -6  14   2  150.72   11.89
   6  14  -2  159.76   11.84
  -4 -14   2   12.69    1.80
  -4  14   2   13.82    1.31
   4  14  -2    9.84    1.23
  -4  14   2   10.44    1.17
   2 -14  -2  142.32   13.24
  -2 -14   2  134.16   13.17
  -2  14   2  141.84   11.40
  -2  14   2  142.19   11.35
   0 -14   2   24.98    2.77
   0 -14  -2   22.05    2.71
   0  14   2   23.76    2.16
   0  14  -2   23.47    2.14
   0  14   2   25.67    2.25
   2 -14   2   81.16    9.11
  -2 -14  -2   95.60    9.16
  -2  14  -2   97.33    7.80
   2  14   2  103.74    7.81
  -2  14  -2   96.57    7.87
   4 -14   2   33.31    4.52
  -4 -14  -2   54.95    4.71
  -4  14  -2   53.48    3.94
   4  14   2   45.73    3.82
  -4  14  -2   41.62    3.81
  -6 -14  -2   55.89    5.53
   6 -14   2   56.51    5.58
  -6  14  -2   53.93    4.70
  -6  14  -2   58.29    4.64
   6  14   2   53.22    4.62
   8 -14   2   41.86    4.71
  -8 -14  -2   44.52    4.67
  -8  14  -2   47.64    3.91
  -8  14  -2   46.44    3.97
   8  14   2   48.36    3.91
 -10 -14  -2   69.97    6.83
  10 -14   2   63.37    6.84
  10  14   2   74.05    5.79
 -10  14  -2   72.88    5.86
 -10  14  -2   67.96    5.77
  12 -14   2   48.69    5.49
  12 -14   2   55.45    4.66
 -12 -14  -2   56.66    5.49
 -12  14  -2   56.51    4.70
  12  14   2   57.31    4.63
  14 -14   2   43.32    3.74
 -14 -14  -2   46.00    4.43
  14 -14   2   44.41    4.52
  14  14   2   40.81    3.68
 -14  14  -2   42.39    3.73
 -16 -14  -2   23.87    2.77
  16 -14   2   22.42    2.36
  16 -14   2   35.30    3.06
 -16  14  -2   26.16    2.35
  16  14   2   23.39    2.30
  18 -14   2   31.25    3.53
 -18  14  -2   32.70    2.88
  15 -15  -2   26.02    2.62
 -15 -15   2   39.01    3.29
  15  15  -2   26.35    2.56
  13 -15  -2   32.26    3.44
 -13  15   2   39.72    3.49
  13  15  -2   49.14    3.49
  11 -15  -2   46.84    3.74
 -11 -15   2   48.42    4.49
  11  15  -2   37.33    3.66
 -11  15   2   42.66    3.73
  -9 -15   2   89.27    8.05
   9 -15  -2   88.21    6.87
  -9  15   2   71.21    6.83
   9  15  -2   84.58    6.80
   7 -15  -2    8.61    1.15
  -7 -15   2   10.21    1.63
   7  15  -2   12.91    1.21
  -7  15   2   10.08    1.27
   5  15  -2   82.55    6.99
  -5  15   2   88.04    7.04
  -3 -15   2   12.48    1.91
  -3  15   2   13.35    1.32
  -3  15   2   12.87    1.50
   3  15  -2   12.75    1.32
  -1 -15   2   68.54    7.21
  -1  15   2   71.81    6.17
   1  15  -2   73.52    6.08
  -1  15   2   79.58    6.10
  -1 -15  -2   14.34    1.99
   1 -15   2   10.97    1.86
  -1  15  -2   13.88    1.33
   1  15   2   12.61    1.34
  -3 -15  -2   69.08    6.98
   3 -15   2   78.03    7.01
   3  15   2   70.66    5.85
  -3  15  -2   67.90    5.84
   5 -15   2    5.89    1.22
  -5 -15  -2    5.84    1.19
  -5  15  -2    3.79    0.73
   5  15   2    7.27    0.84
  -5  15  -2    5.65    0.89
   7 -15   2   82.45    8.12
   7  15   2   87.41    6.85
  -7  15  -2   81.53    6.91
  -7  15  -2   81.45    6.83
  -9 -15  -2    2.46    0.81
   9 -15   2    1.72    0.85
  -9  15  -2    2.81    0.60
   9  15   2    3.56    0.60
  -9  15  -2    3.84    0.70
  11 -15   2  110.99   11.33
  11 -15   2  113.44    9.72
 -11 -15  -2  135.33   11.35
  11  15   2  118.06    9.68
 -11  15  -2  120.45    9.75
  13 -15   2    0.79    0.74
  13 -15   2    1.53    0.54
 -13 -15  -2    1.19    0.67
 -13  15  -2    0.88    0.52
  13  15   2    1.87    0.48
   8 -16  -2    0.37    0.39
  -8 -16   2    0.74    0.65
   8  16  -2    1.52    0.45
  -8  16   2    0.41    0.43
   6 -16  -2    2.22    0.52
  -6 -16   2    2.16    0.85
   6  16  -2    1.80    0.47
  -6  16   2    1.59    0.55
  -4 -16   2    0.29    0.59
   4  16  -2    0.84    0.37
  -4  16   2    0.35    0.45
  -2 -16   2    9.82    1.67
  -2  16   2    8.20    1.04
   2  16  -2    9.57    1.10
   0 -16   2    0.05    0.58
   0  16  -2    1.06    0.41
   2 -16   2    2.25    0.85
  -2  16  -2    1.95    0.51
   2  16   2    2.50    0.54
   4 -16   2    1.30    0.73
   4  16   2    2.51    0.54
  -4  16  -2    2.37    0.57
  -6 -16  -2   -0.39    0.52
   6 -16   2    0.26    0.69
   6  16   2    0.21    0.36
  -6  16  -2    0.13    0.33
  -6  16  -2    0.30    0.43
  -8 -16  -2    0.31    0.66
   8 -16   2    0.43    0.64
  -8  16  -2    0.79    0.45
  -8  16  -2    0.61    0.40
   8  16   2    0.74    0.39
 -36   0   3   -0.50    0.44
  34   0  -3   -0.28    0.44
 -34   0   3    0.06    0.45
 -32   0   3    0.34    0.46
  32   0  -3    0.09    0.47
  30   0  -3    0.25    0.50
 -30   0   3    0.29    0.41
 -28   0   3    0.17    0.41
  28   0  -3   -0.08    0.41
 -26   0   3    0.06    0.42
  26   0  -3    0.56    0.48
  26   0  -3    0.47    0.39
  24   0  -3    0.24    0.37
  24   0  -3   -0.09    0.38
 -24   0   3   -0.04    0.37
  22   0  -3   -0.09    0.36
  22   0  -3    0.49    0.37
 -22   0   3    0.39    0.36
 -20   0   3    0.15    0.32
  20   0  -3    0.35    0.33
  20   0  -3    0.04    0.30
 -18   0   3   -0.19    0.27
  18   0  -3    0.15    0.31
  18   0  -3   -0.21    0.27
 -18   0   3    0.14    0.22
 -16   0   3    0.09    0.19
  16   0  -3   -0.22    0.25
 -16   0   3    0.01    0.29
  16   0  -3   -0.35    0.23
 -14   0   3   -0.04    0.16
 -14   0   3   -0.13    0.25
  14   0  -3   -0.30    0.26
  14   0  -3   -0.01    0.24
 -12   0   3    0.33    0.31
  12   0  -3   -0.47    0.25
  12   0  -3   -0.56    0.21
 -12   0   3   -0.09    0.16
  10   0  -3   -0.64    0.23
 -10   0   3   -0.48    0.22
 -10   0   3   -0.58    0.13
  10   0  -3   -0.85    0.19
   8   0  -3   -0.45    0.22
  -8   0   3   -0.33    0.13
  -8   0   3   -0.40    0.21
   8   0  -3   -0.47    0.14
  -6   0   3   -0.12    0.20
  -6   0   3   -0.36    0.11
   6   0  -3   -0.18    0.20
   6   0  -3   -0.52    0.14
   4   0  -3   -0.43    0.18
  -4   0   3   -0.22    0.13
  -4   0   3    0.09    0.21
  -2   0   3   -1.26    0.11
  -2   0   3   -1.07    0.18
   2   0  -3   -1.17    0.15
   0   0   3    0.47    0.17
   0   0   3    0.13    0.15
   0   0  -3   -0.03    0.15
   0   0  -3    0.04    0.13
   2   0   3   -0.82    0.19
   2   0   3   -0.88    0.14
  -2   0  -3   -0.89    0.17
  -4   0  -3   -1.21    0.17
   4   0   3   -0.85    0.20
   4   0   3   -1.06    0.15
   6   0   3   -0.57    0.26
   6   0   3   -0.61    0.17
  -6   0  -3   -0.99    0.19
   8   0   3   -0.48    0.18
   8   0   3   -0.25    0.25
  -8   0  -3   -0.19    0.22
 -10   0  -3   -0.16    0.24
  10   0   3   -0.46    0.17
  10   0   3   -0.40    0.29
  12   0   3   -0.03    0.36
  12   0   3    0.02    0.25
 -12   0  -3   -0.33    0.23
  14   0   3    0.03    0.33
 -14   0  -3    0.08    0.25
 -14   0  -3    0.11    0.23
 -16   0  -3   -0.14    0.26
  16   0   3   -0.32    0.33
 -16   0  -3    0.08    0.24
 -18   0  -3   -0.14    0.25
  18   0   3    0.05    0.33
 -18   0  -3    0.32    0.32
  20   0   3    0.21    0.37
 -20   0  -3    0.12    0.32
 -20   0  -3    0.32    0.33
 -22   0  -3    0.30    0.35
 -22   0  -3    0.24    0.36
  22   0   3    0.93    0.54
 -24   0  -3    0.15    0.35
  24   0   3    0.37    0.47
  26   0   3    0.13    0.43
 -26   0  -3   -0.31    0.35
 -28   0  -3   -0.10    0.38
  28   0   3    0.09    0.50
 -30   0  -3    0.14    0.43
  30   0   3    0.12    0.51
 -32   0  -3    0.00    0.44
  32   0   3    0.32    0.44
  34   0   3    0.50    0.57
 -34   0  -3    0.58    0.49
 -35  -1   3    0.03    0.47
 -35   1   3    0.21    0.49
  35   1  -3    0.87    0.59
  33  -1  -3   81.72    7.74
 -33  -1   3   77.62    7.12
 -33   1   3   76.87    7.14
  33   1  -3   88.60    7.80
 -31  -1   3    3.00    0.70
  31  -1  -3    2.99    0.79
  31   1  -3    2.44    0.74
 -31   1   3    1.63    0.64
  29  -1  -3  136.49   13.10
 -29  -1   3  139.72   12.06
  29   1  -3  143.66   13.11
 -29   1   3  142.78   12.05
  27  -1  -3    1.60    0.56
 -27  -1   3    1.77    0.58
  27  -1  -3    1.87    0.63
  27   1  -3    1.19    0.54
  27   1  -3    2.85    0.61
 -27   1   3    1.64    0.56
 -25  -1   3  251.29   22.82
  25  -1  -3  282.84   21.76
  25   1  -3  257.89   24.80
 -25   1   3  279.75   22.86
  25   1  -3  283.07   21.74
 -23  -1   3   14.93    1.63
  23  -1  -3   12.63    1.55
  23  -1  -3   17.35    1.84
  23   1  -3   18.38    1.82
  23   1  -3   17.65    1.58
 -23   1   3   15.47    1.67
  21  -1  -3  215.66   20.67
  21  -1  -3  228.99   18.14
 -21  -1   3  255.06   19.08
 -21   1   3  212.12   18.03
  21   1  -3  219.71   18.12
 -21   1   3  200.04   19.04
  21   1  -3  252.66   20.69
  19  -1  -3   17.09    1.98
  19  -1  -3   20.91    1.80
 -19  -1   3   20.10    1.88
 -19   1   3   15.24    1.82
 -19   1   3   21.81    1.69
  19   1  -3   21.11    2.01
  19   1  -3   17.15    1.75
 -17  -1   3  290.69   24.70
 -17  -1   3  284.13   23.37
  17  -1  -3  267.25   23.51
  17  -1  -3  293.95   26.80
 -17   1   3  318.74   23.42
  17   1  -3  305.41   26.80
 -17   1   3  299.31   24.71
  15  -1  -3   89.60    8.41
 -15  -1   3   95.49    7.27
 -15  -1   3   91.34    7.77
 -15   1   3   95.23    7.78
  15   1  -3   81.75    8.39
 -15   1   3   91.69    7.32
 -13  -1   3  167.69   16.67
  13  -1  -3  222.16   18.11
  13  -1  -3  194.93   15.91
  13   1  -3  201.57   15.90
  13   1  -3  194.53   18.11
 -13   1   3  219.72   16.71
 -13   1   3  190.98   15.81
  11  -1  -3   51.67    4.95
 -11  -1   3   64.70    4.63
  11  -1  -3   50.12    4.38
 -11   1   3   53.40    4.30
  11   1  -3   47.43    4.36
 -11   1   3   53.17    4.59
  11   1  -3   53.79    4.96
  -9  -1   3  299.23   23.08
  -9  -1   3  298.71   24.34
   9  -1  -3  324.33   23.21
   9  -1  -3  285.97   26.38
  -9   1   3  290.87   24.34
  -9   1   3  255.60   23.10
   9   1  -3  292.56   26.40
   9   1  -3  283.42   23.18
   7  -1  -3   37.60    4.05
  -7  -1   3   40.97    3.80
  -7  -1   3   47.81    3.54
   7  -1  -3   49.00    3.64
   7   1  -3   47.27    4.10
  -7   1   3   45.10    3.57
  -7   1   3   41.80    3.79
   7   1  -3   44.67    3.63
  -5  -1   3  130.06   11.03
  -5   1   3  140.49   11.66
   5   1  -3  156.87   12.63
  -5   1   3  131.97   11.06
   5   1  -3  136.09   11.11
  -3  -1   3   25.66    2.66
   3  -1  -3   26.70    2.36
  -3  -1   3   28.61    2.48
  -3   1   3   27.31    2.33
  -3   1   3   29.02    2.49
   3   1  -3   34.46    2.38
   3   1  -3   29.93    2.33
   1   1  -3  423.95   33.43
   1   1  -3  418.91   33.45
   1  -1   3  396.59   35.10
  -1   1  -3  371.64   30.75
   1   1   3  394.44   35.06
   3  -1   3  207.62   17.33
   3  -1   3  202.83   18.88
  -3   1  -3  227.76   16.54
   3   1   3  202.20   17.34
   3   1   3  198.44   18.85
  -5  -1  -3  572.23   49.14
  -5   1  -3  667.64   49.17
   7  -1   3  428.93   33.62
  -7  -1  -3  320.27   29.39
   7  -1   3  368.52   30.86
   7   1   3  337.59   33.57
   7   1   3  357.40   30.87
  -7   1  -3  411.25   29.43
  -9  -1  -3  186.12   16.53
   9  -1   3  242.52   18.96
   9  -1   3  198.77   17.35
   9   1   3  201.66   17.37
  -9   1  -3  183.00   16.54
   9   1   3  238.22   18.94
 -11  -1  -3  357.93   29.67
  11  -1   3  375.75   31.16
  11  -1   3  362.80   33.94
 -11   1  -3  427.33   29.71
  11   1   3  357.54   33.90
  11   1   3  358.08   31.17
  13  -1   3  261.23   24.27
 -13  -1  -3  261.81   21.19
 -13   1  -3  272.52   21.21
  13   1   3  275.37   22.26
 -13   1  -3  257.57   22.25
  15  -1   3   52.10    4.28
 -15  -1  -3   53.07    4.60
  15  -1   3   56.27    5.07
 -15  -1  -3   46.48    4.35
 -15   1  -3   51.98    4.58
  15   1   3   59.99    5.10
 -15   1  -3   53.05    4.39
 -17  -1  -3  137.58   11.02
 -17  -1  -3  124.60   11.57
  17  -1   3  138.08   12.67
  17   1   3  124.31   12.65
 -17   1  -3  144.28   11.05
 -17   1  -3  151.76   11.60
  19  -1   3   41.90    3.63
 -19  -1  -3   32.42    3.18
 -19  -1  -3   33.98    3.02
 -19   1  -3   34.76    3.04
 -19   1  -3   32.57    3.17
  19   1   3   39.48    3.55
 -21  -1  -3  157.17   11.57
  21  -1   3  153.00   13.32
 -21  -1  -3  135.88   12.15
 -21   1  -3  141.16   11.57
  21   1   3  128.66   13.24
  23  -1   3   23.66    2.56
 -23  -1  -3   27.07    2.32
 -23   1  -3   23.52    2.19
 -23   1  -3   22.02    2.27
  23   1   3   22.97    2.55
  25  -1   3  136.93   12.30
 -25   1  -3  129.15   11.26
 -25   1  -3  140.07   10.72
  25   1   3  120.21   12.24
 -27  -1  -3    6.18    0.96
  27  -1   3    5.97    1.08
 -27   1  -3    5.20    0.90
  27   1   3    6.07    1.13
  29  -1   3  119.46   10.03
 -29   1  -3   93.76    9.10
  31  -1   3   -0.19    0.49
 -31  -1  -3    0.29    0.46
 -31   1  -3   -0.39    0.36
  31   1   3   -0.13    0.44
  33  -1   3   68.26    6.56
 -33  -1  -3   66.80    5.98
 -33   1  -3   66.12    5.98
  35  -1   3    1.44    0.65
 -35  -1  -3    1.43    0.60
 -35   1  -3    0.68    0.54
  35   1   3    1.05    0.61
 -36  -2   3   47.73    4.69
  36   2  -3   54.55    5.12
 -36   2   3   52.45    4.73
 -34  -2   3   51.20    5.23
  34   2  -3   62.05    5.74
 -34   2   3   63.05    5.33
  32  -2  -3   66.62    6.47
 -32  -2   3   61.22    5.89
 -32   2   3   58.54    5.90
  32   2  -3   82.26    6.52
  30  -2  -3   71.69    7.10
 -30  -2   3   77.52    6.58
  30   2  -3   75.69    7.15
 -30   2   3   72.75    6.58
  28  -2  -3  133.23   12.46
 -28   2   3  133.05   11.46
  28   2  -3  134.05   12.43
 -26  -2   3   99.11    8.46
  26  -2  -3  111.67    9.24
  26  -2  -3   88.68    8.04
 -26   2   3   89.92    8.45
  26   2  -3  108.37    9.24
  26   2  -3   91.79    8.01
  24  -2  -3  220.55   19.43
  24   2  -3  208.37   16.99
  24   2  -3  184.53   19.36
 -24   2   3  234.53   17.92
 -22  -2   3   57.94    4.90
  22  -2  -3   59.75    5.31
  22  -2  -3   47.47    4.62
 -22   2   3   53.06    4.88
 -22   2   3   55.53    4.56
  22   2  -3   60.15    5.32
  22   2  -3   52.93    4.61
 -20  -2   3  368.49   32.46
  20  -2  -3  399.92   35.25
  20  -2  -3  387.46   30.93
 -20   2   3  390.54   30.82
  20   2  -3  383.87   30.89
  20   2  -3  393.05   35.26
  18  -2  -3   81.49    8.52
  18  -2  -3   95.88    7.53
 -18  -2   3   95.76    7.90
  18   2  -3  100.06    8.57
 -18   2   3   99.48    7.44
 -18   2   3   95.07    7.89
  18   2  -3   77.01    7.44
 -16  -2   3  473.35   40.28
  16  -2  -3  469.82   43.71
  16  -2  -3  514.62   38.39
  16   2  -3  449.34   43.72
  16   2  -3  493.90   38.36
 -16   2   3  485.85   40.28
 -16   2   3  485.98   38.28
 -14  -2   3   62.18    6.16
  14  -2  -3   68.43    5.89
  14  -2  -3   85.63    6.71
  14   2  -3   65.28    6.69
 -14   2   3   74.79    6.18
 -14   2   3   77.36    5.83
  14   2  -3   68.75    5.86
 -12  -2   3  550.11   45.63
  12  -2  -3  538.17   43.46
  12  -2  -3  469.24   49.49
 -12   2   3  556.51   43.38
  12   2  -3  585.97   49.54
 -12   2   3  561.35   45.62
  12   2  -3  563.86   43.46
 -10  -2   3   78.53    6.70
  10  -2  -3   81.04    6.38
  10  -2  -3   82.15    7.23
 -10   2   3   73.60    6.67
  10   2  -3   82.11    6.38
 -10   2   3   73.51    6.32
  -8  -2   3  491.35   40.15
   8  -2  -3  464.10   43.53
   8  -2  -3  493.87   38.24
   8   2  -3  453.76   38.22
   8   2  -3  496.80   43.56
  -8   2   3  482.39   40.13
   6  -2  -3   45.07    3.63
  -6  -2   3   51.12    3.83
   6  -2  -3   38.94    4.07
   6   2  -3   51.97    4.14
  -6   2   3   42.57    3.60
   6   2  -3   35.66    3.62
  -6   2   3   44.58    3.81
  -2  -2   3   61.59    5.63
   2  -2  -3   59.96    4.91
  -2  -2   3   63.13    5.16
  -2   2   3   60.42    5.16
   2   2  -3   58.67    4.89
  -2   2   3   58.82    4.90
   2   2  -3   57.93    4.91
   2  -2   3   69.09    5.57
   2  -2   3   66.20    6.13
  -2   2  -3   66.66    5.30
   2   2   3   62.41    5.29
   2   2   3   65.46    5.32
   2   2   3   72.65    5.60
   2   2   3   62.23    6.07
  -2   2  -3   60.82    5.34
  -6  -2  -3    1.22    0.34
   6  -2   3    1.68    0.52
   6  -2   3    2.38    0.35
   6   2   3    1.52    0.43
  -6   2  -3    1.78    0.39
   6   2   3    2.39    0.28
  -6   2  -3    2.21    0.28
   6   2   3    2.31    0.38
  -8  -2  -3  422.61   31.25
   8  -2   3  384.74   35.70
   8  -2   3  392.63   32.79
  -8   2  -3  363.05   31.26
   8   2   3  400.62   32.83
  10  -2   3   30.25    3.25
  10  -2   3   32.16    2.92
 -10  -2  -3   31.27    2.79
  10  -2   3   34.90    2.74
  10   2   3   35.60    3.27
 -10   2  -3   32.50    2.83
  10   2   3   35.16    2.94
  10   2   3   33.45    2.71
  12  -2   3  474.92   43.00
 -12  -2  -3  447.35   37.60
  12  -2   3  476.16   37.58
  12   2   3  514.01   37.55
 -12   2  -3  457.78   37.63
  12   2   3  491.47   39.51
 -12   2  -3  448.44   39.49
  14  -2   3  179.10   14.22
 -14  -2  -3  184.91   14.28
  14  -2   3  168.05   16.38
  14   2   3  186.55   14.19
 -14   2  -3  176.22   14.98
  14   2   3  165.75   16.34
 -14   2  -3  183.00   14.30
 -16  -2  -3  443.39   35.89
  16  -2   3  444.29   41.06
 -16  -2  -3  446.87   37.73
 -16   2  -3  438.80   35.92
  16   2   3  520.95   41.08
 -16   2  -3  416.57   37.70
 -18  -2  -3   66.74    5.70
 -18  -2  -3   67.89    5.40
  18  -2   3   62.64    6.26
 -18   2  -3   64.48    5.69
 -18   2  -3   68.45    5.44
  18   2   3   63.04    6.25
 -20  -2  -3  230.36   20.16
  20  -2   3  236.50   21.98
 -20  -2  -3  236.63   19.16
 -20   2  -3  250.07   19.21
 -20   2  -3  241.52   20.17
  20   2   3  242.10   21.98
  22  -2   3   24.70    2.15
 -22  -2  -3   14.72    1.75
 -22   2  -3   15.07    1.75
 -22   2  -3   18.94    1.72
 -24  -2  -3  225.64   20.18
 -24   2  -3  219.61   20.17
  24   2   3  275.06   22.03
 -24   2  -3  239.45   19.20
  26  -2   3   12.09    2.06
 -26  -2  -3   21.19    1.90
 -26   2  -3   16.82    1.83
  26   2   3   18.83    2.09
 -26   2  -3   21.77    1.85
 -28  -2  -3  168.00   12.89
 -28   2  -3  133.85   12.84
 -30  -2  -3   52.65    4.54
  30  -2   3   44.96    4.94
 -30   2  -3   54.19    4.59
  30   2   3   49.03    4.97
  32  -2   3   95.50    8.76
 -32   2  -3   85.10    7.98
  32   2   3   94.28    8.70
  34  -2   3   41.49    4.03
 -34  -2  -3   39.55    3.64
  34   2   3   38.80    3.99
 -34   2  -3   35.34    3.60
 -35  -3   3    1.90    0.64
  35   3  -3    1.98    0.71
 -33  -3   3   15.84    1.96
  33   3  -3   20.97    2.22
 -33   3   3   21.01    2.07
 -31  -3   3    0.46    0.48
  31   3  -3    0.62    0.50
 -31   3   3    0.09    0.44
  29  -3  -3   62.50    5.51
  29   3  -3   55.99    5.45
 -29   3   3   49.92    5.01
 -27  -3   3    1.12    0.52
  27  -3  -3    2.89    0.73
  27  -3  -3    1.49    0.58
  27   3  -3    1.96    0.66
 -27   3   3    1.14    0.53
  27   3  -3    1.94    0.54
  25  -3  -3   36.87    3.70
 -25  -3   3   41.32    3.88
  25  -3  -3   49.26    4.27
  25   3  -3   48.86    4.29
  25   3  -3   40.62    3.68
 -25   3   3   41.83    3.91
  23  -3  -3    0.97    0.50
  23  -3  -3    1.03    0.48
 -23  -3   3    0.36    0.39
  23   3  -3    1.28    0.44
 -23   3   3    0.46    0.37
 -23   3   3    0.98    0.46
  23   3  -3    1.27    0.52
  21  -3  -3  115.88    9.19
  21  -3  -3   94.95    8.02
 -21  -3   3   90.77    8.40
  21   3  -3   87.38    7.95
 -21   3   3   96.89    7.94
  21   3  -3  102.77    9.16
 -21   3   3   98.97    8.42
 -19  -3   3    0.55    0.35
  19  -3  -3    1.04    0.41
  19  -3  -3    0.22    0.37
 -19   3   3    0.46    0.36
  19   3  -3    0.22    0.33
 -19   3   3    0.65    0.32
  19   3  -3    0.84    0.35
  17  -3  -3  147.94   12.06
  17  -3  -3  140.18   13.72
 -17  -3   3  142.67   12.63
  17   3  -3  142.24   12.01
 -17   3   3  167.83   12.68
 -17   3   3  153.08   11.99
  17   3  -3  152.11   13.74
  15  -3  -3   25.27    2.34
  15  -3  -3   24.10    2.09
 -15  -3   3   25.48    2.19
 -15   3   3   23.65    2.18
  15   3  -3   26.13    2.38
 -15   3   3   21.42    2.01
  15   3  -3   19.29    2.03
  13  -3  -3  123.29   12.30
  13  -3  -3  139.95   10.83
  13   3  -3  140.78   10.81
 -13   3   3  133.57   11.33
 -13   3   3  131.95   10.77
  13   3  -3  137.29   12.34
 -11  -3   3  150.11   11.29
  11  -3  -3  115.25   12.18
  11  -3  -3  141.67   10.74
  11   3  -3  111.02   12.19
 -11   3   3  134.34   11.24
 -11   3   3  132.98   10.69
  11   3  -3  151.72   10.73
   9  -3  -3  282.74   24.36
  -9  -3   3  320.13   25.60
   9  -3  -3  291.55   27.75
  -9   3   3  309.60   25.58
  -9   3   3  305.06   24.34
   9   3  -3  327.75   27.80
   7  -3  -3  124.59   11.51
   7  -3  -3  121.21   10.12
  -7  -3   3  132.43   10.64
  -7   3   3  126.03   10.10
   7   3  -3  113.71   11.53
  -7   3   3  126.47   10.62
   7   3  -3  140.63   10.14
   5  -3  -3  175.74   14.07
   5  -3  -3  180.93   16.01
  -5  -3   3  173.70   14.78
   5   3  -3  175.76   14.08
   5   3  -3  174.49   14.01
  -5   3   3  176.81   14.06
   5   3  -3  182.33   16.06
  -5   3   3  171.09   14.77
   3  -3  -3   29.25    2.36
  -3  -3   3   28.92    2.47
   3  -3  -3   30.47    2.66
  -3   3   3   25.77    2.35
  -3   3   3   26.44    2.47
   3   3  -3   27.89    2.36
   3   3  -3   30.60    2.34
  -1  -3   3   51.10    4.32
  -1  -3   3   54.20    4.77
  -1   3   3   53.22    4.33
   1   3  -3   48.86    4.13
   1   3  -3   50.54    4.13
  -1   3   3   51.51    4.13
  -1   3   3   48.64    4.68
   1  -3   3   71.27    5.72
   1  -3   3   65.16    6.32
   1   3   3   57.25    5.45
   1   3   3   76.91    5.75
   1   3   3   61.97    6.23
  -1   3  -3   75.28    5.47
  -1   3  -3   66.97    5.50
   1   3   3   70.31    5.48
   3  -3   3   23.13    2.04
   3  -3   3   23.81    2.36
   3   3   3   27.17    1.99
   3   3   3   22.77    2.27
  -3   3  -3   24.29    1.96
   3   3   3   24.26    1.95
  -3   3  -3   21.17    2.02
   5  -3   3  105.90    9.77
   5  -3   3  128.26   10.77
  -5   3  -3  114.24    9.38
   5   3   3  123.37    9.34
   5   3   3  119.16    9.31
   5   3   3  121.33   10.70
  -5   3  -3  108.98    9.31
   7  -3   3   78.03    5.91
  -7  -3  -3   70.42    5.66
   7  -3   3   73.73    6.56
   7   3   3   65.64    5.60
   7   3   3   68.09    5.94
  -7   3  -3   72.16    5.61
  -7   3  -3   67.42    5.70
   7   3   3   64.58    6.49
   9  -3   3   70.77    6.23
   9  -3   3   72.19    6.90
  -9  -3  -3   73.91    5.97
   9   3   3   75.93    5.91
   9   3   3   81.65    6.88
   9   3   3   69.77    6.27
  -9   3  -3   72.46    6.00
  11  -3   3   44.77    4.92
 -11  -3  -3   58.72    4.26
  11  -3   3   56.30    4.20
  11   3   3   44.32    4.88
  11   3   3   51.17    4.17
 -11   3  -3   50.71    4.29
 -11   3  -3   53.83    4.43
 -13  -3  -3   51.38    4.38
  13  -3   3   53.33    5.11
  13  -3   3   56.00    4.35
  13   3   3   50.72    4.31
 -13   3  -3   46.03    4.58
 -13   3  -3   57.33    4.44
  13   3   3   54.97    4.62
  13   3   3   60.38    5.10
 -15  -3  -3   84.25    6.66
 -15  -3  -3   70.82    6.99
  15  -3   3   83.45    6.63
 -15   3  -3   84.10    6.70
  15   3   3   91.09    7.69
  15   3   3   83.81    6.58
 -15   3  -3   77.01    6.98
  17  -3   3   93.46    8.50
 -17  -3  -3   83.71    7.29
 -17  -3  -3   88.19    7.70
 -17   3  -3   86.67    7.34
 -17   3  -3   89.84    7.69
  17   3   3  100.43    8.47
  19  -3   3    6.39    1.08
 -19  -3  -3    3.96    0.76
 -19   3  -3    6.49    0.84
 -19   3  -3    7.82    0.89
  19   3   3    6.51    1.08
  21  -3   3   42.93    3.50
 -21  -3  -3   31.73    3.09
 -21   3  -3   31.33    2.94
 -21   3  -3   31.27    3.08
  21   3   3   34.58    3.45
  23  -3   3   11.27    1.57
 -23  -3  -3   10.66    1.30
 -23   3  -3   10.27    1.30
  23   3   3   11.58    1.54
 -23   3  -3    9.99    1.26
  25  -3   3   67.63    6.40
 -25  -3  -3   67.06    5.80
 -25   3  -3   69.08    5.53
  25   3   3   64.51    6.34
 -25   3  -3   61.23    5.77
 -27  -3  -3    7.51    1.13
  27  -3   3    9.22    1.39
  27   3   3    9.26    1.38
 -27   3  -3    9.53    1.25
 -27   3  -3    7.73    1.09
 -29  -3  -3   64.49    5.62
  29  -3   3   59.21    6.15
  29   3   3   70.64    6.18
 -29   3  -3   58.63    5.63
  31  -3   3    0.59    0.53
 -31  -3  -3    0.23    0.43
  31   3   3    0.48    0.52
 -33  -3  -3   12.23    1.60
  33   3   3   14.49    1.87
 -34  -4   3    3.97    0.82
  34   4  -3    2.43    0.78
 -32  -4   3    3.28    0.77
  32   4  -3    2.77    0.80
 -30  -4   3    6.10    0.98
  30   4  -3    5.05    1.01
 -30   4   3    5.27    0.96
 -28  -4   3   20.69    2.02
  28  -4  -3   17.48    2.27
 -28   4   3   19.36    2.03
  28   4  -3   20.20    2.19
  26  -4  -3   36.05    3.47
 -26  -4   3   45.58    3.66
  26  -4  -3   40.25    3.97
 -26   4   3   40.36    3.42
  26   4  -3   35.37    3.37
 -26   4   3   39.84    3.63
  26   4  -3   38.36    3.91
 -24  -4   3   17.45    1.79
  24  -4  -3   20.31    2.00
  24  -4  -3   16.47    1.74
  24   4  -3   16.34    1.90
  24   4  -3   15.72    1.64
 -24   4   3   18.48    1.66
 -24   4   3   16.28    1.78
  22  -4  -3   55.62    5.01
  22  -4  -3   48.00    4.37
 -22  -4   3   50.33    4.59
  22   4  -3   50.56    4.31
 -22   4   3   50.81    4.58
 -22   4   3   49.40    4.30
  22   4  -3   56.30    5.00
  20  -4  -3    1.29    0.47
  20  -4  -3    1.27    0.53
 -20  -4   3    1.78    0.49
 -20   4   3    2.43    0.53
  20   4  -3    0.93    0.49
  20   4  -3    1.79    0.44
 -20   4   3    1.14    0.38
 -18  -4   3    9.08    1.24
  18  -4  -3   12.91    1.32
  18  -4  -3   10.94    1.18
  18   4  -3   10.30    1.13
 -18   4   3   10.85    1.12
  18   4  -3   11.41    1.34
 -18   4   3   12.27    1.21
 -16  -4   3   92.17    7.63
  16  -4  -3   90.17    7.28
  16  -4  -3   89.20    8.30
 -16   4   3   85.59    7.22
  16   4  -3   90.86    8.30
  16   4  -3   89.06    7.24
 -16   4   3   86.69    7.61
 -14  -4   3    2.15    0.46
  14  -4  -3    1.76    0.43
  14  -4  -3    2.07    0.52
  14   4  -3    2.13    0.54
  14   4  -3    2.41    0.44
 -14   4   3    2.24    0.44
 -14   4   3    1.88    0.43
 -12  -4   3  161.77   14.76
  12   4  -3  183.20   14.06
 -12   4   3  170.25   14.74
  12   4  -3  192.96   16.08
 -12   4   3  169.80   14.03
  10  -4  -3   39.64    3.19
 -10  -4   3   39.80    3.36
  10  -4  -3   39.62    3.61
 -10   4   3   37.32    3.32
  10   4  -3   36.25    3.17
 -10   4   3   35.40    3.16
   8  -4  -3  138.26   11.83
   8  -4  -3  128.99   10.39
  -8  -4   3  131.41   10.91
  -8   4   3  115.58   10.36
  -8   4   3  138.48   10.89
   8   4  -3  122.41   10.37
   8   4  -3  129.83   11.85
  -6  -4   3    3.10    0.48
   6  -4  -3    3.72    0.53
   6  -4  -3    2.71    0.44
  -6   4   3    3.23    0.48
  -6   4   3    2.72    0.45
   6   4  -3    3.06    0.46
   6   4  -3    3.57    0.58
   4  -4  -3   30.90    2.70
   4  -4  -3   33.25    3.09
  -4  -4   3   31.13    3.13
  -4  -4   3   32.54    2.85
   4   4  -3   31.99    2.68
  -4   4   3   33.69    2.83
  -4   4   3   30.87    2.71
   4   4  -3   36.43    2.73
  -2  -4   3   22.79    1.91
   2  -4  -3   22.79    2.09
  -2  -4   3   22.40    2.16
  -2   4   3   22.75    1.91
  -2   4   3   17.25    1.82
   2   4  -3   19.63    1.82
  -2   4   3   22.83    1.81
   0  -4   3  145.29   12.49
   0  -4   3  142.89   11.39
   0   4   3  142.44   10.88
   0   4   3  114.73   12.38
   0   4   3  127.85   11.40
   0   4  -3  137.11   10.89
   0   4  -3  141.31   10.88
   0   4   3  137.22   10.86
   2  -4   3    0.77    0.38
   2  -4   3    0.68    0.18
   2   4   3    0.33    0.27
   2   4   3    0.66    0.23
   2   4   3    0.77    0.25
   2   4   3    0.99    0.23
  -2   4  -3    0.47    0.23
  -2   4  -3    0.91    0.30
   4  -4   3   73.88    6.43
   4  -4   3   81.55    7.19
  -4   4  -3   79.38    6.17
   4   4   3   73.66    7.09
  -4   4  -3   71.71    6.22
   4   4   3   79.21    6.50
   4   4   3   75.59    6.16
   4   4   3   79.19    6.19
   6  -4   3    3.96    0.44
   6  -4   3    4.28    0.73
   6   4   3    3.25    0.46
   6   4   3    4.41    0.68
  -6   4  -3    4.27    0.46
   6   4   3    4.02    0.47
   6   4   3    3.35    0.51
  -6   4  -3    3.30    0.56
   8  -4   3  111.82    8.91
  -8   4  -3  106.66    8.58
   8   4   3  112.14    8.97
   8   4   3  106.82    8.50
  -8   4  -3  102.65    8.49
   8   4   3   94.68    9.76
  10  -4   3   32.86    3.21
 -10  -4  -3   33.26    2.72
  10   4   3   33.65    3.20
 -10   4  -3   29.75    2.76
 -10   4  -3   32.21    2.81
  10   4   3   31.06    2.86
  10   4   3   33.31    2.66
  12  -4   3   43.14    3.25
 -12  -4  -3   38.30    3.27
  12  -4   3   37.56    3.83
 -12   4  -3   38.48    3.41
 -12   4  -3   40.61    3.34
  12   4   3   38.77    3.21
  12   4   3   37.31    3.45
  12   4   3   39.36    3.82
 -14  -4  -3    2.84    0.54
  14  -4   3    3.48    0.49
 -14  -4  -3    3.48    0.52
  14  -4   3    3.05    0.72
  14   4   3    3.37    0.69
 -14   4  -3    3.82    0.54
 -14   4  -3    2.74    0.55
  14   4   3    3.44    0.44
 -16  -4  -3   15.97    1.61
 -16  -4  -3   19.34    1.75
  16  -4   3   15.43    1.96
  16  -4   3   19.38    1.62
 -16   4  -3   16.92    1.68
  16   4   3   18.99    1.56
 -16   4  -3   17.96    1.70
 -18  -4  -3    0.63    0.36
  18  -4   3    0.16    0.48
  18   4   3    0.25    0.35
 -18   4  -3    0.71    0.37
 -18   4  -3    0.07    0.30
  20  -4   3   39.07    3.52
 -20   4  -3   33.86    2.97
 -20   4  -3   27.61    3.03
  20   4   3   37.53    3.43
  22  -4   3   28.32    3.43
 -22   4  -3   32.76    3.09
 -22   4  -3   36.29    3.01
  22   4   3   39.30    3.50
 -24  -4  -3   13.19    1.59
  24  -4   3   18.75    1.78
 -24   4  -3   13.75    1.45
  24   4   3   12.31    1.76
 -24   4  -3   10.71    1.54
 -26  -4  -3    0.50    0.47
  26  -4   3    0.78    0.61
  26   4   3    0.83    0.50
 -26   4  -3    0.53    0.47
 -28  -4  -3   29.84    2.82
  28  -4   3   29.53    3.14
  28   4   3   29.71    3.11
 -28   4  -3   28.14    2.69
 -30  -4  -3    3.95    0.79
  30  -4   3    4.16    0.98
  30   4   3    3.95    0.90
 -32  -4  -3    5.01    1.00
  32  -4   3    9.78    1.41
  32   4   3    7.11    1.25
  34  -4   3    6.01    1.20
  34   4   3    8.81    1.40
 -33  -5   3  116.53    9.99
  33   5  -3  114.42   10.86
 -31  -5   3    1.34    0.57
  31   5  -3    1.01    0.57
 -29  -5   3  161.33   13.35
  29   5  -3  150.66   14.46
 -27  -5   3    0.29    0.42
  27  -5  -3    0.69    0.54
  27   5  -3    1.08    0.46
 -27   5   3    0.94    0.45
  27   5  -3    1.06    0.50
  25  -5  -3  235.28   20.06
 -25  -5   3  208.03   18.42
  25   5  -3  227.14   17.50
 -25   5   3  202.90   17.47
 -25   5   3  221.10   18.47
  25   5  -3  213.54   20.02
  23  -5  -3    4.68    0.99
  23  -5  -3    5.11    0.93
 -23  -5   3    6.95    0.99
  23   5  -3    6.74    1.07
 -23   5   3    7.24    0.89
 -23   5   3    6.02    0.97
  23   5  -3    6.77    0.87
 -21  -5   3  289.57   24.39
  21  -5  -3  272.55   26.49
 -21   5   3  285.08   23.16
 -21   5   3  292.83   24.39
  21   5  -3  308.78   23.19
  19  -5  -3   51.83    4.18
 -19  -5   3   45.74    4.32
  19  -5  -3   47.65    4.73
 -19   5   3   47.97    4.10
  19   5  -3   53.51    4.75
  19   5  -3   47.80    4.09
 -19   5   3   49.07    4.33
 -17  -5   3  237.84   17.34
  17  -5  -3  204.71   18.81
  17  -5  -3  200.03   16.49
  17   5  -3  195.53   18.81
 -17   5   3  198.34   17.28
  17   5  -3  198.29   16.44
 -17   5   3  203.26   16.44
  15  -5  -3   59.39    4.73
  15  -5  -3   67.11    5.41
  15   5  -3   57.85    4.69
  15   5  -3   50.15    5.37
 -15   5   3   48.08    4.90
 -15   5   3   59.69    4.70
 -13  -5   3  350.62   32.55
  13  -5  -3  417.57   35.39
  13  -5  -3  352.03   31.02
  13   5  -3  416.67   35.40
 -13   5   3  389.90   32.54
 -13   5   3  409.97   31.00
  11  -5  -3  167.03   14.72
  11  -5  -3  145.64   12.89
 -11  -5   3  149.71   13.54
 -11   5   3  147.06   13.51
  11   5  -3  158.14   12.89
 -11   5   3  183.86   12.89
  11   5  -3  174.71   14.74
   9  -5  -3  434.02   39.69
  -9  -5   3  424.18   36.54
   9  -5  -3  435.93   34.81
   9   5  -3  460.99   34.81
  -9   5   3  433.02   34.78
   9   5  -3  422.62   39.69
  -9   5   3  450.73   36.52
   7  -5  -3  120.84   10.12
  -7  -5   3  111.33    9.30
  -7   5   3  104.48    8.85
  -7   5   3  119.31    9.28
   7   5  -3   96.39   10.11
   7   5  -3  107.74    8.86
   5  -5  -3  223.34   17.39
   5  -5  -3  227.16   19.85
  -5  -5   3  214.61   19.89
  -5  -5   3  183.14   18.24
   5   5  -3  234.41   17.34
  -5   5   3  226.46   18.23
  -5   5   3  217.06   17.39
  -3  -5   3   71.82    5.79
  -3  -5   3   60.65    6.36
   3  -5  -3   71.80    6.33
  -3   5   3   69.89    5.51
   3   5  -3   70.00    5.51
  -3   5   3   78.86    5.78
   3   5  -3   57.35    5.51
  -3   5   3   64.38    5.52
  -1  -5   3  503.13   40.67
   1  -5  -3  489.80   44.22
  -1  -5   3  464.85   44.29
   1   5  -3  462.60   38.77
  -1   5   3  464.26   40.68
   1   5  -3  545.43   38.77
  -1   5   3  486.63   38.76
   1  -5   3  283.65   22.51
   1  -5   3  252.48   24.60
  -1   5  -3  266.72   21.49
   1   5   3  262.74   21.48
  -1   5  -3  259.29   21.51
   1   5   3  276.54   22.56
   1   5   3  286.84   24.53
   3  -5   3  257.52   25.73
   3   5   3  277.42   22.47
   3   5   3  312.37   22.47
  -3   5  -3  288.42   22.51
  -3   5  -3  269.18   22.47
   3   5   3  252.38   23.59
   3   5   3  320.21   25.68
   5  -5   3  168.04   15.80
   5   5   3  172.37   14.45
  -5   5  -3  156.10   13.73
  -5   5  -3  176.08   13.81
   5   5   3  182.30   13.75
   5   5   3  185.37   13.76
   5   5   3  165.60   15.74
  -7   5  -3  207.11   16.30
  -7   5  -3  169.46   15.61
   7   5   3  220.93   15.57
  -7   5  -3  199.50   15.56
   7   5   3  176.60   15.56
   7   5   3  203.90   17.85
   7   5   3  187.51   16.37
   9   5   3  376.40   31.91
   9   5   3  335.05   27.89
  -9   5  -3  368.73   29.26
  -9   5  -3  339.31   27.96
   9   5   3  342.55   27.88
   9   5   3  343.16   29.33
  -9   5  -3  351.26   27.89
 -11  -5  -3   37.68    2.83
  11  -5   3   27.35    3.29
 -11   5  -3   33.34    2.88
 -11   5  -3   36.23    2.90
  11   5   3   33.43    3.29
  11   5   3   34.47    2.76
  11   5   3   29.34    2.94
  13  -5   3  268.83   25.30
 -13  -5  -3  266.66   23.19
  13  -5   3  275.07   22.05
 -13  -5  -3  282.62   22.06
 -13   5  -3  307.30   22.13
 -13   5  -3  277.70   23.14
  13   5   3  263.49   25.25
  13   5   3  270.73   22.02
 -15  -5  -3   98.23    8.39
 -15  -5  -3  102.26    7.95
  15  -5   3   92.27    7.93
  15  -5   3  103.54    9.25
  15   5   3   95.41    7.89
 -15   5  -3   97.75    8.00
  15   5   3   96.67    9.16
 -15   5  -3  100.33    8.34
 -17  -5  -3  229.94   18.28
 -17   5  -3  224.25   17.41
 -17   5  -3  226.00   18.22
  17   5   3  186.16   19.84
 -19  -5  -3   84.96    7.48
  19   5   3   94.11    8.20
 -19   5  -3   82.36    7.14
 -21  -5  -3  181.23   15.10
  21  -5   3  165.84   16.48
  21   5   3  195.55   16.45
 -21   5  -3  169.61   14.35
 -23  -5  -3   26.65    2.70
 -23   5  -3   28.96    2.60
  23   5   3   31.01    3.05
 -25  -5  -3  119.90   10.19
  25  -5   3  104.56   11.08
  25   5   3  123.92   11.13
 -25   5  -3  125.78    9.69
  27  -5   3   17.66    2.10
 -27  -5  -3   18.45    1.83
  27   5   3   16.78    1.97
 -27   5  -3   15.13    1.70
  29  -5   3  113.12   11.16
 -29  -5  -3  120.44   10.19
  29   5   3  121.77   11.14
 -29   5  -3  117.50    9.69
 -31  -5  -3    3.16    0.68
  31  -5   3    1.20    0.68
  31   5   3    1.93    0.68
  33  -5   3  136.89   11.07
 -33  -5  -3   99.65    9.97
 -34  -6   3   76.55    6.83
 -32  -6   3   58.52    4.96
  32   6  -3   50.60    5.35
 -30  -6   3   70.85    6.28
 -28  -6   3  108.82    8.27
 -28   6   3   82.66    7.74
  26  -6  -3   45.33    3.72
 -26  -6   3   34.40    3.76
  26   6  -3   41.43    3.58
 -26   6   3   46.05    3.61
 -24  -6   3  158.26   12.82
  24  -6  -3  153.18   12.24
 -24   6   3  146.20   12.12
  24   6  -3  143.73   12.12
  22  -6  -3   62.12    5.61
 -22  -6   3   53.19    5.12
  22  -6  -3   65.46    4.96
 -22   6   3   57.00    4.84
  22   6  -3   54.10    4.83
 -20  -6   3  330.00   23.97
  20  -6  -3  284.53   22.81
  20  -6  -3  279.62   26.02
  20   6  -3  289.67   26.01
  20   6  -3  250.57   22.72
 -20   6   3  275.49   22.73
  18  -6  -3   55.25    4.54
 -18  -6   3   50.37    4.13
  18  -6  -3   43.33    3.92
  18   6  -3   40.11    4.44
  18   6  -3   43.62    3.87
 -18   6   3   46.10    4.16
 -18   6   3   46.40    3.89
  16  -6  -3   66.60    5.88
 -16  -6   3   60.52    5.36
  16   6  -3   63.84    5.09
 -16   6   3   65.20    5.11
  16   6  -3   50.36    5.79
 -16   6   3   64.17    5.35
  14  -6  -3   51.02    5.08
  14  -6  -3   56.40    4.44
 -14  -6   3   54.75    4.65
 -14   6   3   50.66    4.41
 -14   6   3   49.45    4.61
  14   6  -3   61.61    5.10
  14   6  -3   50.10    4.40
 -12  -6   3  234.10   19.73
  12  -6  -3  239.78   18.79
  12  -6  -3  240.10   21.44
  12   6  -3  236.24   18.77
 -12   6   3  211.41   18.74
 -12   6   3  247.70   19.69
  12   6  -3  233.84   21.44
  10  -6  -3    1.33    0.43
 -10  -6   3    1.22    0.37
  10  -6  -3    0.81    0.30
 -10   6   3    0.99    0.30
  10   6  -3    1.14    0.34
  10   6  -3    0.91    0.39
 -10   6   3    1.52    0.37
  -8  -6   3  267.97   24.75
   8  -6  -3  290.41   23.58
   8  -6  -3  313.42   26.94
   8   6  -3  268.88   26.90
  -8   6   3  302.76   23.58
  -8   6   3  296.68   24.71
   8   6  -3  330.90   23.59
   6  -6  -3    6.81    0.73
   6  -6  -3    9.17    0.93
  -6  -6   3    7.74    1.02
  -6  -6   3    6.84    0.76
   6   6  -3    4.49    0.72
   6   6  -3    7.25    0.68
  -6   6   3    7.30    0.72
  -6   6   3    7.25    0.80
  -4  -6   3  377.49   34.76
  -4  -6   3  389.85   31.91
   4  -6  -3  398.12   34.71
  -4   6   3  374.25   30.40
   4   6  -3  379.99   30.36
   4   6  -3  369.77   30.41
  -4   6   3  371.39   30.39
  -4   6   3  396.45   31.88
  -2  -6   3   38.69    3.36
   2  -6  -3   37.65    3.72
  -2  -6   3   47.36    3.84
  -2   6   3   40.82    3.23
  -2   6   3   36.93    3.24
  -2   6   3   39.74    3.36
   2   6  -3   37.65    3.24
   2   6  -3   36.86    3.24
   0  -6   3  647.36   54.35
   0  -6  -3  555.80   54.23
   0  -6   3  646.29   49.85
   0   6   3  640.38   49.89
   0   6  -3  557.58   47.53
   0   6   3  544.95   47.53
   2  -6   3    2.82    0.65
  -2   6  -3    3.85    0.54
   2   6   3    3.48    0.46
   2   6   3    4.59    0.64
  -2   6  -3    3.31    0.47
   2   6   3    2.63    0.42
   2   6   3    3.49    0.47
   4  -6   3  820.23   67.89
   4   6   3  703.51   62.36
   4   6   3  723.05   59.37
  -4   6  -3  751.10   59.42
   6  -6   3   13.62    1.25
   6   6   3    8.36    0.88
   6   6   3    8.10    1.04
  -6   6  -3    9.65    0.86
   6   6   3    9.29    0.86
   6   6   3    7.29    0.90
  -6   6  -3    8.72    1.00
   8   6   3  461.48   41.91
  -8   6  -3  441.69   36.71
   8   6   3  492.04   36.67
   8   6   3  441.79   36.64
  -8   6  -3  485.67   36.66
   8   6   3  444.10   38.52
  10  -6   3    0.65    0.40
  10   6   3    0.42    0.23
  10   6   3    0.16    0.27
  10   6   3    0.13    0.21
  10   6   3    0.36    0.37
 -10   6  -3    0.70    0.27
 -10   6  -3    0.10    0.30
 -12  -6  -3  204.15   15.99
  12  -6   3  198.75   15.98
  12  -6   3  200.49   18.40
 -12  -6  -3  203.14   16.83
  12   6   3  202.54   15.97
 -12   6  -3  178.51   16.03
  12   6   3  212.01   18.35
 -14  -6  -3   23.76    2.29
  14  -6   3   24.35    2.61
  14  -6   3   24.67    2.15
  14   6   3   25.28    2.12
 -14   6  -3   27.35    2.26
  14   6   3   22.71    2.52
  16  -6   3  224.61   17.49
  16  -6   3  227.89   20.12
  16   6   3  217.62   20.02
  16   6   3  218.15   17.43
 -16   6  -3  203.53   17.51
 -18  -6  -3   31.68    2.89
  18  -6   3   35.51    3.31
 -18   6  -3   30.07    2.76
  18   6   3   29.15    3.16
 -20  -6  -3  134.37   11.39
  20  -6   3  132.59   12.47
  20   6   3  136.50   12.42
 -20   6  -3  130.52   10.84
  22  -6   3   37.74    4.03
 -22  -6  -3   39.93    3.61
 -22   6  -3   41.67    3.44
  22   6   3   38.51    3.96
 -24  -6  -3  108.67    8.22
  24  -6   3   85.35    8.96
  24   6   3   94.23    8.92
 -24   6  -3   89.46    7.77
  26  -6   3   40.11    4.27
 -26  -6  -3   44.37    3.86
  26   6   3   42.48    4.23
 -26   6  -3   40.64    3.65
 -28  -6  -3   62.24    5.97
  28  -6   3   68.20    6.61
  28   6   3   72.34    6.57
 -28   6  -3   68.34    5.69
 -30  -6  -3   38.22    3.25
  30  -6   3   33.08    3.65
  30   6   3   37.25    3.60
 -30   6  -3   29.52    3.05
 -32  -6  -3   49.26    4.97
  32  -6   3   56.46    5.52
  32   6   3   61.21    5.51
 -33  -7   3    7.18    1.09
  33   7  -3    6.74    1.19
 -31  -7   3   -0.20    0.47
  31   7  -3   -0.35    0.46
 -29  -7   3    0.53    0.48
  29   7  -3    0.80    0.57
 -29   7   3    0.04    0.43
 -27  -7   3    1.90    0.61
  27  -7  -3    1.78    0.64
  27   7  -3    0.88    0.46
  27   7  -3    2.30    0.71
 -27   7   3    1.53    0.52
 -25  -7   3    3.85    0.77
  25  -7  -3    3.68    0.80
  25   7  -3    5.27    0.94
  25   7  -3    3.73    0.67
 -25   7   3    3.29    0.68
  23  -7  -3    0.32    0.43
 -23  -7   3   -0.29    0.34
 -23   7   3    0.24    0.36
  23   7  -3    0.28    0.35
  23   7  -3   -0.26    0.43
  21  -7  -3    5.97    0.94
 -21  -7   3    5.12    0.91
  21   7  -3    6.88    1.09
  21   7  -3    6.48    0.85
 -21   7   3    6.50    0.85
 -19  -7   3    5.38    0.91
  19  -7  -3   10.38    1.24
  19  -7  -3    7.54    0.99
  19   7  -3    4.71    0.91
 -19   7   3    5.37    0.81
  19   7  -3    6.93    0.86
  17  -7  -3    3.65    0.78
 -17  -7   3    2.59    0.61
  17  -7  -3    3.80    0.63
 -17   7   3    3.47    0.59
  17   7  -3    2.10    0.61
  17   7  -3    3.79    0.59
  15  -7  -3    1.43    0.42
  15  -7  -3    0.71    0.44
 -15  -7   3    0.72    0.39
  15   7  -3    1.49    0.54
  15   7  -3    1.35    0.38
 -15   7   3    0.80    0.35
  13  -7  -3   20.32    1.95
  13  -7  -3   16.93    1.64
 -13  -7   3   19.77    1.77
  13   7  -3   16.88    1.62
 -13   7   3   15.72    1.64
  13   7  -3   18.24    1.93
 -11  -7   3   30.19    2.57
  11  -7  -3   28.64    2.43
  11  -7  -3   31.38    2.83
  11   7  -3   27.19    2.41
  11   7  -3   22.31    2.74
 -11   7   3   29.55    2.44
  -9  -7   3   41.49    4.30
   9  -7  -3   53.75    4.12
   9  -7  -3   51.28    4.74
  -9   7   3   52.01    4.13
   9   7  -3   50.49    4.11
   7  -7  -3    4.11    0.57
   7  -7  -3    4.42    0.76
  -7  -7   3    3.61    0.72
  -7  -7   3    4.90    0.64
  -7   7   3    5.38    0.56
  -7   7   3    2.55    0.54
   7   7  -3    5.25    0.54
   7   7  -3    3.79    0.58
  -5  -7   3    3.70    0.74
  -5  -7   3    4.96    0.61
   5  -7  -3    5.43    0.80
   5   7  -3    3.85    0.53
   5   7  -3    3.79    0.57
  -5   7   3    4.47    0.55
  -5   7   3    3.60    0.56
  -5   7   3    4.40    0.51
  -3  -7   3    1.60    0.56
   3  -7  -3    1.05    0.43
  -3  -7   3    1.89    0.34
   3   7  -3    2.18    0.36
  -3   7   3    1.57    0.29
  -3   7   3    1.94    0.36
  -3   7   3    1.53    0.36
   3   7  -3    1.61    0.36
  -1  -7   3    5.74    0.62
   1  -7  -3    6.32    0.88
  -1  -7   3    5.50    0.98
  -1   7   3    5.89    0.70
  -1   7   3    5.50    0.64
  -1   7   3    5.81    0.66
   1   7  -3    6.19    0.72
   1   7  -3    5.57    0.68
  -1  -7  -3   11.02    1.22
   1  -7   3   11.68    1.48
   1   7   3   10.88    1.04
   1   7   3   10.61    1.01
  -1   7  -3   11.36    1.07
  -1   7  -3   10.79    1.04
   1   7   3   10.28    1.04
   3  -7   3    5.51    0.95
  -3   7  -3    4.24    0.60
   3   7   3    5.57    0.81
   3   7   3    4.93    0.63
   3   7   3    4.05    0.59
   3   7   3    5.64    0.60
  -3   7  -3    6.50    0.73
   5  -7   3   32.17    2.86
   5   7   3   25.85    2.44
   5   7   3   33.60    2.36
   5   7   3   26.81    2.73
   5   7   3   25.68    2.32
  -5   7  -3   26.25    2.40
  -5   7  -3   25.42    2.33
   7  -7   3    5.38    0.93
   7   7   3    5.15    0.61
   7   7   3    3.94    0.64
   7   7   3    3.59    0.72
  -7   7  -3    4.77    0.58
   7   7   3    5.56    0.61
  -7   7  -3    4.34    0.68
   9  -7   3    1.47    0.54
   9   7   3    0.80    0.28
   9   7   3    1.38    0.37
   9   7   3    1.30    0.31
  -9   7  -3    1.10    0.31
   9   7   3    1.79    0.50
  -9   7  -3    0.99    0.38
  11  -7   3   17.09    2.06
 -11  -7  -3   18.48    1.76
  11   7   3   18.25    1.64
  11   7   3   21.73    1.66
  11   7   3   19.28    2.04
 -11   7  -3   18.40    1.63
 -11   7  -3   16.76    1.73
  13  -7   3    8.49    0.96
  13  -7   3    9.79    1.39
 -13  -7  -3    9.42    1.09
  13   7   3    8.83    0.93
 -13   7  -3    9.12    1.09
  13   7   3    8.41    1.23
  15  -7   3   30.27    3.03
 -15  -7  -3   28.41    2.63
  15  -7   3   31.65    2.50
  15   7   3   25.83    2.89
  15   7   3   29.22    2.44
 -15   7  -3   24.65    2.51
 -17  -7  -3    1.12    0.42
  17  -7   3    1.21    0.60
  17  -7   3    1.40    0.44
  17   7   3    1.71    0.60
  17   7   3    1.59    0.40
 -17   7  -3    0.85    0.42
  19  -7   3    2.93    0.81
 -19  -7  -3    4.77    0.77
 -19   7  -3    4.57    0.75
  19   7   3    4.46    0.92
 -21  -7  -3    1.79    0.51
  21  -7   3    1.26    0.66
 -21   7  -3    0.60    0.44
  21   7   3    0.39    0.48
 -23  -7  -3    1.50    0.52
  23  -7   3    2.41    0.72
  23   7   3    2.12    0.64
 -23   7  -3    1.01    0.49
  25  -7   3    3.58    0.99
 -25  -7  -3    7.06    0.97
  25   7   3    4.64    0.98
 -25   7  -3    4.06    0.79
  27  -7   3   -0.41    0.52
 -27  -7  -3    0.00    0.41
  27   7   3    0.77    0.63
 -27   7  -3    0.42    0.43
  29  -7   3    4.91    1.08
 -29  -7  -3    3.07    0.75
 -29   7  -3    5.05    0.86
  29   7   3    6.48    1.13
 -31  -7  -3    0.22    0.45
  31  -7   3    0.11    0.60
  31   7   3    0.64    0.57
 -31   7  -3    0.39    0.50
  32   8  -3   25.76    2.78
 -30  -8   3   27.52    2.58
  30   8  -3   20.44    2.69
 -30   8   3   29.64    2.41
 -28  -8   3   33.38    3.01
  28   8  -3   24.33    3.15
 -28   8   3   36.48    2.84
  26  -8  -3   37.48    3.33
 -26  -8   3   36.35    3.40
 -26   8   3   42.98    3.23
  26   8  -3   30.98    3.13
  26   8  -3   34.87    3.67
 -24  -8   3   53.10    5.00
  24  -8  -3   58.22    4.84
  24   8  -3   58.88    4.71
  24   8  -3   53.77    5.43
 -24   8   3   56.32    4.74
 -22  -8   3   25.07    2.55
  22  -8  -3   28.80    2.52
 -22   8   3   26.32    2.42
  22   8  -3   25.46    2.38
  22   8  -3   29.29    2.85
  20  -8  -3   83.37    7.80
 -20  -8   3   95.82    8.20
  20   8  -3   97.27    7.74
 -20   8   3  102.29    7.79
 -18  -8   3   15.86    1.65
  18  -8  -3   14.64    1.56
  18   8  -3   15.78    1.51
 -18   8   3   17.41    1.58
  18   8  -3   15.77    1.81
  16  -8  -3  145.72   13.26
 -16  -8   3  171.54   13.97
  16  -8  -3  135.65   15.16
  16   8  -3  184.41   13.26
  16   8  -3  165.40   15.17
 -16   8   3  184.30   13.29
  14  -8  -3   14.54    1.95
  14  -8  -3   20.05    1.71
 -14  -8   3   18.71    1.79
  14   8  -3   17.57    1.65
 -14   8   3   18.51    1.70
  14   8  -3   18.36    1.96
  12  -8  -3   95.06    8.53
  12  -8  -3   90.41    7.40
 -12  -8   3   95.54    7.79
  12   8  -3   95.43    8.48
  12   8  -3   90.84    7.39
 -12   8   3   78.45    7.38
 -10  -8   3   26.40    2.58
 -10  -8   3   30.23    2.90
  10  -8  -3   28.87    2.88
  10  -8  -3   30.81    2.46
 -10   8   3   25.13    2.44
  10   8  -3   28.28    2.44
  -8  -8   3  132.62   12.92
   8  -8  -3  169.19   12.34
  -8  -8   3  156.14   14.16
   8   8  -3  163.46   12.35
  -8   8   3  146.83   12.33
  -6  -8   3   17.19    1.76
   6  -8  -3   14.55    1.68
  -6  -8   3   15.45    1.46
  -6   8   3   13.90    1.40
  -6   8   3   16.61    1.37
   6   8  -3   14.57    1.39
   6   8  -3   14.25    1.36
  -4  -8   3  102.40    9.86
   4  -8  -3  106.90    9.85
   4   8  -3  107.49    8.54
  -4   8   3  103.19    8.53
   4   8  -3  107.24    8.55
  -4   8   3  107.36    8.56
   2  -8  -3   25.81    2.65
  -2  -8   3   24.16    2.66
  -2   8   3   27.04    2.23
  -2   8   3   29.39    2.27
   2   8  -3   23.62    2.24
   2   8  -3   26.05    2.24
   0  -8  -3   99.96    8.91
   0   8  -3   99.58    7.73
   0   8   3  100.58    8.06
   0   8  -3   95.39    7.74
   0   8   3   82.93    7.70
   2  -8   3    2.78    0.68
  -2  -8  -3    3.57    0.67
  -2   8  -3    3.98    0.54
   2   8   3    3.81    0.54
   2   8   3    3.60    0.50
   2   8   3    3.23    0.49
  -2   8  -3    3.24    0.56
   4   8   3  152.10   12.58
  -4   8  -3  133.08   11.97
   4   8   3  163.06   11.99
   4   8   3  145.41   11.98
  -4   8  -3  154.47   12.04
   6  -8   3   31.18    2.62
  -6   8  -3   26.35    2.06
  -6   8  -3   22.36    2.10
   6   8   3   22.33    2.03
   6   8   3   22.99    2.04
   6   8   3   21.42    2.40
   6   8   3   22.43    2.13
   8  -8   3  304.10   27.56
   8   8   3  305.55   23.98
   8   8   3  304.41   27.45
  -8   8  -3  290.50   23.98
 -10  -8  -3    9.92    1.09
  10  -8   3    8.01    1.40
 -10   8  -3    8.46    1.14
 -10   8  -3   11.92    1.03
  10   8   3   10.76    1.01
  10   8   3   11.32    1.26
  10   8   3    9.37    1.00
 -12  -8  -3  173.83   14.17
  12  -8   3  151.36   15.49
  12   8   3  154.44   15.42
 -12   8  -3  173.82   13.44
 -12   8  -3  179.51   13.54
  12   8   3  170.60   13.44
  14  -8   3    0.37    0.34
 -14  -8  -3    0.26    0.32
  14  -8   3    0.42    0.51
  14   8   3    1.12    0.46
 -14   8  -3    0.42    0.38
  14   8   3    0.69    0.31
  16  -8   3   87.11    7.81
  16  -8   3   77.83    6.66
 -16   8  -3   82.71    6.70
  16   8   3   76.11    6.60
  16   8   3   85.27    7.73
 -18  -8  -3   12.52    1.37
  18  -8   3    9.34    1.65
  18   8   3   16.55    1.66
 -18   8  -3   11.77    1.40
 -20  -8  -3   73.67    6.67
  20  -8   3   90.11    7.46
  20   8   3   74.13    7.31
 -20   8  -3   72.35    6.36
 -22  -8  -3    8.97    1.23
  22  -8   3    9.36    1.55
 -22   8  -3   10.05    1.20
  22   8   3    9.98    1.47
  24  -8   3   54.56    5.69
 -24  -8  -3   59.78    5.18
 -24   8  -3   58.87    4.91
  26  -8   3   20.90    2.26
 -26  -8  -3   19.93    1.90
 -26   8  -3   18.05    1.81
  26   8   3   13.29    2.10
  28  -8   3   36.36    3.41
 -28  -8  -3   29.15    2.91
 -28   8  -3   29.43    2.79
  28   8   3   29.76    3.21
  30  -8   3   14.54    2.09
 -30  -8  -3   16.03    1.71
  30   8   3   14.28    2.00
 -30   8  -3   15.36    1.61
 -29  -9   3  105.05    9.28
 -29   9   3  100.68    8.75
  29   9  -3  116.20   10.11
 -27  -9   3    9.52    1.27
  27   9  -3    9.09    1.37
 -27   9   3    7.14    1.07
  25  -9  -3  120.46   10.15
 -25  -9   3  119.02   10.61
  25   9  -3  124.45   10.03
  25   9  -3  124.37   11.52
 -25   9   3  126.82   10.05
  23  -9  -3   12.01    1.40
 -23  -9   3    7.27    1.25
  23   9  -3    9.27    1.42
  23   9  -3   11.04    1.22
 -23   9   3   11.14    1.26
  21  -9  -3  178.55   15.83
 -21  -9   3  213.38   16.65
  21   9  -3  198.72   18.05
  21   9  -3  193.66   15.77
 -19  -9   3   16.62    1.80
  19  -9  -3   17.41    1.72
  19   9  -3   16.31    1.67
  19   9  -3   16.86    1.99
 -19   9   3   20.52    1.72
  17  -9  -3  307.05   25.84
 -17  -9   3  315.33   27.15
 -17   9   3  370.26   25.85
  17   9  -3  302.90   29.46
  17   9  -3  320.14   25.80
  15  -9  -3   20.61    2.14
 -15  -9   3   25.35    2.30
 -15   9   3   21.96    2.16
  15   9  -3   27.44    2.16
  13  -9  -3  228.04   20.80
  13  -9  -3  225.71   18.15
  13   9  -3  216.69   18.12
 -13   9   3  234.71   18.14
  11  -9  -3   22.44    2.43
 -11  -9   3   29.59    2.24
 -11  -9   3   22.94    2.42
  11  -9  -3   17.67    2.01
  11   9  -3   23.51    2.04
 -11   9   3   23.11    2.05
  -9  -9   3  175.92   15.62
   9  -9  -3  163.31   15.59
  -9   9   3  169.51   13.59
   9   9  -3  167.40   13.57
  -7  -9   3  112.97   10.24
   7  -9  -3  104.08   10.21
   7   9  -3  111.19    8.86
   5  -9  -3  257.93   23.46
  -5  -9   3  248.94   23.46
   5   9  -3  253.71   20.46
  -5   9   3  256.87   20.47
   5   9  -3  264.63   20.45
  -5   9   3  253.90   20.44
  -3  -9   3  299.18   27.40
   3  -9  -3  341.26   27.41
  -3   9   3  276.47   23.88
   3   9  -3  293.64   23.89
   3   9  -3  291.62   23.88
  -1  -9   3  142.02   13.55
   1  -9  -3  142.40   13.51
   1   9  -3  145.82   11.76
  -1   9   3  141.89   11.73
   1   9  -3  148.81   11.76
  -1   9   3  155.19   11.77
  -1  -9  -3   55.01    5.29
   1  -9   3   56.33    5.36
   1   9   3   53.77    4.54
   1   9   3   53.57    4.51
  -1   9  -3   57.61    4.57
  -1   9  -3   53.98    4.52
  -3  -9  -3  268.77   24.77
   3  -9   3  267.24   24.86
   3   9   3  269.44   21.62
   3   9   3  280.67   21.65
  -3   9  -3  243.82   21.64
  -3   9  -3  295.24   21.64
   5  -9   3  196.32   19.45
  -5  -9  -3  214.98   19.39
   5   9   3  218.99   16.91
  -5   9  -3  226.47   16.91
  -5   9  -3  221.31   16.96
   5   9   3  189.38   16.89
  -7  -9  -3  100.94    7.84
   7  -9   3   93.29    8.71
  -7   9  -3   88.62    7.43
   7   9   3   77.10    8.56
   7   9   3  103.93    7.46
   7   9   3   90.27    7.44
  -7   9  -3   87.98    7.50
  -9  -9  -3  180.03   15.60
   9  -9   3  183.90   17.14
   9   9   3  198.16   14.85
  -9   9  -3  176.69   14.88
   9   9   3  182.53   14.82
   9   9   3  214.78   17.08
  -9   9  -3  164.41   14.81
 -11  -9  -3   91.49    7.61
 -11   9  -3   83.50    7.18
  11   9   3   92.44    8.34
  11   9   3   87.36    7.19
 -11   9  -3   89.07    7.27
 -13  -9  -3  127.23   11.77
  13  -9   3  137.43   12.97
  13   9   3  136.50   12.87
 -13   9  -3  142.49   11.26
  13   9   3  149.42   11.19
  15  -9   3   73.11    6.28
 -15  -9  -3   78.47    6.63
  15  -9   3   80.66    7.34
 -15   9  -3   74.78    6.31
  15   9   3   79.60    7.26
  15   9   3   73.21    6.24
  17  -9   3  161.16   16.38
 -17  -9  -3  182.51   15.00
  17  -9   3  172.02   14.29
  17   9   3  183.56   16.33
 -17   9  -3  185.76   14.28
  17   9   3  173.97   14.20
  19  -9   3   27.82    3.02
 -19  -9  -3   33.59    2.69
 -19   9  -3   26.16    2.51
  19   9   3   23.97    2.86
 -21  -9  -3  145.41   11.19
  21  -9   3  138.26   12.28
 -21   9  -3  110.77   10.56
  23  -9   3   14.66    2.31
 -23  -9  -3   19.11    1.97
 -23   9  -3   20.46    1.90
  23   9   3   21.73    2.25
 -25  -9  -3   89.67    8.68
  25  -9   3   90.72    9.53
 -25   9  -3  113.64    8.31
  25   9   3  108.12    9.53
  27  -9   3   14.74    1.93
 -27  -9  -3   11.25    1.48
  27   9   3   10.88    1.69
 -27   9  -3   12.09    1.41
  29  -9   3   57.11    6.19
 -29  -9  -3   50.49    5.56
  29   9   3   76.97    6.22
 -29   9  -3   69.43    5.34
 -28 -10   3   32.93    2.95
 -28  10   3   29.47    2.71
  28  10  -3   27.98    3.14
  26 -10  -3   23.93    2.22
 -26 -10   3   24.38    2.25
  26  10  -3   23.78    2.05
 -26  10   3   21.04    2.02
  26  10  -3   15.21    2.28
 -24 -10   3   28.52    3.46
  24 -10  -3   34.41    3.37
  24  10  -3   47.15    3.87
  24  10  -3   37.71    3.27
 -24  10   3   41.19    3.29
 -22 -10   3    6.26    1.00
  22 -10  -3    4.75    0.92
  22  10  -3    5.54    0.83
  22  10  -3    5.41    1.02
 -22  10   3    5.44    0.86
 -20 -10   3   63.32    5.42
 -20  10   3   57.02    5.07
  20  10  -3   62.63    5.06
  20  10  -3   59.39    5.82
  18 -10  -3   20.84    1.88
 -18 -10   3   19.43    2.00
  18  10  -3   21.00    1.83
  18  10  -3   22.74    2.16
 -18  10   3   13.86    1.78
  16 -10  -3  106.51    8.57
  16  10  -3  102.48    8.51
 -16  10   3  104.76    8.53
 -14 -10   3   23.04    2.31
  14 -10  -3   14.79    1.89
  14  10  -3   21.47    1.91
 -14  10   3   25.98    1.98
 -12 -10   3  113.97   11.10
 -12  10   3  118.18    9.66
  12  10  -3  124.08    9.64
 -10 -10   3   23.88    2.42
  10 -10  -3   23.05    2.02
  10 -10  -3   24.28    2.45
  10  10  -3   21.61    2.00
 -10  10   3   19.78    2.01
   8 -10  -3  157.44   12.65
  -8 -10   3  144.51   14.54
  -8  10   3  167.79   12.68
   8  10  -3  157.82   12.65
  -6 -10   3   12.69    1.59
   6 -10  -3   11.21    1.52
   6  10  -3   11.23    1.10
  -6  10   3    9.23    1.04
  -6  10   3   10.34    1.17
  -4 -10   3  199.62   17.98
   4 -10  -3  180.74   17.93
  -4  10   3  202.61   15.60
   4  10  -3  197.62   15.62
   4  10  -3  195.12   15.61
  -4  10   3  191.12   15.62
   2 -10  -3    5.93    1.02
  -2 -10   3    4.12    1.00
   2  10  -3    6.60    0.81
  -2  10   3    5.76    0.78
  -2  10   3    7.93    0.79
   2  10  -3    4.30    0.67
   0 -10   3   54.45    5.51
   0 -10  -3   55.13    5.48
   0  10  -3   60.64    4.74
   0  10  -3   47.58    4.66
   0  10   3   69.38    4.74
   0  10   3   55.27    4.67
  -2 -10  -3    2.81    0.72
   2 -10   3    1.97    0.74
  -2  10  -3    3.80    0.61
  -2  10  -3    3.93    0.57
   2  10   3    3.50    0.58
   2  10   3    2.45    0.48
   4 -10   3   86.19    8.78
  -4 -10  -3   90.87    8.72
  -4  10  -3   94.19    7.60
   4  10   3   95.56    7.53
   4  10   3   92.06    7.54
  -4  10  -3   96.05    7.54
  -6 -10  -3   34.35    3.26
   6 -10   3   30.32    3.28
  -6  10  -3   29.26    2.77
  -6  10  -3   29.00    2.69
   6  10   3   31.61    2.74
   6  10   3   35.84    2.74
   8  10   3   67.71    6.02
   8  10   3   70.10    6.04
  -8  10  -3   84.43    6.04
  -8  10  -3   72.70    6.09
 -10 -10  -3    3.30    0.58
  10 -10   3    2.81    0.80
 -10  10  -3    3.43    0.55
  10  10   3    2.67    0.71
  10  10   3    2.48    0.49
 -10  10  -3    2.65    0.58
 -12 -10  -3   92.15    8.08
 -12  10  -3   95.28    7.63
  12  10   3   98.69    7.66
 -12  10  -3   94.57    7.72
  12  10   3   88.01    8.83
 -14 -10  -3    3.81    0.74
  14 -10   3    5.17    0.70
  14 -10   3    4.53    1.02
  14  10   3    3.67    0.63
  14  10   3    4.54    0.93
 -14  10  -3    5.84    0.82
  16 -10   3   69.85    6.82
  16 -10   3   60.75    5.83
 -16 -10  -3   74.64    6.18
  16  10   3   65.30    6.75
  16  10   3   73.22    5.81
 -16  10  -3   79.91    5.91
  18 -10   3    9.52    1.59
 -18 -10  -3   11.00    1.35
 -18  10  -3   10.55    1.26
  18  10   3    9.89    1.51
  20 -10   3   53.37    5.57
 -20 -10  -3   52.49    5.00
 -20  10  -3   56.76    4.76
  20  10   3   61.39    5.51
  22 -10   3   12.46    1.84
 -22 -10  -3   13.95    1.60
  22  10   3   10.40    1.64
 -22  10  -3   13.41    1.49
  24 -10   3   69.61    6.70
 -24 -10  -3   69.54    6.05
  24  10   3   65.70    6.57
 -26 -10  -3   12.83    1.44
  26 -10   3    7.42    1.55
 -26  10  -3   11.55    1.31
  26  10   3    8.42    1.45
  27  11  -3    1.09    0.58
 -27  11   3    0.28    0.44
  25 -11  -3    3.11    0.79
  25  11  -3    4.34    0.74
 -25  11   3    4.07    0.73
  23 -11  -3    1.33    0.56
  23  11  -3    0.61    0.55
 -23  11   3    0.71    0.47
  23  11  -3    1.07    0.43
  21 -11  -3   10.74    1.57
 -21  11   3   14.69    1.54
  21  11  -3   17.31    1.86
  21  11  -3   18.04    1.57
 -19 -11   3    0.00    0.45
  19 -11  -3    0.38    0.43
  19  11  -3   -0.09    0.34
 -19  11   3   -0.51    0.32
 -17 -11   3    1.92    0.63
  17 -11  -3    1.22    0.47
  17  11  -3    1.78    0.48
 -17  11   3    1.68    0.49
 -15 -11   3    2.25    0.66
  15 -11  -3    2.93    0.59
 -15  11   3    2.66    0.57
  15  11  -3    2.26    0.52
  13 -11  -3    3.14    0.62
 -13 -11   3    3.69    0.81
 -13  11   3    3.79    0.66
  13  11  -3    3.42    0.62
 -11 -11   3    7.33    1.18
  11 -11  -3    5.94    0.80
 -11  11   3    4.10    0.73
  11  11  -3    6.83    0.83
  -9 -11   3    9.36    1.46
   9 -11  -3   11.79    1.22
   9  11  -3    8.53    1.10
  -9  11   3   11.25    1.21
  -7 -11   3    0.98    0.55
   7 -11  -3    2.13    0.72
  -7  11   3    1.60    0.46
   7  11  -3    2.36    0.47
   5 -11  -3   17.05    2.17
  -5 -11   3   21.09    2.22
   5  11  -3   18.57    1.76
  -5  11   3   18.81    1.78
  -5  11   3   19.54    1.73
   3 -11  -3    6.09    1.16
  -3 -11   3    6.84    1.19
   3  11  -3    7.25    0.84
  -3  11   3    6.60    0.81
  -3  11   3    5.49    0.83
   3  11  -3    5.61    0.83
   1 -11  -3    8.64    1.30
  -1 -11   3    8.40    1.32
   1  11  -3    7.67    0.91
   1  11  -3    6.21    0.91
  -1  11   3    6.81    0.94
  -1  11   3    8.72    0.93
   1 -11   3   15.99    2.03
  -1 -11  -3   14.94    1.92
  -1  11  -3   15.33    1.39
   1  11   3   15.25    1.43
   1  11   3   11.86    1.36
  -1  11  -3   14.49    1.43
  -3 -11  -3   21.00    2.29
   3 -11   3   20.99    2.36
   3  11   3   21.02    1.89
  -3  11  -3   20.22    1.86
   3  11   3   22.16    1.86
  -3  11  -3   17.99    1.90
  -5 -11  -3    2.91    0.72
   5 -11   3    2.99    0.80
  -5  11  -3    1.86    0.45
   5  11   3    2.49    0.47
   5  11   3    1.29    0.45
  -5  11  -3    2.21    0.54
  -7 -11  -3    2.40    0.70
   7 -11   3    2.91    0.78
  -7  11  -3    2.59    0.49
   7  11   3    2.80    0.51
  -7  11  -3    2.87    0.58
   9 -11   3    4.14    1.01
  -9 -11  -3    5.36    0.98
  -9  11  -3    5.28    0.79
   9  11   3    5.41    0.72
  -9  11  -3    4.09    0.67
  11 -11   3    0.60    0.60
 -11  11  -3    0.58    0.41
  11  11   3   -0.06    0.32
  11  11   3    0.49    0.53
 -11  11  -3    0.45    0.32
  13 -11   3    7.34    1.36
  13  11   3    9.06    1.02
 -13  11  -3    8.03    1.09
  13  11   3    9.78    1.37
  15 -11   3   -0.29    0.34
  15 -11   3   -0.21    0.53
  15  11   3   -0.28    0.47
  15  11   3    0.16    0.36
 -15  11  -3    0.42    0.38
  17 -11   3    2.89    0.82
  17  11   3    1.80    0.68
 -17  11  -3    1.48    0.53
 -19 -11  -3    0.77    0.48
  19 -11   3    2.00    0.75
  19  11   3    1.70    0.65
 -19  11  -3    0.91    0.47
  21 -11   3    2.37    0.87
 -21 -11  -3    2.27    0.64
 -21  11  -3    2.17    0.57
  21  11   3    2.09    0.77
 -23 -11  -3    0.34    0.44
  23 -11   3   -0.02    0.61
  23  11   3    0.15    0.48
 -23  11  -3    0.27    0.42
  25 -11   3    1.45    0.79
 -25 -11  -3    2.88    0.71
  25  11   3    3.79    0.93
 -25  11  -3    3.70    0.72
  24 -12  -3   47.61    4.26
 -24 -12   3   48.08    4.81
 -24  12   3   53.38    4.15
  24  12  -3   44.45    4.11
 -22 -12   3   49.75    5.15
  22  12  -3   51.66    4.44
 -22  12   3   55.56    4.47
 -20 -12   3   89.51    8.15
  20 -12  -3   76.44    7.05
  20  12  -3   87.10    7.01
 -20  12   3   87.73    7.04
  18 -12  -3   19.59    1.92
 -18 -12   3   16.76    2.20
  18  12  -3   22.67    1.91
 -18  12   3   19.96    1.89
  16 -12  -3  112.41    8.79
 -16 -12   3  102.66   10.09
 -16  12   3  117.32    8.76
  16  12  -3   96.33    8.71
  14 -12  -3    8.61    1.03
 -14 -12   3    6.65    1.19
 -14  12   3    7.30    0.95
  14  12  -3    5.86    0.88
  12 -12  -3  126.34   10.73
 -12 -12   3  134.17   12.38
  12  12  -3  134.24   10.71
 -12  12   3  134.68   10.75
  10 -12  -3   10.64    1.22
 -10 -12   3   11.34    1.61
 -10  12   3   10.48    1.25
  10  12  -3   11.47    1.24
   8 -12  -3  195.51   16.16
  -8 -12   3  219.64   18.65
   8  12  -3  206.39   16.18
  -8  12   3  186.67   16.18
  -6 -12   3   11.48    1.64
  -6  12   3   12.12    1.23
   6  12  -3   10.97    1.17
  -4 -12   3  160.89   16.24
   4 -12  -3  164.61   16.25
  -4  12   3  182.05   14.11
  -4  12   3  171.71   14.06
   4  12  -3  192.04   14.09
   2 -12  -3    1.19    0.67
  -2 -12   3    0.82    0.57
  -2  12   3    1.07    0.44
  -2  12   3    1.00    0.39
   2  12  -3    1.33    0.39
   0 -12   3  150.46   12.27
   0 -12  -3  136.87   12.20
   0  12   3  140.81   10.51
   0  12  -3  117.22   10.53
   0  12   3  129.15   10.53
   0  12  -3  112.80   10.47
  -2 -12  -3    0.11    0.49
   2 -12   3   -0.35    0.42
   2  12   3    0.62    0.40
   2  12   3   -0.21    0.28
  -2  12  -3    0.16    0.34
  -2  12  -3    0.18    0.31
  -4 -12  -3  174.73   15.27
   4 -12   3  162.54   15.30
   4  12   3  169.09   13.20
  -4  12  -3  156.03   13.25
  -4  12  -3  165.01   13.20
   4  12   3  158.18   13.22
   6 -12   3    1.75    0.64
  -6 -12  -3    1.58    0.66
  -6  12  -3    1.89    0.45
  -6  12  -3    1.93    0.53
   6  12   3    1.06    0.39
  -8 -12  -3  138.01   12.07
   8 -12   3  138.47   12.18
   8  12   3  133.09   10.41
  -8  12  -3  134.84   10.49
  -8  12  -3  106.24   10.37
 -10 -12  -3    3.93    0.82
  10 -12   3    1.65    0.76
  10  12   3    2.36    0.53
 -10  12  -3    2.77    0.54
 -10  12  -3    2.20    0.57
 -12 -12  -3  139.31   13.69
  12 -12   3  143.41   13.78
 -12  12  -3  148.61   11.96
  12  12   3  150.80   11.89
 -12  12  -3  152.19   11.87
  14 -12   3    4.56    1.07
  14 -12   3    4.17    0.75
  14  12   3    4.46    0.72
 -14  12  -3    5.16    0.82
  16 -12   3  126.41   10.80
  16 -12   3  113.66    9.29
  16  12   3  104.71   10.63
 -16  12  -3  114.81    9.30
  16  12   3  110.49    9.23
  18 -12   3    5.90    1.23
  18  12   3    9.01    1.28
 -18  12  -3    5.53    0.93
  20 -12   3   64.46    7.20
  20  12   3   78.35    7.17
 -20  12  -3   79.25    6.23
  22 -12   3   10.94    1.72
 -22  12  -3   10.65    1.33
  22  12   3   10.81    1.60
  21 -13  -3  141.36   11.94
  21  13  -3  150.08   11.88
 -21  13   3  147.92   11.91
 -19 -13   3   22.44    2.39
 -19  13   3   22.60    2.02
  19  13  -3   18.10    1.92
  17 -13  -3   52.08    5.09
 -17 -13   3   75.47    6.06
  17  13  -3   58.92    5.06
 -17  13   3   60.75    5.10
 -15 -13   3   13.79    1.79
  15 -13  -3   11.27    1.38
 -15  13   3   11.27    1.36
  15  13  -3   12.28    1.29
 -13 -13   3   88.82    9.07
  13 -13  -3  113.45    7.90
  13  13  -3   88.75    7.80
 -13  13   3   91.85    7.83
  11 -13  -3   19.77    2.03
 -11 -13   3   22.68    2.51
 -11  13   3   20.58    2.05
  11  13  -3   25.61    2.04
   9 -13  -3   96.04    7.22
  -9 -13   3   72.01    8.29
  -9  13   3   88.96    7.20
   9  13  -3   90.82    7.16
   7 -13  -3   37.18    3.06
  -7 -13   3   35.55    3.70
   7  13  -3   34.08    3.02
  -7  13   3   34.36    3.08
  -5 -13   3  113.09   10.86
  -5  13   3  127.19    9.39
   5  13  -3  105.82    9.30
  -3 -13   3   89.33    7.53
  -3  13   3   80.32    6.38
  -3  13   3   66.29    6.28
   3  13  -3   77.83    6.33
  -1 -13   3  105.54   10.78
   1 -13  -3  115.77   10.85
   1  13  -3  120.64    9.29
  -1  13   3  111.29    9.28
  -1  13   3  117.33    9.33
   1 -13   3   82.72    7.23
  -1 -13  -3   74.80    7.13
   1  13   3   85.52    6.17
  -1  13  -3   71.94    6.13
  -1  13  -3   65.71    6.05
   1  13   3   67.81    6.04
  -3 -13  -3   95.97   10.35
   3 -13   3  103.12   10.41
  -3  13  -3  116.19    9.01
  -3  13  -3  123.88    8.95
   3  13   3  107.74    8.97
   3  13   3  109.33    8.92
   5 -13   3   45.49    5.11
  -5 -13  -3   55.05    5.13
   5  13   3   49.49    4.28
  -5  13  -3   52.55    4.38
  -5  13  -3   53.51    4.29
   7 -13   3   62.35    6.43
  -7 -13  -3   63.12    6.39
   7  13   3   63.09    5.40
  -7  13  -3   74.02    5.44
  -7  13  -3   63.20    5.48
   9 -13   3   63.63    6.09
  -9 -13  -3   62.87    5.99
   9  13   3   62.30    5.06
  -9  13  -3   54.65    5.05
  -9  13  -3   63.59    5.15
  11 -13   3   43.37    4.70
 -11 -13  -3   43.58    4.60
 -11  13  -3   48.15    3.99
  11  13   3   46.59    3.88
 -11  13  -3   46.93    3.89
 -13 -13  -3   82.24    8.20
  13 -13   3   90.82    7.12
  13 -13   3   69.03    8.21
 -13  13  -3   93.12    7.16
  13  13   3   92.75    7.08
  15 -13   3   22.69    2.78
  15 -13   3   25.87    2.28
 -15 -13  -3   21.48    2.63
 -15  13  -3   25.11    2.30
  15  13   3   25.38    2.23
  17 -13   3  103.31    8.27
 -17 -13  -3   71.29    8.00
 -17  13  -3   83.75    7.00
  19 -13   3   15.87    2.21
 -19  13  -3   16.12    1.66
  21 -13   3   87.64    8.23
  21  13   3   81.54    8.04
 -18 -14   3    6.00    1.13
  18 -14  -3    4.58    0.82
 -18  14   3    4.17    0.77
  18  14  -3    5.05    0.76
 -16 -14   3   21.32    2.38
  16  14  -3   20.91    1.91
 -16  14   3   19.54    1.95
  14 -14  -3    0.69    0.42
 -14 -14   3    0.16    0.53
 -14  14   3    0.83    0.45
  14  14  -3    1.00    0.39
 -12 -14   3   30.04    3.13
  12 -14  -3   28.24    2.59
  12  14  -3   28.62    2.56
 -12  14   3   28.32    2.60
  10 -14  -3   19.31    1.93
 -10 -14   3   18.03    2.32
  10  14  -3   24.36    1.95
 -10  14   3   19.60    1.96
   8 -14  -3   29.61    2.42
  -8 -14   3   27.04    2.95
   8  14  -3   28.54    2.37
  -8  14   3   21.01    2.37
  -6 -14   3    0.32    0.56
   6 -14  -3    0.25    0.33
   6  14  -3    0.49    0.33
  -6  14   3    0.49    0.39
  -4 -14   3   19.26    2.22
  -4  14   3   13.76    1.70
  -4  14   3   16.96    1.62
   4  14  -3   20.81    1.69
  -2 -14   3    3.85    0.99
   2  14  -3    4.34    0.67
  -2  14   3    3.25    0.59
  -2  14   3    3.04    0.68
   0 -14   3   30.79    3.42
   0  14   3   34.09    2.88
   0  14   3   31.26    2.78
   0  14  -3   31.65    2.78
   2 -14   3    0.88    0.56
  -2 -14  -3    0.17    0.57
  -2  14  -3    0.75    0.37
   2  14   3    0.40    0.36
  -2  14  -3    1.29    0.49
  -4 -14  -3    4.18    1.07
   4 -14   3    5.62    1.23
  -4  14  -3    5.35    0.86
  -4  14  -3    5.48    0.78
   4  14   3    5.67    0.78
  -6 -14  -3    4.86    1.05
   6 -14   3    3.85    1.06
  -6  14  -3    3.00    0.70
   6  14   3    2.34    0.56
  -6  14  -3    4.73    0.68
  -8 -14  -3   18.76    2.77
   8 -14   3   27.65    2.96
   8  14   3   25.11    2.32
  -8  14  -3   33.60    2.45
 -10 -14  -3    2.83    0.89
  10 -14   3    2.28    0.85
 -10  14  -3    2.75    0.65
 -10  14  -3    2.67    0.54
  10  14   3    2.98    0.58
  12 -14   3   16.11    1.60
 -12 -14  -3   13.09    2.01
  12 -14   3   13.95    2.13
 -12  14  -3   15.62    1.62
  12  14   3   17.77    1.56
  14 -14   3    0.34    0.44
  14 -14   3    0.38    0.66
 -14 -14  -3    0.87    0.60
 -14  14  -3    0.69    0.46
  14  14   3    0.27    0.37
 -16 -14  -3   14.21    1.88
  16 -14   3   10.37    1.84
 -16  14  -3   14.95    1.49
 -18 -14  -3    0.49    0.54
 -15 -15   3    3.56    0.87
  15 -15  -3    3.11    0.67
  15  15  -3    2.92    0.63
 -15  15   3    3.48    0.71
 -13 -15   3   29.27    3.21
  13  15  -3   29.81    2.60
 -13  15   3   28.83    2.65
 -11 -15   3    7.52    1.35
  11 -15  -3    7.69    1.01
 -11  15   3    4.98    0.90
  11  15  -3    7.78    0.94
  -9 -15   3   31.42    3.00
   9 -15  -3   24.15    2.33
  -9  15   3   22.66    2.35
   9  15  -3   26.55    2.33
   7 -15  -3   15.86    1.63
  -7 -15   3   16.89    2.29
  -7  15   3   17.20    1.68
   7  15  -3   15.91    1.59
  -5 -15   3   36.15    4.05
   5 -15  -3   39.00    3.36
  -5  15   3   39.42    3.40
   5  15  -3   39.60    3.35
  -3 -15   3   10.10    1.68
   3  15  -3    9.21    1.16
  -3  15   3   11.01    1.27
  -1 -15   3   13.30    2.11
  -1  15   3   15.13    1.73
  -1  15   3   15.07    1.53
   1  15  -3   18.57    1.57
   1 -15   3    5.15    1.12
  -1  15  -3    6.31    0.80
   1  15   3    5.15    0.78
   3 -15   3   27.10    3.10
  -3  15  -3   28.35    2.45
   3  15   3   26.85    2.45
   5 -15   3   27.27    3.34
  -5  15  -3   31.71    2.72
  -5  15  -3   29.63    2.78
   5  15   3   33.24    2.73
   7 -15   3    9.12    1.81
  -7 -15  -3   13.73    1.99
  -7  15  -3   14.76    1.43
   7  15   3   16.48    1.41
  -7  15  -3   12.77    1.53
  -9 -15  -3   33.67    3.63
   9 -15   3   34.86    3.70
  -9  15  -3   32.98    2.97
   9  15   3   33.87    2.98
  -9  15  -3   36.06    3.06
 -11 -15  -3   13.14    2.02
  11 -15   3   11.88    2.02
  11  15   3   16.09    1.50
 -11  15  -3   16.12    1.60
 -13 -15  -3   14.81    2.13
  13 -15   3   19.85    1.70
  13 -15   3   12.00    2.07
  13  15   3   17.77    1.57
 -13  15  -3   11.54    1.59
   8 -16  -3   99.87    8.11
  -8 -16   3   97.40    9.38
  -8  16   3   95.60    8.04
  -6 -16   3    1.77    0.85
   6 -16  -3    1.23    0.48
   6  16  -3    2.29    0.54
  -6  16   3    0.85    0.50
  -4 -16   3  106.56   10.15
   4 -16  -3  106.18    8.66
   4  16  -3  104.63    8.62
  -4  16   3  106.31    8.70
  -2 -16   3    0.04    0.60
   2  16  -3    0.17    0.33
   0  16   3  108.00    8.94
   0  16  -3  112.05    8.96
   2 -16   3    0.63    0.65
  -2  16  -3    0.42    0.38
   2  16   3   -0.13    0.31
   4 -16   3   91.88    8.68
  -4  16  -3   80.30    7.31
   4  16   3   97.10    7.34
   6 -16   3    1.23    0.79
  -6  16  -3    0.77    0.40
   6  16   3    1.35    0.46
 -36   0   4  173.46   14.85
 -34   0   4    6.27    1.08
 -32   0   4  155.00   13.37
  32   0  -4  157.18   14.51
 -30   0   4   29.28    2.55
  30   0  -4   21.91    2.69
  28   0  -4  403.15   29.97
 -28   0   4  315.91   31.41
  28   0  -4  405.00   34.17
  26   0  -4   14.62    1.49
 -26   0   4   11.38    1.58
  26   0  -4   16.37    1.71
 -24   0   4  271.38   22.88
 -22   0   4   25.25    2.20
  22   0  -4   22.19    2.07
  22   0  -4   19.94    2.28
  20   0  -4  202.78   16.95
  20   0  -4  193.15   19.29
 -20   0   4  238.86   17.84
  18   0  -4   35.19    3.37
 -18   0   4   29.03    3.10
  18   0  -4   39.91    3.02
 -18   0   4   35.11    2.85
  16   0  -4  104.47    8.72
 -16   0   4  110.63    9.18
  14   0  -4   68.58    5.04
 -14   0   4   58.99    4.90
 -14   0   4   62.80    5.27
  14   0  -4   55.14    5.65
  12   0  -4  780.69   70.64
 -12   0   4 1000.00   74.19
 -10   0   4  634.26   52.76
  10   0  -4  602.00   57.23
  10   0  -4  662.21   50.27
   8   0  -4  831.68   66.02
   4   0  -4  474.10   37.67
   4   0   4   71.18    6.47
  -4   0  -4   69.85    5.66
   4   0   4   68.52    5.91
   6   0   4  354.06   32.15
   8   0   4  127.42   11.36
  -8   0  -4  119.54    9.91
  10   0   4  128.99   11.75
 -10   0  -4  127.50   10.26
  10   0   4  125.80   10.73
  12   0   4    3.24    0.50
  12   0   4    2.10    0.57
 -12   0  -4    3.56    0.53
 -14   0  -4  346.65   24.91
  14   0   4  302.93   28.47
  14   0   4  287.15   26.10
  16   0   4    6.81    1.05
 -16   0  -4    4.98    0.75
 -16   0  -4    6.79    0.80
 -18   0  -4  223.57   18.70
 -18   0  -4  220.67   17.80
 -20   0  -4   36.34    3.15
  20   0   4   38.02    3.66
 -20   0  -4   35.00    3.28
 -22   0  -4  323.53   26.24
  22   0   4  310.99   30.00
 -22   0  -4  349.35   27.58
 -24   0  -4   30.74    2.89
 -24   0  -4   39.36    3.09
  24   0   4   28.43    3.32
  26   0   4  246.32   22.57
 -26   0  -4  244.24   20.71
  28   0   4   -0.32    0.48
 -28   0  -4   -0.17    0.38
 -30   0  -4  164.25   14.01
  30   0   4  164.29   15.28
  32   0   4    6.05    1.16
 -32   0  -4    4.27    0.89
 -34   0  -4  107.39    9.34
 -35  -1   4   29.52    2.80
 -35   1   4   27.17    2.77
 -33  -1   4   23.31    2.38
 -33   1   4   21.07    2.37
  33   1  -4   25.95    2.61
 -31  -1   4   58.77    4.79
  31   1  -4   54.38    5.18
 -31   1   4   44.84    4.71
  29  -1  -4   28.60    2.75
  29  -1  -4   30.07    3.11
 -29  -1   4   31.67    2.88
 -29   1   4   29.35    2.89
  29   1  -4   31.48    3.15
  29   1  -4   28.50    2.74
  27  -1  -4   96.10    7.49
  27  -1  -4   95.67    8.54
  27   1  -4   90.37    8.48
 -27   1   4   92.70    7.87
  27   1  -4   77.81    7.40
 -25  -1   4    6.23    0.93
  25  -1  -4    6.42    1.04
  25  -1  -4    3.86    0.78
  25   1  -4    5.17    0.85
 -25   1   4    6.53    0.95
  25   1  -4    6.29    1.03
  23  -1  -4  152.49   10.93
  23  -1  -4  132.60   12.41
 -23  -1   4  146.91   11.47
  23   1  -4  120.76   10.86
 -23   1   4  122.41   11.43
  23   1  -4  130.97   12.41
  21  -1  -4    7.10    0.88
 -21  -1   4    4.47    0.80
  21  -1  -4    6.27    0.94
  21   1  -4    6.23    0.95
 -21   1   4    5.37    0.88
  21   1  -4    5.37    0.80
 -19  -1   4  246.11   20.95
  19  -1  -4  255.12   19.97
  19  -1  -4  245.92   22.72
 -19   1   4  245.40   20.95
  19   1  -4  260.38   22.75
  19   1  -4  247.69   19.95
 -19   1   4  242.32   19.82
  17  -1  -4   10.12    1.28
  17  -1  -4   13.56    1.39
 -17  -1   4   13.80    1.31
 -17   1   4   12.92    1.13
  17   1  -4   12.99    1.25
  17   1  -4   11.56    1.36
 -17   1   4   10.78    1.29
  15  -1  -4  134.41   13.70
  15  -1  -4  154.32   12.09
 -15   1   4  151.76   11.97
  15   1  -4  168.79   13.74
  15   1  -4  145.23   12.07
 -15   1   4  144.88   12.67
  13  -1  -4    0.62    0.33
 -13  -1   4    0.26    0.15
  13  -1  -4    0.27    0.24
 -13  -1   4    0.89    0.34
  13   1  -4    0.64    0.30
 -13   1   4    0.52    0.22
 -13   1   4    0.51    0.31
  13   1  -4    1.00    0.33
 -11  -1   4  242.66   19.75
  11  -1  -4  226.65   21.36
 -11  -1   4  242.55   18.67
 -11   1   4  216.12   18.71
  11   1  -4  234.28   18.80
  11   1  -4  238.13   21.38
 -11   1   4  247.64   19.73
   9  -1  -4   47.51    4.71
  -9  -1   4   52.79    4.43
   9  -1  -4   50.09    4.21
  -9  -1   4   57.63    4.11
   9   1  -4   46.86    4.20
  -9   1   4   49.32    4.14
   9   1  -4   52.95    4.75
  -7  -1   4  161.70   11.80
   7  -1  -4  144.34   11.23
  -7  -1   4  144.99   11.13
   7  -1  -4  133.99   12.70
   7   1  -4  149.93   11.23
  -7   1   4  148.00   11.78
  -7   1   4  120.33   11.15
   7   1  -4  122.07   12.72
  -5  -1   4    2.90    0.43
   5  -1  -4    3.72    0.45
   5   1  -4    2.15    0.40
  -5   1   4    3.67    0.46
  -5   1   4    2.88    0.35
   5   1  -4    3.18    0.41
   5   1  -4    2.71    0.35
  -3  -1   4   80.91    7.00
  -3  -1   4   69.03    6.46
   3  -1  -4   77.24    6.16
  -3   1   4   76.19    6.12
  -3   1   4   80.40    6.48
   3   1  -4   72.56    6.13
   3   1  -4   78.33    6.16
  -1  -1   4   85.55    6.96
   1  -1  -4   90.05    6.62
  -1  -1   4   80.97    7.55
  -1   1   4   80.79    6.60
   1   1  -4   79.91    6.61
  -1   1   4   75.04    6.94
   1   1  -4   84.21    6.61
   1  -1   4  142.23   12.56
   1  -1   4  153.93   13.67
  -1  -1  -4  156.96   11.95
   1   1   4  144.42   12.57
  -1   1  -4  149.17   11.98
  -1   1  -4  155.88   11.94
   1   1   4  140.36   11.95
   1   1   4  157.12   13.63
  -3  -1  -4  131.32   11.21
   3  -1   4  149.40   11.82
   3  -1   4  135.58   12.88
  -3   1  -4  140.88   11.21
  -3   1  -4  151.51   11.29
   3   1   4  136.24   12.84
   3   1   4  143.57   11.83
   5  -1   4  313.52   29.15
   5  -1   4  338.82   26.80
  -5  -1  -4  338.88   25.54
   5   1   4  292.56   29.12
  -7  -1  -4    0.84    0.30
   7  -1   4    3.06    0.36
   7  -1   4    0.88    0.37
   7   1   4    2.30    0.46
   7   1   4    1.16    0.29
  -7   1  -4    1.38    0.34
  -9  -1  -4  255.41   19.58
   9  -1   4  238.79   22.39
   9  -1   4  261.14   20.54
   9   1   4  245.67   20.54
   9   1   4  224.77   22.36
  11  -1   4    0.85    0.29
  11  -1   4    1.14    0.45
 -11  -1  -4    0.99    0.33
  11   1   4    1.10    0.32
 -11   1  -4    1.40    0.35
  11   1   4    1.14    0.40
  13  -1   4  296.49   28.34
  13  -1   4  313.54   26.01
 -13  -1  -4  315.43   24.79
  13   1   4  316.60   26.02
 -13   1  -4  304.19   24.79
  13   1   4  318.16   28.33
  15  -1   4   72.61    7.01
 -15  -1  -4   73.61    6.08
  15   1   4   77.51    6.37
  15   1   4   81.06    7.04
 -15   1  -4   67.17    6.08
  17  -1   4  166.59   14.11
 -17  -1  -4  137.35   12.87
 -17  -1  -4  160.23   12.29
 -17   1  -4  153.09   12.88
 -17   1  -4  146.81   12.29
 -19  -1  -4   32.74    3.04
  19  -1   4   35.27    3.44
 -19  -1  -4   38.89    2.94
 -19   1  -4   30.74    3.04
 -19   1  -4   30.85    2.91
  19   1   4   34.13    3.43
 -21  -1  -4   77.11    6.80
 -21  -1  -4   72.61    6.47
  21  -1   4   80.04    7.49
 -21   1  -4   79.64    6.80
 -21   1  -4   83.81    6.50
  23  -1   4   32.35    3.33
 -23  -1  -4   32.72    3.01
  23   1   4   33.56    3.38
 -23   1  -4   30.31    2.86
 -23   1  -4   33.58    3.00
  25  -1   4   20.91    2.25
 -25  -1  -4   21.53    2.00
  25   1   4   20.18    2.25
 -25   1  -4   18.69    1.96
 -25   1  -4   16.88    1.88
  27  -1   4   30.08    3.40
 -27  -1  -4   37.30    3.14
 -27   1  -4   33.72    3.11
  27   1   4   30.88    3.40
 -29  -1  -4   26.62    2.69
  29  -1   4   29.47    3.03
 -29   1  -4   27.52    2.68
  29   1   4   28.17    2.99
 -31  -1  -4   29.92    3.33
  31   1   4   37.81    3.72
 -31   1  -4   42.47    3.48
  33  -1   4   30.09    3.22
 -33  -1  -4   28.93    2.90
 -33   1  -4   31.36    2.95
  33   1   4   29.48    3.19
 -36  -2   4    9.23    1.35
  36   2  -4   12.86    1.71
 -36   2   4    8.31    1.33
 -34  -2   4    2.37    0.70
  34   2  -4    5.26    1.01
 -34   2   4    3.27    0.79
 -32  -2   4    3.67    0.78
  32   2  -4    2.09    0.70
 -32   2   4    2.75    0.73
 -30  -2   4    0.78    0.51
  30   2  -4    2.40    0.67
 -30   2   4    2.24    0.66
  28  -2  -4    7.25    1.03
  28  -2  -4    5.93    1.10
 -28   2   4    5.03    0.97
  28   2  -4    6.34    1.11
  28   2  -4    8.52    1.04
  26  -2  -4    7.24    1.06
 -26  -2   4    7.29    1.08
  26  -2  -4    8.00    1.23
  26   2  -4    8.72    1.23
  26   2  -4    9.80    1.12
 -26   2   4    6.25    1.07
  24  -2  -4   27.42    2.33
  24  -2  -4   23.97    2.59
 -24  -2   4   25.33    2.43
  24   2  -4   19.62    2.23
  24   2  -4   25.30    2.60
 -24   2   4   29.21    2.47
  22  -2  -4    0.67    0.47
  22  -2  -4    0.90    0.44
 -22  -2   4    1.22    0.47
  22   2  -4    0.86    0.44
  22   2  -4    0.89    0.40
 -22   2   4    0.75    0.33
 -22   2   4    0.55    0.41
 -20  -2   4    0.55    0.43
  20  -2  -4    0.99    0.43
  20  -2  -4    1.13    0.46
 -20   2   4    0.76    0.33
  20   2  -4    1.24    0.39
 -20   2   4    1.03    0.45
  20   2  -4    1.85    0.51
 -18  -2   4    0.38    0.33
  18  -2  -4    0.58    0.36
  18  -2  -4    0.52    0.36
  18   2  -4    0.40    0.32
 -18   2   4    0.41    0.28
 -18   2   4    0.17    0.31
  18   2  -4    0.57    0.37
  16  -2  -4    7.99    1.19
 -16  -2   4   10.44    1.24
  16  -2  -4   12.25    1.31
 -16   2   4   14.31    1.14
  16   2  -4   12.33    1.20
 -16   2   4   12.82    1.26
  16   2  -4   12.67    1.34
  14  -2  -4    9.17    1.14
 -14  -2   4   12.81    1.16
  14  -2  -4   11.68    1.10
 -14   2   4    9.24    1.07
  14   2  -4    9.70    1.06
  14   2  -4   12.35    1.20
 -14   2   4    9.93    0.98
  12  -2  -4   39.19    3.57
  12  -2  -4   36.94    3.99
 -12  -2   4   48.83    3.78
 -12   2   4   38.41    3.49
  12   2  -4   47.85    4.05
  12   2  -4   42.22    3.56
 -12   2   4   49.00    3.76
 -10  -2   4   31.41    2.59
  10  -2  -4   24.71    2.70
  10  -2  -4   29.37    2.47
  10   2  -4   30.05    2.78
  10   2  -4   28.33    2.46
 -10   2   4   30.58    2.58
 -10   2   4   29.60    2.40
   8  -2  -4   33.39    2.78
  -8  -2   4   33.45    2.91
   8  -2  -4   30.04    3.06
   8   2  -4   32.46    3.12
  -8   2   4   36.96    2.73
   8   2  -4   35.44    2.78
  -8   2   4   31.29    2.90
  -6  -2   4   24.07    2.25
   6  -2  -4   25.55    2.15
   6   2  -4   21.91    2.13
   6   2  -4   26.68    2.08
  -6   2   4   26.70    2.12
  -6   2   4   28.77    2.28
   6   2  -4   24.45    2.41
  -4  -2   4   12.50    1.16
  -4  -2   4   10.98    1.23
   4   2  -4   13.63    1.07
  -4   2   4   12.61    1.16
  -4   2   4   11.59    1.07
   4   2  -4   11.61    1.10
  -2  -2   4  237.93   19.22
   2  -2  -4  239.28   18.29
  -2  -2   4  244.69   20.89
  -2   2   4  231.95   19.21
  -2   2   4  192.61   18.26
   2   2  -4  234.14   18.28
   2   2  -4  228.98   18.29
   0  -2   4   35.82    2.99
   0  -2  -4   37.70    2.84
   0  -2   4   40.09    3.32
   0   2   4   33.60    3.00
   0   2   4   35.50    2.85
   0   2   4   32.05    3.20
   0   2  -4   32.45    2.86
   0   2  -4   32.07    2.83
  -2  -2  -4   30.47    2.41
   2  -2   4   32.20    2.56
  -2   2  -4   25.76    2.41
   2   2   4   29.44    2.78
   2   2   4   30.41    2.45
  -2   2  -4   26.58    2.47
   2   2   4   33.24    2.59
   4  -2   4    7.36    0.84
   4  -2   4    5.73    0.65
  -4   2  -4    6.82    0.71
   4   2   4    6.14    0.68
  -4   2  -4    6.66    0.59
   4   2   4    6.62    0.76
   6  -2   4    2.36    0.51
  -6  -2  -4    3.23    0.45
   6  -2   4    2.32    0.37
   6   2   4    2.37    0.41
   6   2   4    2.94    0.51
   6   2   4    2.82    0.29
  -6   2  -4    2.86    0.30
  -6   2  -4    2.39    0.45
   8  -2   4   12.69    1.23
   8  -2   4   11.13    1.43
  -8  -2  -4   13.56    1.23
   8   2   4   13.26    1.42
  -8   2  -4   13.35    1.26
   8   2   4   14.74    1.28
  10  -2   4   41.27    4.36
 -10  -2  -4   46.42    3.78
  10  -2   4   48.66    3.94
  10   2   4   46.52    3.96
 -10   2  -4   47.34    3.81
  10   2   4   41.60    4.33
 -12  -2  -4    3.43    0.50
  12  -2   4    1.69    0.55
  12  -2   4    2.48    0.46
  12   2   4    1.54    0.50
  12   2   4    2.68    0.47
 -12   2  -4    3.28    0.54
  14  -2   4    0.80    0.48
 -14  -2  -4    0.73    0.34
  14   2   4    0.14    0.35
 -14   2  -4    0.67    0.37
  14   2   4    0.31    0.29
  16  -2   4   10.77    1.54
 -16  -2  -4   15.44    1.25
 -16   2  -4   13.66    1.26
  16   2   4    7.77    1.42
 -16   2  -4   12.04    1.25
 -18  -2  -4    0.44    0.36
  18  -2   4    0.67    0.45
 -18  -2  -4    0.58    0.35
 -18   2  -4    0.49    0.31
  18   2   4    0.54    0.43
 -18   2  -4    1.01    0.40
 -20  -2  -4    1.11    0.45
 -20  -2  -4    2.27    0.53
  20  -2   4    2.35    0.68
 -20   2  -4    1.59    0.50
  20   2   4    1.49    0.58
 -20   2  -4    1.67    0.47
 -22  -2  -4    6.18    0.89
  22  -2   4    5.75    1.02
 -22   2  -4    4.89    0.79
 -22   2  -4    4.88    0.81
  22   2   4    4.84    0.95
  24  -2   4    1.93    0.67
 -24  -2  -4    0.77    0.45
 -24   2  -4    1.37    0.48
 -24   2  -4    1.68    0.54
  24   2   4    1.16    0.65
 -26  -2  -4   20.42    2.04
  26  -2   4   14.77    2.17
  26   2   4   22.72    2.29
 -26   2  -4   22.67    2.09
 -26   2  -4   21.18    1.96
 -28  -2  -4    0.74    0.50
  28  -2   4    1.20    0.67
  28   2   4    2.29    0.70
 -28   2  -4    0.81    0.50
 -30  -2  -4    2.02    0.63
  30  -2   4    2.32    0.74
  30   2   4    2.17    0.75
 -30   2  -4    2.98    0.74
  32  -2   4    2.25    0.76
 -32  -2  -4    1.98    0.59
  32   2   4    0.69    0.61
 -32   2  -4    1.42    0.62
  34  -2   4    2.78    0.89
 -34  -2  -4    2.20    0.69
  34   2   4    3.31    0.83
 -35  -3   4   55.31    5.43
 -35   3   4   66.64    5.54
 -33  -3   4   18.76    1.85
 -33   3   4   15.47    1.90
  33   3  -4   13.89    2.01
 -31  -3   4   83.55    6.54
  31   3  -4   68.09    7.01
 -31   3   4   69.77    6.48
 -29  -3   4   37.60    3.07
  29  -3  -4   32.45    2.93
  29   3  -4   29.50    2.84
 -29   3   4   33.58    3.06
  29   3  -4   27.11    3.24
 -27  -3   4  170.38   15.95
  27  -3  -4  216.30   15.29
  27   3  -4  182.43   17.34
 -27   3   4  178.07   15.97
  27   3  -4  195.55   15.20
  25  -3  -4   30.73    3.82
  25  -3  -4   46.30    3.49
 -25  -3   4   30.94    3.53
 -25   3   4   40.73    3.59
  25   3  -4   48.30    3.43
  25   3  -4   41.29    3.90
 -23  -3   4  300.31   25.49
  23  -3  -4  309.74   27.67
 -23   3   4  313.04   25.49
 -23   3   4  288.84   24.17
  23   3  -4  285.41   24.22
  23   3  -4  321.82   27.69
  21  -3  -4    1.17    0.48
  21  -3  -4    1.10    0.46
 -21  -3   4    0.55    0.40
  21   3  -4    1.51    0.52
  21   3  -4    1.88    0.45
 -21   3   4    0.61    0.34
 -21   3   4    0.89    0.43
  19  -3  -4  261.68   23.80
  19  -3  -4  251.04   20.90
  19   3  -4  254.63   20.86
 -19   3   4  276.26   21.93
 -19   3   4  257.86   20.80
  19   3  -4  262.73   23.80
  17  -3  -4    1.58    0.45
  17  -3  -4    1.61    0.46
 -17  -3   4    1.56    0.47
  17   3  -4    2.20    0.47
  17   3  -4    1.85    0.51
 -17   3   4    2.02    0.46
 -17   3   4    1.54    0.37
 -15  -3   4  418.73   36.00
  15  -3  -4  477.13   39.06
  15   3  -4  391.99   34.25
  15   3  -4  417.19   39.06
 -15   3   4  479.18   36.00
 -15   3   4  398.38   34.19
  13  -3  -4    4.10    0.65
 -13  -3   4    4.32    0.68
  13  -3  -4    5.78    0.73
  13   3  -4    4.26    0.63
  13   3  -4    5.12    0.73
 -13   3   4    5.01    0.59
 -13   3   4    3.91    0.64
 -11  -3   4  427.20   39.50
  11  -3  -4  499.89   37.66
  11  -3  -4  411.74   42.83
  11   3  -4  493.90   42.90
 -11   3   4  504.18   37.57
  11   3  -4  488.14   37.64
 -11   3   4  487.82   39.51
   9  -3  -4   23.38    1.98
  -9  -3   4   28.06    2.10
   9  -3  -4   23.07    2.17
  -9   3   4   22.29    1.93
   9   3  -4   21.50    1.97
  -9   3   4   18.27    2.05
   9   3  -4   23.19    2.23
   7  -3  -4  251.89   20.68
   7  -3  -4  248.76   23.49
  -7  -3   4  263.91   21.71
   7   3  -4  257.94   20.68
  -7   3   4  255.37   20.64
   7   3  -4  265.31   23.57
  -7   3   4  273.25   21.72
   5  -3  -4    0.70    0.25
  -5  -3   4    0.78    0.29
  -5  -3   4    0.97    0.33
  -5   3   4    0.95    0.30
  -5   3   4    0.82    0.24
   5   3  -4    0.87    0.28
   5   3  -4    0.90    0.22
   3  -3  -4  440.42   31.40
  -3  -3   4  396.68   35.83
  -3  -3   4  412.14   32.96
   3   3  -4  348.86   31.38
   3   3  -4  351.20   31.35
  -3   3   4  414.95   32.96
  -3   3   4  401.95   31.37
   1  -3  -4   14.21    1.24
  -1  -3   4   14.76    1.31
   1   3  -4   14.61    1.25
  -1   3   4   15.54    1.25
   1   3  -4   14.38    1.27
  -1   3   4   14.11    1.32
  -1   3   4   12.98    1.37
   1  -3   4  430.21   34.42
  -1  -3  -4  425.94   32.79
   1  -3   4  424.88   37.49
   1   3   4  424.73   34.45
  -1   3  -4  398.13   32.81
  -1   3  -4  349.08   32.78
   1   3   4  435.28   32.79
   1   3   4  416.33   37.39
   3  -3   4   25.05    2.06
   3  -3   4   25.17    2.39
   3   3   4   19.88    1.94
   3   3   4   26.29    2.11
  -3   3  -4   25.25    2.04
  -3   3  -4   24.15    1.96
   3   3   4   20.84    2.27
   3   3   4   25.43    1.99
   5  -3   4  290.81   25.82
   5  -3   4  257.69   23.65
   5   3   4  291.80   23.69
   5   3   4  280.10   25.75
   5   3   4  288.91   22.51
  -5   3  -4  278.93   22.58
  -5   3  -4  291.71   22.52
   5   3   4  287.35   22.54
   7  -3   4   50.16    4.12
  -7  -3  -4   41.30    3.95
   7  -3   4   49.51    4.62
   7   3   4   52.77    4.17
  -7   3  -4   48.15    4.01
   7   3   4   47.99    4.57
   7   3   4   44.85    3.89
  -7   3  -4   52.11    3.90
  -9  -3  -4  381.64   29.14
   9  -3   4  318.12   30.54
   9  -3   4  418.08   33.35
   9   3   4  381.52   29.06
  -9   3  -4  359.30   29.06
   9   3   4  367.17   30.60
   9   3   4  341.37   33.26
  -9   3  -4  366.26   29.16
  11  -3   4   49.54    4.62
  11  -3   4   46.31    5.14
 -11  -3  -4   62.24    4.47
  11  -3   4   54.27    4.35
  11   3   4   52.12    5.12
  11   3   4   60.74    4.67
 -11   3  -4   48.98    4.46
  11   3   4   55.59    4.33
  13  -3   4  390.11   36.72
 -13  -3  -4  416.42   32.11
  13  -3   4  420.59   32.06
  13   3   4  411.54   36.72
  13   3   4  397.94   32.02
 -13   3  -4  382.59   32.13
  15  -3   4   58.96    5.39
 -15  -3  -4   58.25    4.63
 -15   3  -4   55.41    4.82
 -15   3  -4   57.80    4.66
  15   3   4   51.50    4.83
  15   3   4   53.89    5.34
  17  -3   4  197.43   19.72
 -17  -3  -4  214.87   17.19
  17   3   4  235.33   19.72
 -17   3  -4  204.54   18.04
 -17   3  -4  221.11   17.23
 -19  -3  -4   89.41    7.25
  19  -3   4   88.86    8.40
 -19  -3  -4   89.16    7.63
 -19   3  -4   87.00    7.61
 -19   3  -4   89.03    7.28
  19   3   4   88.50    8.35
  21  -3   4  138.30   12.44
 -21  -3  -4  139.97   11.37
 -21   3  -4  112.12   11.32
 -21   3  -4  145.24   10.85
  23  -3   4   55.30    5.44
 -23  -3  -4   55.21    4.93
  23   3   4   66.40    5.49
 -23   3  -4   52.77    4.70
 -23   3  -4   50.62    4.91
  25  -3   4  146.82   14.11
 -25  -3  -4  153.12   12.89
 -25   3  -4  131.84   12.87
  25   3   4  163.49   14.11
 -25   3  -4  163.09   12.32
 -27  -3  -4   72.74    5.93
  27  -3   4   71.33    6.54
 -27   3  -4   70.42    5.66
 -27   3  -4   55.37    5.85
  29  -3   4   34.94    3.45
 -29  -3  -4   33.37    3.08
  29   3   4   28.96    3.30
 -29   3  -4   32.87    3.11
  31  -3   4   52.06    5.62
 -31  -3  -4   58.39    5.10
  31   3   4   60.07    5.64
 -33  -3  -4   16.63    2.02
  33  -3   4   20.15    2.32
  33   3   4   23.87    2.37
 -34  -4   4    5.37    1.08
  34   4  -4    9.91    1.37
 -32  -4   4   90.36    7.77
  32   4  -4   87.18    8.44
 -30   4   4    9.65    1.45
  30   4  -4   12.29    1.62
  28  -4  -4  183.94   14.44
 -28  -4   4  179.47   15.11
 -28   4   4  145.96   15.08
  28   4  -4  178.62   16.41
  28   4  -4  199.88   14.38
  26  -4  -4   21.45    1.82
 -26  -4   4   13.31    1.72
 -26   4   4   20.58    1.88
  26   4  -4   12.21    1.92
  26   4  -4   18.81    1.67
 -24  -4   4  249.88   19.51
  24  -4  -4  202.53   18.55
  24   4  -4  231.28   18.50
 -24   4   4  244.15   18.49
  24   4  -4  224.08   21.14
 -22  -4   4   78.28    8.26
  22  -4  -4   98.74    7.94
  22  -4  -4   99.99    9.04
 -22   4   4   90.06    8.31
  22   4  -4  102.68    7.89
 -22   4   4  101.97    7.84
  22   4  -4  103.14    9.05
  20  -4  -4  259.38   25.19
 -20  -4   4  272.94   23.23
  20  -4  -4  318.68   22.18
 -20   4   4  269.51   22.03
 -20   4   4  255.10   23.19
  20   4  -4  281.07   25.22
  20   4  -4  277.91   22.09
  18  -4  -4   43.96    4.41
 -18  -4   4   44.99    4.08
  18  -4  -4   44.26    3.89
 -18   4   4   46.07    3.82
  18   4  -4   46.96    4.43
 -18   4   4   43.94    4.05
  18   4  -4   50.87    3.88
  16  -4  -4  436.97   43.47
 -16  -4   4  548.47   40.14
  16   4  -4  449.08   43.52
 -16   4   4  508.12   38.12
 -16   4   4  452.95   40.07
  16   4  -4  482.74   38.17
  14  -4  -4  153.37   12.28
  14  -4  -4  135.89   13.94
 -14  -4   4  157.78   12.91
  14   4  -4  155.15   12.27
 -14   4   4  156.64   12.88
 -14   4   4  156.33   12.23
 -12  -4   4  403.44   34.01
  12  -4  -4  405.03   36.87
  12  -4  -4  416.72   32.39
 -12   4   4  398.97   33.98
 -12   4   4  408.46   32.32
  10  -4  -4  215.86   15.99
  10  -4  -4  186.02   18.16
 -10  -4   4  174.16   16.77
  10   4  -4  213.58   18.24
  10   4  -4  210.64   15.98
  -8  -4   4  224.23   17.40
   8  -4  -4  191.24   18.80
   8  -4  -4  209.99   16.55
   8   4  -4  172.82   16.53
   8   4  -4  223.87   18.88
  -8   4   4  214.21   16.53
  -8   4   4  215.99   17.38
   6  -4  -4  280.55   24.71
  -6  -4   4  273.24   22.79
   6  -4  -4  264.87   21.71
  -6  -4   4  248.28   24.77
  -6   4   4  284.52   22.80
  -6   4   4  278.15   21.70
   6   4  -4  281.01   21.64
   6   4  -4  268.34   21.72
   4  -4  -4  239.56   20.68
  -4  -4   4  219.21   20.76
  -4  -4   4  225.75   19.07
  -4   4   4  214.36   18.15
   4   4  -4  237.30   18.14
   4   4  -4  222.13   18.17
  -4   4   4  236.37   19.07
   2  -4  -4  615.40   54.11
  -2  -4   4  597.27   54.21
   2   4  -4  596.62   47.46
  -2   4   4  583.05   47.46
   0  -4   4   95.20    9.46
   0  -4   4  103.43    8.61
   0   4  -4  114.34    8.22
   0   4  -4   88.31    8.23
   0   4   4  104.08    9.36
   0   4   4  103.26    8.22
   0   4   4  107.03    8.64
   2  -4   4  466.45   35.94
   2  -4   4  438.08   39.18
   2   4   4  424.74   34.24
   2   4   4  431.03   34.25
  -2   4  -4  414.94   34.25
   2   4   4  424.45   35.98
   2   4   4  419.13   39.07
   4  -4   4  153.06   11.99
   4  -4   4  123.86   13.17
   4   4   4  144.08   12.05
   4   4   4  138.02   13.10
   4   4   4  132.75   11.43
   4   4   4  153.74   11.46
  -4   4  -4  155.29   11.44
  -4   4  -4  143.14   11.51
   6  -4   4  675.35   52.57
   6  -4   4  589.36   57.24
  -6   4  -4  635.82   50.08
   6   4   4  616.08   57.18
   6   4   4  627.76   50.07
   6   4   4  641.99   50.08
   6   4   4  638.65   52.63
  -6   4  -4  620.70   50.13
   8  -4   4  106.53    9.55
   8  -4   4   96.09    8.62
  -8  -4  -4  112.89    8.28
   8   4   4  104.37    8.68
   8   4   4  108.71    8.20
  -8   4  -4   93.86    8.30
   8   4   4   87.20    9.45
  -8   4  -4  108.68    8.20
  10  -4   4  336.22   29.21
 -10  -4  -4  349.52   27.86
  10   4   4  399.74   29.29
 -10   4  -4  338.81   27.80
  10   4   4  339.90   27.80
 -10   4  -4  337.37   27.89
  12  -4   4   76.29    7.45
 -12  -4  -4   80.31    6.45
  12  -4   4   74.87    6.38
 -12   4  -4   77.17    6.48
  12   4   4   86.65    6.36
  12   4   4   75.55    7.40
 -12   4  -4   82.34    6.73
  12   4   4   77.86    6.77
  14  -4   4  360.68   28.94
  14  -4   4  362.80   33.19
 -14  -4  -4  412.83   29.01
 -14   4  -4  330.68   30.40
 -14   4  -4  349.48   29.02
  14   4   4  367.21   28.91
 -16  -4  -4   43.00    3.90
 -16  -4  -4   43.97    3.71
  16  -4   4   47.78    4.39
  16   4   4   41.78    4.30
 -16   4  -4   43.82    3.76
 -16   4  -4   45.38    3.89
 -18  -4  -4  344.70   28.66
  18  -4   4  341.58   31.21
 -18   4  -4  327.58   27.29
 -18   4  -4  326.20   28.62
  18   4   4  369.33   31.19
 -20  -4  -4    1.50    0.46
  20  -4   4    0.44    0.50
  20   4   4    0.73    0.51
 -20   4  -4    0.87    0.44
 -20   4  -4    0.70    0.38
 -22  -4  -4  167.04   15.97
  22  -4   4  217.95   17.56
 -22   4  -4  203.46   15.26
  22   4   4  181.62   17.40
 -22   4  -4  180.12   16.00
  24  -4   4    7.26    1.26
 -24  -4  -4    7.30    1.11
 -24   4  -4    9.33    1.27
  24   4   4    8.00    1.32
 -24   4  -4   11.49    1.20
 -26  -4  -4  190.41   16.08
  26  -4   4  194.99   17.57
  26   4   4  192.67   17.52
 -26   4  -4  179.78   15.28
 -28  -4  -4    7.00    1.03
  28  -4   4    4.76    1.13
  28   4   4    7.18    1.25
 -28   4  -4    5.82    0.94
 -30  -4  -4  103.72    9.05
  30  -4   4  109.95    9.93
  30   4   4  100.27    9.88
  32  -4   4    5.35    1.18
 -32  -4  -4    6.53    1.00
  32   4   4    6.50    1.14
 -33  -5   4    5.60    0.99
  33   5  -4    5.33    1.08
 -31  -5   4   22.45    2.33
  31   5  -4   23.85    2.56
 -29  -5   4    0.33    0.44
  29   5  -4    1.25    0.52
  29   5  -4    1.77    0.67
 -27  -5   4    8.24    1.17
  27  -5  -4    8.21    1.18
  27   5  -4    9.49    1.32
  27   5  -4    7.02    1.01
  25  -5  -4    1.11    0.52
 -25  -5   4    0.70    0.49
  25   5  -4    0.79    0.41
  25   5  -4    1.19    0.56
 -25   5   4    0.97    0.43
 -25   5   4    1.07    0.55
  23  -5  -4   52.38    4.46
 -23  -5   4   54.74    4.67
 -23   5   4   53.96    4.66
  23   5  -4   52.22    4.37
 -23   5   4   47.44    4.35
  21  -5  -4   11.16    1.58
 -21  -5   4   12.59    1.28
  21  -5  -4   10.41    1.30
  21   5  -4   11.62    1.16
  21   5  -4    8.51    1.39
 -21   5   4   10.43    1.13
 -21   5   4   10.61    1.32
  19  -5  -4   25.73    2.35
 -19  -5   4   17.26    2.12
  19  -5  -4   24.59    2.11
  19   5  -4   24.15    2.02
 -19   5   4   22.63    2.15
  19   5  -4   21.05    2.32
 -19   5   4   21.83    1.99
  17  -5  -4    8.57    1.19
 -17  -5   4    6.86    1.05
  17  -5  -4    9.83    1.12
  17   5  -4    9.51    1.02
  17   5  -4    7.47    1.14
 -17   5   4    8.32    1.07
 -17   5   4   11.24    0.98
  15  -5  -4   19.33    1.73
 -15  -5   4   15.76    1.77
  15  -5  -4   18.80    1.92
 -15   5   4   17.94    1.75
  15   5  -4   23.52    1.97
  15   5  -4   15.87    1.65
 -15   5   4   18.15    1.67
 -13  -5   4    7.30    0.93
  13  -5  -4    7.89    0.89
  13  -5  -4    6.32    0.93
  13   5  -4    7.63    1.02
 -13   5   4    7.79    0.90
 -13   5   4    6.95    0.83
  13   5  -4    5.86    0.81
  11  -5  -4   63.06    4.89
  11  -5  -4   69.60    5.56
 -11  -5   4   52.68    5.11
 -11   5   4   54.64    4.84
  11   5  -4   59.42    4.87
  11   5  -4   68.18    5.59
 -11   5   4   48.85    5.09
   9  -5  -4    4.18    0.66
  -9  -5   4    7.43    0.82
   9  -5  -4    4.79    0.75
   9   5  -4    5.07    0.69
  -9   5   4    6.01    0.70
   9   5  -4    6.90    0.85
  -9   5   4    5.70    0.71
  -7  -5   4    3.69    0.66
  -7  -5   4    4.27    0.61
   7  -5  -4    5.57    0.67
   7  -5  -4    3.88    0.54
  -7   5   4    3.69    0.55
   7   5  -4    3.75    0.55
   7   5  -4    4.15    0.46
  -7   5   4    3.29    0.53
  -5  -5   4   30.95    2.86
   5  -5  -4   33.35    3.11
   5  -5  -4   31.77    2.73
  -5   5   4   31.84    2.85
   5   5  -4   33.52    2.70
  -5   5   4   33.81    2.74
   5   5  -4   33.01    2.74
  -3  -5   4  232.33   19.87
   3  -5  -4  223.62   19.77
   3  -5  -4  224.33   17.34
  -3  -5   4  189.50   18.18
   3   5  -4  237.07   17.33
  -3   5   4  233.68   18.20
   3   5  -4  215.82   17.34
  -3   5   4  184.19   17.32
   1  -5  -4    1.09    0.32
  -1  -5   4    1.38    0.28
  -1  -5   4    1.03    0.44
   1   5  -4    1.22    0.30
  -1   5   4    0.78    0.24
   1   5  -4    1.00    0.28
  -1   5   4    0.65    0.27
  -1   5   4    1.02    0.28
   1  -5   4   18.70    1.61
   1  -5   4   17.80    1.93
   1   5   4   17.04    1.59
   1   5   4   18.15    1.82
  -1   5  -4   17.62    1.63
  -1   5  -4   18.89    1.59
   1   5   4   18.80    1.66
   1   5   4   18.81    1.57
   3  -5   4    0.42    0.37
   3  -5   4    0.05    0.15
  -3   5  -4    0.00    0.26
   3   5   4    0.20    0.20
  -3   5  -4    0.06    0.21
   3   5   4   -0.12    0.21
   3   5   4   -0.04    0.21
   3   5   4    0.07    0.28
   5  -5   4   32.35    2.89
   5  -5   4   37.23    3.40
   5   5   4   32.57    3.26
   5   5   4   33.83    2.97
  -5   5  -4   35.14    2.80
   5   5   4   33.25    2.79
   5   5   4   35.44    2.83
  -5   5  -4   32.95    2.88
   7  -5   4   63.64    5.99
   7  -5   4   60.38    5.31
   7   5   4   61.47    5.38
   7   5   4   68.21    5.93
   7   5   4   69.35    5.13
  -7   5  -4   63.58    5.09
  -7   5  -4   61.50    5.18
   7   5   4   57.09    5.08
   9  -5   4    1.24    0.29
   9  -5   4    1.91    0.59
   9   5   4    1.21    0.35
   9   5   4    1.58    0.30
  -9   5  -4    1.57    0.42
   9   5   4    2.30    0.54
  -9   5  -4    1.56    0.30
 -11  -5  -4    6.20    0.77
  11  -5   4    5.99    0.99
  11   5   4    5.79    0.92
  11   5   4    6.24    0.63
 -11   5  -4    6.04    0.63
  11   5   4    5.87    0.77
 -11   5  -4    5.58    0.64
 -11   5  -4    5.79    0.78
  13  -5   4   93.71    6.54
  13  -5   4   76.92    7.61
 -13  -5  -4   76.31    6.56
  13   5   4   76.37    6.48
 -13   5  -4   84.21    6.84
 -13   5  -4   76.32    6.60
  13   5   4   67.93    7.51
  13   5   4   90.54    6.91
 -15  -5  -4    7.78    0.95
  15  -5   4    9.57    1.34
 -15   5  -4    7.56    1.00
 -15   5  -4    9.14    0.92
  15   5   4    6.64    1.13
 -17  -5  -4    8.78    1.20
  17  -5   4   14.57    1.67
 -17   5  -4   10.08    1.23
  17   5   4   12.27    1.53
  19  -5   4    0.34    0.43
 -19  -5  -4    0.79    0.42
 -19   5  -4    1.41    0.46
  19   5   4    0.75    0.51
  21  -5   4    6.77    1.23
 -21  -5  -4    6.90    0.95
 -21   5  -4    5.93    0.92
  21   5   4    5.81    1.05
 -23  -5  -4    2.97    0.65
  23  -5   4    1.64    0.76
  23   5   4    2.38    0.73
 -23   5  -4    2.12    0.59
 -25  -5  -4   21.85    2.39
  25  -5   4   25.00    2.72
  25   5   4   26.29    2.68
 -25   5  -4   26.59    2.34
 -27  -5  -4   16.60    1.71
  27  -5   4   15.10    2.10
 -27   5  -4   15.33    1.63
  27   5   4   15.86    1.92
 -29  -5  -4   15.51    1.61
 -29   5  -4   14.78    1.66
  29   5   4   11.79    1.81
  31  -5   4    4.75    1.03
 -31  -5  -4    4.61    0.86
  31   5   4    7.21    1.17
  34   6  -4   -0.13    0.48
 -32  -6   4   57.51    4.93
  32   6  -4   51.34    5.33
 -30  -6   4    8.34    1.16
  30   6  -4    5.96    1.14
  28  -6  -4   20.87    2.51
 -28  -6   4   28.54    2.62
  28   6  -4   26.59    2.84
  28   6  -4   30.68    2.49
 -28   6   4   26.65    2.44
 -26  -6   4   10.60    1.33
  26  -6  -4    9.75    1.26
  26   6  -4    6.79    1.25
  26   6  -4    8.98    1.11
 -26   6   4   10.66    1.18
 -24  -6   4   74.28    6.64
  24  -6  -4   71.20    6.34
  24   6  -4   77.52    6.26
 -24   6   4   76.36    6.26
  24   6  -4   79.29    7.23
  22  -6  -4   34.20    3.17
 -22  -6   4   34.66    3.32
  22   6  -4   37.04    3.61
 -22   6   4   37.60    3.13
  22   6  -4   35.98    3.11
  20  -6  -4   28.06    2.65
 -20  -6   4   30.19    2.79
 -20   6   4   28.88    2.61
  20   6  -4   29.56    2.60
  20   6  -4   31.86    3.02
  18  -6  -4   64.56    5.69
 -18  -6   4   77.30    6.01
  18   6  -4   62.47    5.63
 -18   6   4   68.41    5.95
 -18   6   4   64.67    5.64
  18   6  -4   75.06    6.49
 -16  -6   4    4.94    0.79
  16  -6  -4    5.45    0.78
  16  -6  -4    4.97    0.86
 -16   6   4    5.80    0.74
 -16   6   4    4.48    0.76
  16   6  -4    5.56    0.89
  16   6  -4    4.88    0.70
  14  -6  -4    8.07    1.12
  14  -6  -4    8.73    0.99
 -14  -6   4    8.44    1.06
  14   6  -4    6.99    0.93
 -14   6   4    7.33    0.94
  14   6  -4   10.06    1.22
 -14   6   4    9.70    1.00
  12  -6  -4  101.72    8.22
  12  -6  -4   97.84    9.35
 -12  -6   4  104.26    8.64
 -12   6   4  104.21    8.61
 -12   6   4   94.00    8.18
  12   6  -4  105.72    8.22
 -10  -6   4   46.00    3.67
  10  -6  -4   33.87    3.44
  10  -6  -4   44.89    3.97
 -10   6   4   37.39    3.44
  10   6  -4   41.73    3.99
 -10   6   4   42.89    3.62
  10   6  -4   44.41    3.48
   8  -6  -4   99.91    7.13
  -8  -6   4   93.06    8.19
   8  -6  -4   86.06    8.10
  -8  -6   4   87.12    7.47
   8   6  -4   83.77    7.11
  -8   6   4   78.23    7.10
  -8   6   4   87.26    7.43
   6  -6  -4   12.00    1.45
  -6  -6   4   16.61    1.35
  -6  -6   4   14.12    1.53
   6  -6  -4   14.36    1.29
  -6   6   4   15.42    1.31
  -6   6   4   14.39    1.30
   6   6  -4   12.02    1.22
   6   6  -4   14.25    1.29
  -4  -6   4   89.36    7.68
  -4  -6   4   93.20    8.48
   4  -6  -4   90.51    8.39
   4  -6  -4   91.37    7.34
   4   6  -4   84.71    7.33
   4   6  -4   91.94    7.32
  -4   6   4   95.32    7.68
  -2  -6   4   40.01    3.95
   2  -6  -4   46.90    4.36
  -2  -6   4   43.23    4.43
  -2   6   4   43.70    3.78
  -2   6   4   47.11    3.96
   2   6  -4   47.01    3.82
   2   6  -4   49.03    3.81
  -2   6   4   54.78    3.84
   0  -6   4   64.33    6.26
   0  -6  -4   67.10    6.15
   0  -6   4   65.59    5.57
   0   6   4   66.18    5.62
   0   6   4   72.54    5.36
   0   6  -4   63.72    5.39
   0   6   4   68.79    5.37
   0   6  -4   59.81    5.35
   2  -6   4  104.03    9.93
   2  -6   4  100.61    8.92
  -2   6  -4  105.59    8.62
  -2   6  -4  114.78    8.59
   2   6   4  100.90    8.99
   2   6   4  110.16    9.82
   2   6   4  111.79    8.58
   4  -6   4   11.44    1.44
  -4   6  -4    8.36    1.10
   4   6   4   12.20    1.01
   4   6   4    8.21    1.17
  -4   6  -4   12.50    1.01
   4   6   4   12.32    1.08
   4   6   4   10.09    1.02
   6   6   4   63.25    4.50
   6   6   4   43.56    5.16
  -6   6  -4   60.77    4.49
   6   6   4   52.73    4.73
  -6   6  -4   53.50    4.56
   6   6   4   54.97    4.50
   8  -6   4    3.73    0.78
   8   6   4    3.81    0.71
   8   6   4    3.82    0.49
   8   6   4    4.15    0.59
  -8   6  -4    3.96    0.50
  -8   6  -4    3.88    0.62
   8   6   4    4.03    0.53
  10  -6   4  101.16    8.27
 -10   6  -4   86.99    7.15
 -10   6  -4   85.36    7.04
  10   6   4   81.69    7.03
  10   6   4   88.88    8.17
  10   6   4   84.84    7.45
  12  -6   4   23.57    2.22
 -12  -6  -4   15.21    1.75
  12   6   4   18.81    1.70
 -12   6  -4   22.74    1.86
  12   6   4   18.60    2.06
  12   6   4   21.32    1.85
 -14  -6  -4  104.66    8.38
  14  -6   4  100.43    9.69
 -14   6  -4  107.74    8.42
  14   6   4  105.04    8.31
  14   6   4   96.63    9.61
  16  -6   4    4.58    0.93
 -16  -6  -4    2.74    0.60
  16   6   4    4.84    0.86
 -16   6  -4    4.04    0.71
 -18  -6  -4   30.56    2.72
  18  -6   4   23.43    3.00
 -18   6  -4   33.67    2.65
  18   6   4   29.38    3.02
  20  -6   4   33.89    3.64
 -20  -6  -4   33.64    3.23
 -20   6  -4   38.32    3.13
 -22  -6  -4   59.58    5.15
  22  -6   4   59.22    5.70
 -22   6  -4   55.42    4.88
  24  -6   4    1.28    0.68
 -24  -6  -4    0.77    0.47
  24   6   4    0.84    0.54
 -24   6  -4    1.41    0.51
  26  -6   4   79.16    6.29
 -26  -6  -4   64.20    5.61
  26   6   4   65.27    6.17
 -26   6  -4   50.18    5.28
  28  -6   4    1.35    0.70
 -28  -6  -4    1.72    0.58
 -28   6  -4    0.96    0.50
  28   6   4    0.23    0.54
 -30  -6  -4   25.85    2.45
  30  -6   4   25.18    2.80
  30   6   4   23.61    2.67
 -30   6  -4   22.59    2.29
 -32  -6  -4    0.24    0.47
  32  -6   4    0.02    0.61
 -33  -7   4   33.53    3.22
 -31  -7   4   97.48    8.17
  31   7  -4   89.65    8.84
 -29  -7   4   28.03    2.66
 -29   7   4   27.84    2.49
  29   7  -4   25.74    2.88
  27  -7  -4   96.84    8.82
 -27  -7   4  110.28    9.26
  27   7  -4  103.39   10.02
 -27   7   4  119.89    8.77
  27   7  -4  103.32    8.73
  25  -7  -4   40.30    3.67
 -25  -7   4   39.19    3.81
  25   7  -4   47.05    4.14
  25   7  -4   37.66    3.54
 -25   7   4   43.23    3.56
  23  -7  -4  160.14   13.06
 -23  -7   4  177.44   13.73
  23   7  -4  166.69   14.86
 -23   7   4  140.35   12.94
  23   7  -4  161.36   12.97
 -21  -7   4   24.60    2.48
  21  -7  -4   24.16    2.39
  21   7  -4   29.29    2.72
 -21   7   4   26.75    2.34
  21   7  -4   24.96    2.33
 -19  -7   4  201.00   17.33
 -19   7   4  212.69   16.45
  19   7  -4  202.59   18.82
  19   7  -4  202.59   16.45
  17  -7  -4    8.57    1.11
 -17  -7   4    8.61    1.18
 -17   7   4   10.98    1.07
  17   7  -4    9.49    1.30
  17   7  -4    9.82    1.09
 -15  -7   4  238.12   18.30
  15   7  -4  202.92   19.82
  15   7  -4  214.85   17.35
 -15   7   4  211.33   17.34
 -13  -7   4   15.50    1.54
  13  -7  -4   14.81    1.67
  13  -7  -4   15.18    1.46
 -13   7   4   17.25    1.46
  13   7  -4   13.71    1.43
  11  -7  -4  509.15   45.60
  11  -7  -4  496.75   39.97
 -11  -7   4  462.81   41.96
  11   7  -4  469.13   45.57
  11   7  -4  494.01   39.95
 -11   7   4  581.40   39.96
   9  -7  -4    4.13    0.68
   9  -7  -4    8.00    0.97
  -9  -7   4    5.24    0.76
  -9  -7   4    8.69    1.03
   9   7  -4    4.06    0.67
  -9   7   4    6.24    0.72
  -9   7   4    6.63    0.76
   7  -7  -4  533.98   53.22
  -7  -7   4  554.76   53.27
   7  -7  -4  603.79   46.67
  -7  -7   4  609.01   48.99
   7   7  -4  574.16   46.66
  -7   7   4  585.20   46.64
   7   7  -4  627.77   46.58
  -7   7   4  602.80   48.94
  -5  -7   4    2.22    0.42
   5  -7  -4    2.18    0.41
   5  -7  -4    1.87    0.51
  -5  -7   4    1.16    0.50
   5   7  -4    1.31    0.39
  -5   7   4    2.80    0.41
  -5   7   4    1.55    0.39
   5   7  -4    2.68    0.41
  -3  -7   4  644.25   50.79
   3  -7  -4  679.51   55.26
  -3  -7   4  614.67   55.32
   3   7  -4  607.54   48.41
  -3   7   4  604.05   48.39
   3   7  -4  608.45   48.37
  -3   7   4  509.86   50.76
   1  -7  -4   23.77    2.32
  -1  -7   4   22.42    2.41
   1   7  -4   22.27    2.00
  -1   7   4   23.41    1.98
  -1   7   4   21.99    1.99
   1   7  -4   20.90    1.98
  -1   7   4   25.11    2.07
   1  -7   4  495.97   44.89
   1   7   4  507.49   39.24
  -1   7  -4  486.27   39.25
  -1   7  -4  499.94   39.26
   1   7   4  479.18   41.19
   1   7   4  493.17   39.24
   3  -7   4   40.16    4.11
   3   7   4   46.18    4.01
   3   7   4   41.03    3.62
  -3   7  -4   39.56    3.45
  -3   7  -4   40.83    3.51
   3   7   4   42.90    3.47
   3   7   4   41.17    3.44
   5  -7   4  356.91   31.22
   5   7   4  306.08   27.18
  -5   7  -4  378.78   27.20
   5   7   4  357.66   27.20
  -5   7  -4  285.04   27.22
   5   7   4  365.92   31.10
   5   7   4  342.49   28.57
   7  -7   4   29.42    3.06
   7   7   4   33.47    2.50
   7   7   4   28.64    2.64
  -7   7  -4   27.64    2.58
  -7   7  -4   28.60    2.49
   7   7   4   28.72    2.50
   7   7   4   30.50    2.95
   9   7   4  215.43   16.90
   9   7   4  219.69   16.91
  -9   7  -4  213.24   16.89
   9   7   4  190.30   19.37
   9   7   4  217.62   17.79
  11  -7   4   54.97    5.24
  11   7   4   49.13    4.39
 -11   7  -4   61.53    4.41
  11   7   4   54.21    5.15
  11   7   4   46.03    4.65
 -11   7  -4   57.70    4.52
 -13  -7  -4  137.08   12.51
  13  -7   4  145.12   14.42
  13  -7   4  155.82   12.49
 -13   7  -4  154.03   12.57
  13   7   4  158.72   14.37
  13   7   4  178.97   12.47
 -15  -7  -4   80.52    6.75
  15  -7   4   73.82    6.38
  15  -7   4   79.77    7.49
  15   7   4   84.46    6.36
 -15   7  -4   71.62    6.44
  15   7   4   77.72    7.39
  17  -7   4  119.02   12.62
 -17  -7  -4  145.67   11.55
 -17   7  -4  138.05   11.00
  17   7   4  137.46   12.60
 -19  -7  -4   41.50    3.41
  19  -7   4   32.70    3.76
 -19   7  -4   42.65    3.27
  19   7   4   31.30    3.68
 -21  -7  -4  156.26   12.91
  21  -7   4  146.15   14.14
 -21   7  -4  148.82   12.27
  21   7   4  153.85   14.06
  23  -7   4   55.78    5.23
 -23  -7  -4   43.87    4.65
 -23   7  -4   50.66    4.47
  23   7   4   62.80    5.22
  25  -7   4  112.83   11.45
 -25  -7  -4  124.73   10.46
  25   7   4  128.28   11.41
 -25   7  -4  119.78    9.93
 -27  -7  -4   69.33    5.46
  27  -7   4   64.23    6.02
 -27   7  -4   64.44    5.16
  27   7   4   47.11    5.83
  29  -7   4   76.06    6.46
 -29  -7  -4   65.83    5.78
  29   7   4   65.43    6.33
 -29   7  -4   55.86    5.46
 -31  -7  -4   38.48    3.44
  31   7   4   36.78    3.81
 -31   7  -4   34.47    3.27
 -30  -8   4    1.76    0.62
  30   8  -4    1.19    0.59
 -30   8   4    1.54    0.53
  28  -8  -4   77.69    6.72
 -28  -8   4   75.56    6.98
 -28   8   4   95.40    6.64
  28   8  -4   76.40    6.59
  28   8  -4   72.89    7.58
  26  -8  -4    5.88    0.99
 -26  -8   4    3.38    0.77
  26   8  -4    4.40    0.76
 -26   8   4    4.55    0.77
  26   8  -4    5.63    1.02
 -24  -8   4   80.91    6.85
  24  -8  -4   74.10    6.54
  24   8  -4   81.76    7.45
  24   8  -4   79.85    6.44
 -24   8   4   73.47    6.43
  22  -8  -4   32.96    2.87
 -22  -8   4   28.98    2.94
 -22   8   4   29.50    2.74
  22   8  -4   29.36    3.19
  22   8  -4   36.06    2.78
 -20  -8   4  164.85   15.27
  20  -8  -4  161.56   14.54
  20   8  -4  185.18   14.49
 -20   8   4  186.01   14.50
  20   8  -4  202.58   16.62
  18  -8  -4   40.59    3.42
 -18  -8   4   41.10    3.61
  18   8  -4   37.60    3.88
  18   8  -4   42.15    3.38
 -18   8   4   35.61    3.34
 -16  -8   4  111.33    9.52
  16   8  -4  112.68    9.02
  16   8  -4  117.76   10.34
 -16   8   4  103.02    9.00
 -14  -8   4   51.22    4.28
  14  -8  -4   47.97    4.05
  14   8  -4   47.81    4.02
 -14   8   4   45.19    4.02
  14   8  -4   47.98    4.63
 -12  -8   4   79.73    6.50
  12  -8  -4   74.37    6.16
 -12  -8   4   71.90    7.08
 -12   8   4   61.27    6.11
  12   8  -4   88.85    6.17
  10  -8  -4  125.58   10.19
 -10  -8   4  124.61   11.70
  10  -8  -4  122.12   11.67
 -10  -8   4  110.98   10.69
 -10   8   4  145.16   10.21
  10   8  -4  128.49   10.18
  -8  -8   4   94.13    7.97
   8  -8  -4   94.71    7.58
  -8  -8   4   87.60    8.72
   8  -8  -4   93.09    8.70
  -8   8   4   95.21    7.59
   8   8  -4   94.00    7.57
   6  -8  -4  241.22   22.49
  -6  -8   4  243.89   22.55
   6  -8  -4  226.79   19.65
   6   8  -4  246.51   19.67
  -6   8   4  275.00   19.68
   6   8  -4  243.87   19.63
   4  -8  -4  107.82   10.58
  -4   8   4  117.48    9.19
   4   8  -4  112.45    9.22
   4   8  -4  122.32    9.21
  -4   8   4  110.37    9.23
   2  -8  -4  147.98   13.25
  -2  -8   4  146.13   13.32
   2   8  -4  146.26   11.55
   2   8  -4  143.11   11.55
  -2   8   4  137.55   12.07
  -2   8   4  142.90   11.53
   0  -8   4   91.58    8.42
   0  -8  -4   93.90    8.33
   0   8  -4   92.95    7.23
   0   8   4   78.37    7.20
   0   8  -4   91.78    7.26
   0   8   4   90.81    7.56
   0   8   4   86.76    7.23
   2  -8   4  130.63   12.24
  -2  -8  -4  133.73   12.14
   2   8   4  145.30   10.59
   2   8   4  129.02   10.57
  -2   8  -4  128.50   10.57
   2   8   4  124.76   11.08
  -2   8  -4  129.56   10.62
   4  -8   4   68.53    6.61
   4   8   4   54.52    6.43
   4   8   4   70.33    5.61
  -4   8  -4   70.17    5.62
  -4   8  -4   83.48    5.71
   6  -8   4  174.11   16.07
   6   8   4  180.00   15.98
   6   8   4  174.66   13.94
  -6   8  -4  172.29   13.99
  -6   8  -4  168.29   13.92
   6   8   4  184.47   14.64
   6   8   4  164.41   13.91
   8  -8   4   72.72    7.48
  -8   8  -4   78.84    6.39
   8   8   4   81.82    6.77
   8   8   4   83.45    6.40
  -8   8  -4   81.07    6.49
   8   8   4   72.37    7.39
   8   8   4   78.97    6.42
  10  -8   4  137.20   13.08
  10   8   4  138.94   11.30
 -10   8  -4  140.84   11.37
 -10   8  -4  143.11   11.28
  10   8   4  143.77   11.28
  10   8   4  137.97   11.88
  12  -8   4    5.53    1.24
 -12  -8  -4   10.35    1.07
  12   8   4    9.31    0.98
 -12   8  -4   10.25    1.17
  12   8   4   12.94    1.47
 -12   8  -4    9.69    0.99
  14  -8   4  158.65   14.95
  14  -8   4  182.43   12.96
 -14  -8  -4  162.46   13.64
 -14   8  -4  152.56   12.99
  14   8   4  148.71   12.90
  16  -8   4    3.01    0.84
 -16  -8  -4    2.21    0.59
  16   8   4    3.60    0.83
 -16   8  -4    4.67    0.71
 -18  -8  -4  106.61    9.60
  18  -8   4   95.56   10.54
 -18   8  -4  132.44    9.21
  18   8   4  113.83   10.52
 -20  -8  -4    5.50    0.87
  20  -8   4    5.11    1.02
  20   8   4    5.34    1.02
 -20   8  -4    4.75    0.84
  22  -8   4  104.18   10.97
 -22  -8  -4  102.88    9.96
  22   8   4  132.89   10.96
 -22   8  -4  126.56    9.53
 -24  -8  -4    0.91    0.47
  24  -8   4    0.79    0.58
  24   8   4    0.69    0.58
 -24   8  -4    0.50    0.44
 -26  -8  -4   63.55    5.91
 -26   8  -4   67.32    5.63
  26   8   4   69.88    6.50
 -28  -8  -4    0.55    0.49
  28  -8   4    0.93    0.66
  28   8   4    0.87    0.57
 -28   8  -4    0.71    0.46
 -30  -8  -4   61.18    5.41
 -30   8  -4   59.71    5.14
 -29  -9   4    0.79    0.53
 -29   9   4    0.83    0.46
  29   9  -4    0.51    0.54
  27  -9  -4    0.28    0.50
 -27  -9   4    1.04    0.52
 -27   9   4    0.44    0.43
  27   9  -4    0.46    0.56
  27   9  -4    0.29    0.41
 -25  -9   4    1.23    0.57
  25  -9  -4    1.21    0.56
 -25   9   4    2.02    0.52
  25   9  -4    2.35    0.54
  25   9  -4    1.12    0.62
  23  -9  -4    2.76    0.69
 -23  -9   4    3.74    0.75
 -23   9   4    2.55    0.61
  23   9  -4    3.88    0.67
  23   9  -4    3.59    0.79
 -21  -9   4    1.04    0.53
  21  -9  -4    1.14    0.52
 -21   9   4    2.13    0.53
  21   9  -4    1.75    0.48
  21   9  -4    0.90    0.48
  19  -9  -4    5.15    0.85
 -19  -9   4    5.31    0.89
  19   9  -4    4.44    0.73
  19   9  -4    5.23    0.93
 -19   9   4    6.74    0.86
 -17  -9   4    1.65    0.56
  17  -9  -4    2.72    0.61
  17   9  -4    2.32    0.51
 -17   9   4    2.57    0.57
  17   9  -4    2.48    0.67
 -15  -9   4    1.88    0.55
  15  -9  -4    1.72    0.49
 -15   9   4    2.92    0.54
  15   9  -4    1.88    0.49
 -13  -9   4   11.00    1.27
 -13  -9   4    7.16    1.27
  13  -9  -4    9.88    1.15
 -13   9   4    9.54    1.11
  13   9  -4   11.46    1.08
 -11  -9   4    0.83    0.50
  11  -9  -4    1.33    0.40
 -11  -9   4    1.02    0.47
 -11   9   4    1.32    0.43
  11   9  -4    1.45    0.41
  -9  -9   4    0.16    0.45
   9  -9  -4   -0.55    0.31
   9  -9  -4    0.12    0.28
   9   9  -4    0.11    0.28
  -9   9   4    0.19    0.29
   7  -9  -4    3.68    0.79
  -7  -9   4    2.98    0.75
   7  -9  -4    4.36    0.63
  -7   9   4    4.52    0.65
   7   9  -4    3.34    0.56
   5  -9  -4    0.61    0.43
  -5  -9   4    0.39    0.41
   5   9  -4    0.50    0.32
  -5   9   4    0.53    0.31
   5   9  -4    0.02    0.29
   3  -9  -4   21.31    2.10
  -3  -9   4   19.31    2.14
   3   9  -4   18.59    1.74
   3   9  -4   19.52    1.74
  -3   9   4   18.47    1.74
  -3   9   4   18.63    1.71
   1  -9  -4   16.50    1.84
  -1  -9   4   16.03    1.88
   1   9  -4   17.05    1.53
   1   9  -4   16.08    1.54
  -1   9   4   16.47    1.53
  -1  -9  -4   72.10    6.88
   1  -9   4   70.27    6.93
   1   9   4   72.67    5.92
   1   9   4   76.14    5.96
  -1   9  -4   69.68    5.92
  -1   9  -4   74.82    5.97
   3  -9   4   21.96    2.31
  -3  -9  -4   22.67    2.19
   3   9   4   18.68    1.82
   3   9   4   18.00    1.87
  -3   9  -4   21.99    1.90
  -3   9  -4   21.78    1.83
   3   9   4   20.68    1.82
   5  -9   4    1.11    0.55
  -5   9  -4    0.04    0.27
  -5   9  -4    0.53    0.37
   5   9   4    0.70    0.29
   5   9   4    0.65    0.32
   5   9   4    0.86    0.33
   7  -9   4    2.52    0.79
   7   9   4    2.47    0.64
  -7   9  -4    3.11    0.58
   7   9   4    2.76    0.47
   7   9   4    3.96    0.59
   7   9   4    3.20    0.52
  -7   9  -4    2.17    0.45
   9  -9   4    5.76    1.06
  -9   9  -4    5.71    0.83
   9   9   4    4.27    0.88
  -9   9  -4    5.95    0.74
   9   9   4    5.45    0.72
   9   9   4    6.51    0.76
  11  -9   4    1.30    0.59
 -11  -9  -4    0.72    0.37
  11   9   4    1.02    0.53
 -11   9  -4    0.64    0.40
  11   9   4    1.22    0.38
 -11   9  -4    0.64    0.34
 -13  -9  -4    4.55    0.73
  13  -9   4    3.38    0.89
  13   9   4    5.21    0.92
 -13   9  -4    4.19    0.75
  13   9   4    4.20    0.62
  15  -9   4    0.86    0.40
  15  -9   4    0.89    0.59
 -15  -9  -4    0.93    0.42
 -15   9  -4    0.83    0.45
  15   9   4    1.23    0.56
  15   9   4    1.00    0.38
  17  -9   4    2.48    0.75
 -17  -9  -4    3.50    0.64
  17   9   4    2.25    0.66
 -17   9  -4    1.83    0.57
 -19  -9  -4    0.11    0.39
  19  -9   4    0.07    0.47
 -19   9  -4   -0.19    0.36
  19   9   4    0.19    0.45
  21  -9   4   -0.07    0.52
 -21  -9  -4    0.25    0.41
 -21   9  -4   -0.03    0.38
  21   9   4   -0.27    0.51
 -23  -9  -4    0.29    0.41
  23  -9   4    1.59    0.77
  23   9   4    0.36    0.55
 -23   9  -4    0.07    0.40
 -25  -9  -4    2.94    0.67
  25  -9   4    2.65    0.80
  25   9   4    1.47    0.69
 -25   9  -4    1.68    0.56
 -27  -9  -4    3.12    0.71
  27  -9   4    1.97    0.82
 -27   9  -4    2.80    0.65
  27   9   4    1.71    0.77
  28  10  -4   55.70    5.00
 -28  10   4   45.97    4.30
 -26 -10   4   18.59    1.80
  26 -10  -4   16.17    1.84
  26  10  -4   11.94    1.85
  26  10  -4   18.58    1.61
 -26  10   4   13.24    1.54
  24 -10  -4   57.50    5.08
 -24 -10   4   54.72    5.30
 -24  10   4   59.76    4.99
  24  10  -4   57.00    4.97
  24  10  -4   68.32    5.79
 -22 -10   4   23.17    2.33
  22 -10  -4   29.85    2.32
  22  10  -4   22.97    2.52
  22  10  -4   19.33    2.11
 -22  10   4   23.35    2.15
 -20 -10   4  100.34    8.70
  20 -10  -4   94.36    8.26
 -20  10   4  103.43    8.22
  20  10  -4   98.54    8.19
  20  10  -4  104.74    9.42
  18 -10  -4   35.76    3.77
 -18  10   4   44.94    3.77
  18  10  -4   51.20    3.77
  16 -10  -4   98.86    8.53
 -16 -10   4  109.15    9.82
  16  10  -4   96.30    8.50
 -16  10   4  114.29    8.53
  14 -10  -4   70.78    5.97
 -14 -10   4   71.75    6.88
 -14  10   4   75.12    5.95
  14  10  -4   70.17    5.93
 -12 -10   4   39.11    4.04
  12 -10  -4   43.48    3.48
 -12  10   4   41.79    3.48
  12  10  -4   38.07    3.43
 -10 -10   4   78.02    6.84
  10 -10  -4   57.26    5.82
 -10  10   4   76.40    5.88
  10  10  -4   75.15    5.83
  -8 -10   4   58.17    5.67
   8 -10  -4   62.81    4.86
  -8  10   4   56.99    4.84
   8  10  -4   55.42    4.82
   6 -10  -4   61.63    4.91
  -6 -10   4   59.56    5.75
   6 -10  -4   62.27    5.73
  -6  10   4   50.19    4.89
   6  10  -4   63.52    4.91
  -4 -10   4   61.75    6.00
   4 -10  -4   62.90    5.95
  -4  10   4   57.57    5.06
   4  10  -4   71.66    5.12
  -4  10   4   59.42    5.11
   4  10  -4   57.74    5.09
   2 -10  -4   55.80    5.16
  -2  10   4   54.89    4.39
   2  10  -4   47.51    4.42
   2  10  -4   56.54    4.42
  -2  10   4   50.81    4.42
   0 -10   4   26.03    2.84
   0 -10  -4   22.58    2.76
   0  10  -4   31.25    2.36
   0  10   4   26.34    2.36
   0  10  -4   25.04    2.36
   0  10   4   28.86    2.35
  -2 -10  -4   39.24    3.94
   2 -10   4   38.75    4.02
  -2  10  -4   35.72    3.31
   2  10   4   39.58    3.32
  -2  10  -4   39.08    3.39
   2  10   4   45.44    3.36
   4 -10   4   82.81    7.31
  -4 -10  -4   82.73    7.21
   4  10   4   68.40    6.16
  -4  10  -4   72.93    6.16
   4  10   4   76.63    6.19
  -4  10  -4   74.80    6.24
   6 -10   4  158.65   12.34
  -6 -10  -4  150.31   12.22
   6  10   4  119.93   10.56
   6  10   4  125.92   10.55
  -6  10  -4  121.17   10.56
  -6  10  -4  122.25   10.61
   8 -10   4   28.60    3.16
   8  10   4   33.05    3.10
  -8  10  -4   28.89    2.59
   8  10   4   29.01    2.58
  -8  10  -4   31.03    2.70
   8  10   4   30.97    2.63
 -10 -10  -4  131.59   10.54
  10 -10   4  116.74   11.59
 -10  10  -4  129.51    9.98
  10  10   4  114.44   11.47
 -10  10  -4  125.74   10.06
  10  10   4  121.27    9.98
 -12 -10  -4   44.79    3.98
  12 -10   4   44.83    4.46
 -12  10  -4   43.02    3.72
 -12  10  -4   42.56    3.79
  12  10   4   46.68    4.41
  12  10   4   44.63    3.72
 -14 -10  -4  139.07   11.48
  14 -10   4  128.11   10.88
  14 -10   4  131.91   12.62
  14  10   4  141.62   12.55
  14  10   4  132.38   10.86
 -16 -10  -4   19.82    1.94
  16 -10   4   18.29    2.23
  16  10   4   17.78    2.15
 -16  10  -4   19.78    1.88
 -18 -10  -4  121.62   10.82
  18 -10   4  124.63   11.88
 -18  10  -4  127.29   10.29
  18  10   4  131.31   11.81
  20 -10   4    1.97    0.72
 -20 -10  -4    1.56    0.56
 -20  10  -4    1.13    0.49
  20  10   4    2.58    0.70
 -22 -10  -4   64.23    5.92
  22 -10   4   80.27    6.68
  22  10   4   65.64    6.48
 -22  10  -4   61.82    5.61
  24 -10   4    2.48    0.80
 -24 -10  -4    2.58    0.67
 -24  10  -4    3.32    0.68
  24  10   4    1.65    0.70
  26 -10   4   45.55    4.90
 -26 -10  -4   43.59    4.35
 -26  10  -4   44.32    4.12
  26  10   4   60.29    4.88
  27 -11  -4   93.70    7.94
  27  11  -4   93.06    7.78
  27  11  -4   97.05    8.97
 -27  11   4   95.11    7.80
  25 -11  -4   10.24    1.38
  25  11  -4   10.83    1.27
  25  11  -4   10.39    1.54
 -25  11   4   11.88    1.34
  23 -11  -4  142.59   11.52
 -23  11   4  119.13   11.37
  23  11  -4  161.14   11.42
 -21 -11   4   17.94    2.27
  21 -11  -4   17.58    1.99
  21  11  -4   24.14    1.95
 -21  11   4   21.86    1.97
  19 -11  -4  203.10   13.87
 -19 -11   4  164.11   15.80
  19  11  -4  141.75   13.71
 -19  11   4  178.38   13.79
  17 -11  -4    9.54    1.36
 -17 -11   4   15.06    1.66
  17  11  -4   12.99    1.31
 -17  11   4   13.25    1.37
  15 -11  -4  182.02   15.46
 -15 -11   4  184.95   17.72
  15  11  -4  211.67   15.43
 -15  11   4  186.93   15.43
  13 -11  -4    6.30    0.90
 -13 -11   4    7.31    1.26
 -13  11   4    6.68    0.92
  13  11  -4    6.93    0.90
  11 -11  -4  170.40   14.49
 -11  11   4  192.82   14.48
  11  11  -4  176.47   14.46
   9 -11  -4    6.90    0.87
  -9 -11   4    8.01    1.25
  -9  11   4    6.32    0.87
   9  11  -4    5.72    0.83
  -7 -11   4  211.91   18.22
   7 -11  -4  208.58   15.83
  -7  11   4  197.72   15.84
   7  11  -4  172.97   15.79
  -5 -11   4    1.55    0.67
  -5  11   4    2.00    0.49
   5  11  -4    2.69    0.51
  -3 -11   4  184.72   19.91
   3 -11  -4  213.19   19.96
  -3  11   4  219.54   17.34
   3  11  -4  212.07   17.34
  -3  11   4  251.58   17.41
   1 -11  -4   13.67    1.83
  -1 -11   4   14.73    1.92
  -1  11   4   15.71    1.33
   1  11  -4   13.03    1.32
  -1  11   4   11.74    1.34
   1  11  -4   12.78    1.37
  -1 -11  -4  298.79   29.51
   1 -11   4  300.48   29.55
   1  11   4  374.35   25.80
  -1  11  -4  297.77   25.74
  -1  11  -4  340.26   25.80
  -3 -11  -4   25.74    2.73
   3 -11   4   24.41    2.76
   3  11   4   25.92    2.24
   3  11   4   24.31    2.25
  -3  11  -4   25.17    2.24
  -3  11  -4   27.61    2.31
   5 -11   4  222.65   18.99
  -5 -11  -4  171.45   18.82
  -5  11  -4  182.65   16.39
   5  11   4  228.52   16.42
  -5  11  -4  221.82   16.48
   5  11   4  203.26   16.41
  -7 -11  -4   23.24    2.29
   7 -11   4   18.87    2.33
   7  11   4   19.68    1.90
  -7  11  -4   21.36    1.97
   7  11   4   22.72    1.86
  -7  11  -4   18.29    1.83
   9 -11   4  196.33   19.02
  -9 -11  -4  212.42   18.95
  -9  11  -4  215.65   16.55
   9  11   4  210.01   16.47
  -9  11  -4  193.37   16.46
 -11  11  -4   34.35    2.88
  11  11   4   38.05    2.89
  11  11   4   26.30    3.33
 -11  11  -4   34.00    2.96
  13 -11   4  148.84   13.75
  13  11   4  145.28   11.85
  15 -11   4   33.30    2.87
 -15  11  -4   26.23    2.27
  15  11   4   19.73    2.15
  15  11   4   21.95    2.59
 -17 -11  -4   86.26    8.15
 -17  11  -4  101.27    7.80
  17  11   4   95.89    8.93
 -19 -11  -4   27.78    2.40
  19 -11   4   18.58    2.60
 -19  11  -4   26.60    2.28
  19  11   4   22.46    2.57
  21 -11   4   75.16    7.17
 -21 -11  -4   59.49    6.39
  21  11   4   75.71    7.08
 -21  11  -4   84.30    6.16
 -23 -11  -4   51.36    4.51
  23 -11   4   45.35    4.97
  23  11   4   50.51    4.93
 -25 -11  -4   50.26    4.56
  25 -11   4   49.71    5.10
 -25  11  -4   50.37    4.30
  25  11   4   49.51    5.01
  24 -12  -4   20.38    2.17
 -24 -12   4   22.89    2.46
  24  12  -4   22.21    2.06
 -24  12   4   21.57    2.07
  22 -12  -4    0.87    0.50
 -22 -12   4    0.06    0.52
  22  12  -4    0.77    0.42
 -22  12   4    0.14    0.38
  20 -12  -4   45.00    3.39
 -20 -12   4   34.10    3.80
 -20  12   4   36.04    3.29
  20  12  -4   36.75    3.26
  18 -12  -4    3.84    0.74
 -18 -12   4    4.64    0.97
 -18  12   4    4.22    0.75
  18  12  -4    4.04    0.69
  16 -12  -4   25.40    2.41
 -16 -12   4   25.18    2.85
 -16  12   4   27.40    2.40
  16  12  -4   26.69    2.36
 -14 -12   4   24.66    2.97
  14 -12  -4   30.17    2.59
 -14  12   4   31.96    2.57
  14  12  -4   27.14    2.53
 -12 -12   4   32.69    3.31
  12 -12  -4   26.47    2.71
  12  12  -4   32.46    2.73
 -12  12   4   33.35    2.76
  10 -12  -4   22.03    1.70
 -10 -12   4   10.54    1.99
 -10  12   4   17.51    1.66
  10  12  -4   17.37    1.64
   8 -12  -4   29.68    2.47
  -8 -12   4   31.15    3.03
  -8  12   4   22.38    2.43
   8  12  -4   28.35    2.45
  -6 -12   4   35.83    3.73
   6 -12  -4   35.01    3.06
   6  12  -4   35.14    3.07
  -6  12   4   36.48    3.10
  -4 -12   4   16.19    2.08
   4  12  -4   16.32    1.67
  -4  12   4   22.46    1.79
  -2 -12   4   60.66    6.94
  -2  12   4   78.89    5.99
   2  12  -4   66.43    5.93
  -2  12   4   80.66    5.94
   0 -12   4    9.28    1.55
   0 -12  -4   10.54    1.60
   0  12   4    9.48    1.15
   0  12  -4   14.00    1.18
   0  12  -4   12.05    1.31
   0  12   4    9.34    1.22
   2 -12   4   20.81    2.49
  -2 -12  -4   21.89    2.49
   2  12   4   24.61    2.01
   2  12   4   21.95    2.03
  -2  12  -4   21.61    2.07
  -2  12  -4   21.10    1.98
   4 -12   4   34.82    3.21
  -4 -12  -4   29.09    3.12
  -4  12  -4   32.27    2.67
   4  12   4   25.33    2.58
   4  12   4   27.30    2.54
  -4  12  -4   30.88    2.59
  -6 -12  -4   47.50    4.38
   6 -12   4   40.06    4.39
  -6  12  -4   47.81    3.76
  -6  12  -4   41.28    3.64
   6  12   4   41.40    3.64
  -8 -12  -4    2.40    0.75
   8 -12   4    2.80    0.87
  -8  12  -4    3.00    0.63
   8  12   4    3.18    0.56
  -8  12  -4    3.37    0.58
  10 -12   4   41.20    4.31
 -10 -12  -4   45.06    4.26
  10  12   4   42.75    3.55
 -10  12  -4   39.72    3.55
 -10  12  -4   41.41    3.62
  12 -12   4    2.43    0.85
 -12 -12  -4    2.66    0.75
  12  12   4    3.17    0.56
 -12  12  -4    2.15    0.51
 -12  12  -4    1.74    0.55
  14 -12   4   28.33    2.67
  14 -12   4   30.95    3.29
  14  12   4   29.47    2.64
 -14  12  -4   29.48    2.72
  14  12   4   33.26    3.19
  16 -12   4    8.36    1.49
 -16  12  -4    9.49    1.21
  16  12   4   10.85    1.54
  18 -12   4   15.31    2.16
 -18  12  -4   14.80    1.60
  18  12   4   16.81    1.92
  20 -12   4    0.33    0.62
  20  12   4    0.62    0.57
 -20  12  -4    0.29    0.39
  22 -12   4   22.94    2.63
  22  12   4   22.54    2.55
 -22  12  -4   22.31    2.16
 -21 -13   4    0.90    0.58
  21 -13  -4    0.24    0.47
 -21  13   4   -0.22    0.36
  21  13  -4    0.81    0.40
  19 -13  -4    9.38    1.47
 -19 -13   4   16.31    2.05
 -19  13   4   13.19    1.43
  19  13  -4   16.52    1.46
 -17 -13   4    1.87    0.73
  17 -13  -4    2.89    0.62
 -17  13   4    1.82    0.53
  17  13  -4    1.43    0.50
  15 -13  -4   22.87    2.14
 -15 -13   4   24.98    2.60
 -15  13   4   19.77    2.08
  15  13  -4   23.59    2.08
  13 -13  -4    3.31    0.68
 -13 -13   4    2.86    0.87
 -13  13   4    3.67    0.67
  13  13  -4    2.81    0.59
 -11 -13   4   24.87    2.99
  11 -13  -4   32.18    2.57
 -11  13   4   28.45    2.54
  11  13  -4   26.76    2.49
   9 -13  -4    0.61    0.39
  -9 -13   4    0.62    0.54
  -9  13   4    0.82    0.43
   9  13  -4    0.74    0.39
   7 -13  -4   42.40    3.55
  -7 -13   4   41.16    4.23
   7  13  -4   44.55    3.52
  -7  13   4   36.61    3.51
   5 -13  -4    0.47    0.34
  -5 -13   4   -0.27    0.52
  -5  13   4   -0.05    0.35
   5  13  -4   -0.11    0.33
  -3 -13   4   42.59    4.52
   3  13  -4   42.44    3.74
  -3  13   4   47.87    3.82
  -1 -13   4   -0.34    0.43
   1  13  -4    0.30    0.35
  -1  13   4   -0.01    0.38
  -1  13   4    0.58    0.34
   1 -13   4   41.94    4.16
  -1  13  -4   41.41    3.46
   1  13   4   41.66    3.39
  -1  13  -4   34.36    3.38
   1  13   4   41.22    3.43
   3 -13   4    0.65    0.58
  -3 -13  -4    1.04    0.61
  -3  13  -4    1.12    0.50
   3  13   4    0.86    0.43
  -3  13  -4    1.48    0.43
   3  13   4    0.96    0.41
  -5 -13  -4    6.75    1.26
   5 -13   4    5.92    1.20
  -5  13  -4    6.22    0.85
  -5  13  -4    8.89    1.07
   5  13   4    7.85    0.92
  -7 -13  -4   10.02    1.51
   7 -13   4    7.79    1.47
  -7  13  -4    7.60    1.09
   7  13   4    9.49    1.01
  -7  13  -4    6.91    0.95
   9 -13   4    5.69    1.29
  -9 -13  -4    7.78    1.35
   9  13   4    7.95    0.99
  -9  13  -4    9.20    1.13
  -9  13  -4    9.93    1.07
  11 -13   4    5.09    1.13
 -11 -13  -4    5.85    1.12
 -11  13  -4    4.66    0.74
  11  13   4    5.82    0.77
 -11  13  -4    4.11    0.79
  13 -13   4   24.41    2.62
  13 -13   4   19.54    2.05
 -13 -13  -4   21.18    2.47
  13  13   4   22.34    2.01
 -13  13  -4   23.89    2.14
 -15 -13  -4    9.77    1.51
  15 -13   4    7.21    1.47
 -15  13  -4   11.59    1.27
  17 -13   4   12.85    2.04
 -17  13  -4   16.12    1.59
  19 -13   4    4.11    1.03
  19  13   4    3.66    0.92
 -19  13  -4    2.93    0.69
 -18 -14   4   34.70    3.93
  18 -14  -4   40.99    3.42
  18  14  -4   35.43    3.31
 -18  14   4   42.69    3.37
  16 -14  -4   76.56    6.50
 -16 -14   4   78.00    7.54
 -16  14   4   77.47    6.48
  16  14  -4   79.74    6.46
 -14 -14   4   43.29    4.37
  14 -14  -4   32.96    3.65
  14  14  -4   43.14    3.64
 -14  14   4   53.46    3.75
 -12 -14   4   98.57   10.09
  12 -14  -4  117.50    8.75
 -12  14   4  102.24    8.71
  12  14  -4  106.49    8.67
  10 -14  -4   57.39    4.66
 -10 -14   4   55.61    5.51
 -10  14   4   47.65    4.62
  10  14  -4   59.70    4.63
   8 -14  -4   66.53    5.60
  -8  14   4   68.62    5.63
   8  14  -4   66.63    5.58
  -6 -14   4   44.12    4.34
   6 -14  -4   37.37    3.59
   6  14  -4   43.25    3.58
  -6  14   4   44.15    3.64
  -4 -14   4   82.05    7.65
   4 -14  -4   79.34    6.50
  -4  14   4   76.75    6.52
   4  14  -4   77.57    6.48
  -2 -14   4  102.87    8.63
   2  14  -4   94.80    7.26
  -2  14   4   72.61    7.27
   0 -14   4   38.84    4.49
   0  14   4   43.26    3.73
   0  14  -4   51.44    3.78
   0  14   4   41.78    3.77
   2 -14   4   73.31    6.96
   2  14   4   68.54    5.90
   2  14   4   69.89    5.84
  -2  14  -4   72.09    5.84
   4 -14   4   25.74    3.05
  -4  14  -4   22.64    2.39
  -4  14  -4   30.16    2.54
   4  14   4   32.60    2.48
   6 -14   4   89.53    8.91
  -6  14  -4   91.11    7.65
  -6  14  -4  109.90    7.61
   6  14   4   80.55    7.55
  -8 -14  -4    4.06    1.03
   8 -14   4    4.36    1.12
  -8  14  -4    5.67    0.85
   8  14   4    5.11    0.74
  -8  14  -4    4.22    0.73
 -10 -14  -4   94.81    9.15
  10 -14   4   94.10    9.20
 -10  14  -4   90.92    7.88
  10  14   4  101.62    7.83
 -12 -14  -4   11.71    1.98
  12 -14   4   17.45    2.22
 -12  14  -4   15.79    1.60
  12  14   4   15.86    1.53
  14 -14   4   73.10    7.64
 -14 -14  -4   80.28    7.58
 -14  14  -4   81.17    6.56
 -16 -14  -4    6.19    1.21
  16 -14   4    7.06    1.32
 -16  14  -4    7.07    1.02
  13 -15  -4    0.89    0.44
 -13 -15   4    1.21    0.68
 -13  15   4    1.55    0.52
  13  15  -4    1.08    0.45
 -11 -15   4  110.86    8.82
  11 -15  -4   78.88    7.45
 -11  15   4   91.65    7.48
  11  15  -4   88.46    7.43
   9 -15  -4    0.30    0.36
  -9 -15   4   -0.05    0.56
   9  15  -4    0.81    0.39
  -9  15   4    0.21    0.42
  -7 -15   4  114.77   10.43
   7 -15  -4  106.60    8.92
  -7  15   4  106.26    8.93
   7  15  -4  110.32    8.90
   5 -15  -4    2.79    0.60
  -5 -15   4    4.54    1.09
  -5  15   4    3.21    0.67
   5  15  -4    2.11    0.53
   3 -15  -4  106.19    8.96
  -3 -15   4  112.83   10.49
  -3  15   4  109.10    9.00
   3  15  -4  111.76    8.95
  -1 -15   4    4.23    1.11
   1  15  -4    3.61    0.69
  -1  15   4    5.57    0.80
   1 -15   4   60.14    6.53
  -1  15  -4   66.69    5.50
   1  15   4   70.48    5.51
   3 -15   4    4.69    1.13
  -3  15  -4    3.87    0.66
   3  15   4    3.90    0.64
   5  15   4   88.53    6.82
  -5  15  -4   83.63    6.81
  -5  15  -4   75.53    6.88
   7 -15   4    3.77    1.03
  -7  15  -4    4.57    0.76
  -7  15  -4    5.72    0.89
   7  15   4    5.74    0.81
  -9  15  -4   71.34    6.11
   9  15   4   74.51    6.05
  11 -15   4   24.33    2.77
  11  15   4   24.93    2.19
 -11  15  -4   21.95    2.22
   6 -16  -4    0.89    0.43
  -6 -16   4    0.36    0.63
  -6  16   4    0.28    0.42
   6  16  -4    0.49    0.41
   4 -16  -4    0.50    0.42
  -4 -16   4    1.37    0.77
   4  16  -4    0.75    0.42
  -4  16   4    0.88    0.47
   2 -16  -4    1.44    0.47
  -2 -16   4    0.43    0.65
  -2  16   4    1.43    0.55
   2  16  -4    1.28    0.44
   0 -16   4    2.05    0.83
   0  16  -4    1.90    0.49
   2 -16   4    0.24    0.62
  -2  16  -4   -0.07    0.35
   2  16   4    0.12    0.35
   4 -16   4    1.39    0.79
   4  16   4    0.85    0.42
  -4  16  -4    0.84    0.42
 -36   0   5   -0.03    0.46
 -34   0   5    0.49    0.47
 -32   0   5    0.38    0.49
 -30   0   5   -0.06    0.40
  30   0  -5   -0.32    0.42
  28   0  -5    0.55    0.44
 -28   0   5    0.00    0.42
  28   0  -5    0.23    0.42
  26   0  -5   -0.31    0.36
 -26   0   5    0.11    0.37
  26   0  -5   -0.09    0.41
 -24   0   5    0.35    0.41
  24   0  -5    0.03    0.38
  24   0  -5    0.47    0.40
 -22   0   5    0.25    0.37
  22   0  -5    0.13    0.36
  22   0  -5    0.57    0.41
  20   0  -5    0.19    0.35
  20   0  -5    0.33    0.37
 -20   0   5    0.09    0.34
 -18   0   5    0.24    0.22
  18   0  -5    0.17    0.32
  18   0  -5   -0.13    0.31
 -18   0   5    0.15    0.36
  16   0  -5   -0.05    0.27
 -16   0   5   -0.44    0.17
 -16   0   5   -0.14    0.30
  16   0  -5   -0.33    0.29
 -14   0   5   -0.02    0.18
  14   0  -5   -0.46    0.22
  14   0  -5   -0.29    0.27
 -14   0   5   -0.33    0.27
  12   0  -5   -0.45    0.28
 -12   0   5   -0.53    0.24
  12   0  -5   -0.37    0.21
 -12   0   5   -0.61    0.14
  10   0  -5   -0.10    0.29
 -10   0   5   -0.25    0.26
  10   0  -5   -0.15    0.19
 -10   0   5   -0.25    0.14
  -8   0   5   -0.48    0.24
  -8   0   5   -0.45    0.13
   8   0  -5   -0.14    0.26
   8   0  -5   -0.40    0.15
  -6   0   5   -0.06    0.26
  -6   0   5   -0.26    0.16
  -6   0   5   -0.23    0.16
   6   0  -5   -0.71    0.21
  -4   0   5   -0.01    0.18
  -4   0   5   -0.52    0.14
   4   0  -5   -0.26    0.22
  -4   0   5   -0.52    0.22
  -2   0   5   -0.04    0.19
   2   0  -5    0.06    0.21
   2   0  -5   -0.08    0.22
  -2   0   5   -0.28    0.24
   0   0   5   -0.41    0.20
   0   0  -5   -0.45    0.20
   0   0   5   -0.51    0.19
   0   0  -5   -0.52    0.18
   2   0   5   -0.06    0.21
   2   0   5   -0.11    0.19
  -2   0  -5    0.00    0.15
  -2   0  -5    0.58    0.24
   4   0   5   -0.06    0.25
  -4   0  -5   -0.07    0.24
   4   0   5   -0.20    0.17
   6   0   5    0.05    0.28
  -6   0  -5   -0.05    0.23
   6   0   5    0.08    0.22
   8   0   5   -0.07    0.20
   8   0   5    0.18    0.31
  -8   0  -5    0.15    0.25
 -10   0  -5   -0.01    0.27
  10   0   5    0.03    0.35
  10   0   5    0.15    0.23
  12   0   5    0.35    0.31
  12   0   5   -0.02    0.24
 -12   0  -5    0.46    0.30
 -14   0  -5    0.07    0.31
  14   0   5   -0.01    0.26
  14   0   5    0.25    0.39
  16   0   5    0.81    0.53
  16   0   5    0.36    0.29
 -16   0  -5    0.26    0.33
  18   0   5    0.20    0.40
 -18   0  -5    0.17    0.28
 -18   0  -5    0.20    0.33
  20   0   5    0.02    0.45
 -20   0  -5    0.25    0.32
 -20   0  -5    0.18    0.37
 -22   0  -5    0.15    0.38
  22   0   5   -0.21    0.45
 -22   0  -5   -0.29    0.31
  24   0   5    0.51    0.55
 -24   0  -5    0.00    0.41
 -24   0  -5    0.04    0.34
  26   0   5    0.00    0.47
 -26   0  -5   -0.07    0.37
 -28   0  -5    0.31    0.40
  28   0   5   -0.19    0.52
  30   0   5   -0.09    0.49
 -30   0  -5    0.42    0.47
 -32   0  -5    0.14    0.40
  32   0   5   -0.21    0.44
 -34   0  -5    0.03    0.47
 -35  -1   5   71.42    6.23
 -35   1   5   68.62    6.22
 -33  -1   5   17.73    2.04
 -33   1   5   20.50    2.01
 -31  -1   5   85.91    7.71
  31   1  -5   90.21    8.37
 -29  -1   5   27.06    2.64
  29  -1  -5   25.26    2.53
  29   1  -5   27.47    2.52
  29   1  -5   29.63    2.92
 -29   1   5   26.21    2.64
  27  -1  -5  127.27   12.70
  27  -1  -5  135.91   11.17
 -27  -1   5  145.84   11.75
  27   1  -5  140.93   11.16
 -27   1   5  134.40   11.73
  27   1  -5  136.86   12.71
  25  -1  -5   54.77    5.19
  25  -1  -5   56.28    4.61
  25   1  -5   48.17    4.55
  25   1  -5   56.80    5.25
 -25   1   5   54.27    4.84
 -23  -1   5   66.85    4.97
  23  -1  -5   52.57    4.68
  23  -1  -5   49.51    5.26
 -23   1   5   52.02    4.91
  23   1  -5   56.89    5.34
  23   1  -5   56.38    4.68
  21  -1  -5   95.32    9.63
  21  -1  -5  104.24    8.51
 -21  -1   5  119.70    8.97
 -21   1   5   93.67    8.92
  21   1  -5   99.39    9.66
  21   1  -5  113.81    8.52
  19  -1  -5   65.77    6.28
 -19  -1   5   61.96    5.83
  19  -1  -5   67.01    5.56
 -19   1   5   70.87    5.43
 -19   1   5   65.03    5.82
  19   1  -5   69.56    5.56
  19   1  -5   66.20    6.28
  17  -1  -5  219.60   17.32
 -17  -1   5  221.77   18.18
  17  -1  -5  202.63   19.66
 -17   1   5  226.60   17.19
 -17   1   5  197.11   18.14
  17   1  -5  224.97   19.69
  15  -1  -5   87.87    8.06
 -15  -1   5   87.58    6.98
  15  -1  -5   86.73    7.15
 -15  -1   5   88.98    7.51
  15   1  -5   88.83    8.08
 -15   1   5   92.79    7.49
  15   1  -5   81.91    7.13
 -15   1   5   84.44    7.03
  13  -1  -5  203.64   20.13
 -13  -1   5  228.95   17.60
 -13  -1   5  220.77   18.63
  13   1  -5  225.65   20.17
 -13   1   5  218.45   18.62
  13   1  -5  216.73   17.74
 -13   1   5  235.51   17.64
  11  -1  -5  380.87   29.26
 -11  -1   5  373.55   30.69
  11  -1  -5  332.96   33.23
 -11  -1   5  389.74   29.11
 -11   1   5  378.35   29.15
  11   1  -5  331.48   29.23
 -11   1   5  375.59   30.70
  11   1  -5  372.98   33.27
   9  -1  -5  405.19   31.67
  -9  -1   5  390.92   31.53
   9  -1  -5  368.68   35.97
  -9  -1   5  400.64   33.24
   9   1  -5  357.11   36.00
  -9   1   5  422.39   33.24
  -9   1   5  441.18   31.58
  -7  -1   5   75.24    5.84
  -7  -1   5   73.57    6.23
   7  -1  -5   76.75    5.94
   7   1  -5   62.30    5.91
  -7   1   5   76.09    5.87
  -7   1   5   73.55    6.23
   7   1  -5   72.84    6.68
  -5  -1   5  217.91   17.20
   5  -1  -5  197.24   16.37
  -5  -1   5  211.01   18.61
   5   1  -5  202.43   16.31
  -5   1   5  206.88   17.19
   5   1  -5  204.13   16.36
  -5   1   5  195.87   16.31
  -3  -1   5  250.50   22.27
   3  -1  -5  261.50   21.20
  -3  -1   5  282.53   24.17
  -3   1   5  272.38   22.27
   3   1  -5  264.34   21.20
  -1  -1   5  188.61   16.22
   1  -1  -5  196.30   15.44
  -1  -1   5  191.78   17.62
   1   1  -5  188.93   15.44
  -1   1   5  204.30   17.56
  -1   1   5  195.06   15.43
   1   1  -5  190.38   15.44
   1  -1   5   39.40    3.50
  -1  -1  -5   41.39    3.31
  -1  -1  -5   34.42    3.33
   1  -1   5   38.85    3.83
  -1   1  -5   41.79    3.31
   1   1   5   41.00    3.51
  -1   1  -5   42.70    3.36
   1   1   5   46.15    3.80
   3  -1   5  401.47   29.79
  -3  -1  -5  369.55   28.33
   3  -1   5  340.95   32.39
  -3  -1  -5  313.01   28.36
  -3   1  -5  340.77   28.38
  -3   1  -5  363.98   28.32
   3   1   5  371.18   29.80
   3   1   5  352.12   32.35
  -5  -1  -5    1.63    0.35
   5  -1   5    0.91    0.37
   5  -1   5    1.55    0.29
   5   1   5    1.37    0.30
   5   1   5    1.44    0.36
  -5   1  -5    0.69    0.32
  -7  -1  -5  271.18   22.38
   7  -1   5  297.56   23.47
   7  -1   5  252.25   25.55
   7   1   5  279.59   23.49
   7   1   5  279.29   25.55
  -7   1  -5  304.44   22.41
   9  -1   5   37.99    3.42
   9  -1   5   33.15    3.79
  -9  -1  -5   46.12    3.33
   9   1   5   40.64    3.44
   9   1   5   39.53    3.81
  -9   1  -5   39.82    3.31
  11  -1   5  354.63   30.15
  11  -1   5  335.46   27.65
 -11  -1  -5  321.20   26.35
  11   1   5  324.70   27.66
  11   1   5  340.88   30.14
 -11   1  -5  308.99   26.36
  13  -1   5    0.18    0.39
  13  -1   5    0.43    0.26
 -13  -1  -5    0.20    0.29
  13   1   5    0.48    0.42
 -13   1  -5    0.46    0.34
  13   1   5    0.68    0.30
 -15  -1  -5  201.99   14.67
  15  -1   5  184.37   16.79
  15  -1   5  172.94   15.34
  15   1   5  173.80   15.37
 -15   1  -5  180.09   14.65
  17  -1   5    0.47    0.42
 -17  -1  -5    0.28    0.34
  17   1   5   -0.32    0.39
  17   1   5    0.01    0.26
 -17   1  -5    0.03    0.34
 -17   1  -5    0.26    0.30
 -19  -1  -5  262.47   20.18
  19  -1   5  260.74   23.11
 -19  -1  -5  232.44   21.15
  19   1   5  261.73   23.11
 -19   1  -5  241.93   21.15
 -19   1  -5  252.76   20.18
  21  -1   5    3.75    0.88
 -21  -1  -5    5.19    0.80
 -21  -1  -5    5.25    0.79
  21   1   5    3.90    0.87
 -21   1  -5    5.59    0.82
 -21   1  -5    5.11    0.79
 -23  -1  -5  130.32   12.10
 -23  -1  -5  144.59   11.57
  23   1   5  146.61   13.28
 -23   1  -5  142.71   12.14
 -23   1  -5  149.05   11.58
 -25  -1  -5    0.86    0.46
  25  -1   5    0.12    0.42
 -25   1  -5    0.74    0.47
  25   1   5    0.75    0.56
 -25   1  -5    0.23    0.37
  27  -1   5   89.38    9.04
 -27   1  -5   99.59    8.27
  27   1   5   96.10    9.03
 -29  -1  -5   14.28    1.57
  29  -1   5   12.61    1.87
  29   1   5   13.54    1.93
 -29   1  -5   15.33    1.63
  31  -1   5   52.21    4.77
 -31  -1  -5   39.47    4.24
  31   1   5   49.22    4.74
 -31   1  -5   49.46    4.32
  33  -1   5    4.34    0.98
 -33  -1  -5    2.80    0.74
  33   1   5    5.88    1.07
 -33   1  -5    4.07    0.86
 -36  -2   5   13.52    1.72
 -36   2   5   13.89    1.77
 -34  -2   5   76.30    6.29
 -34   2   5   64.38    6.25
 -32  -2   5    2.85    0.68
  32   2  -5    2.76    0.75
 -32   2   5    1.33    0.60
 -30  -2   5  190.43   16.56
  30  -2  -5  176.61   15.77
 -30   2   5  212.60   16.58
  30   2  -5  188.02   15.74
  30   2  -5  206.98   18.01
 -28  -2   5    9.07    1.15
  28  -2  -5    6.25    1.04
  28   2  -5    7.73    1.06
 -28   2   5    5.67    0.98
  28   2  -5    6.47    1.12
 -26  -2   5  317.84   26.25
  26  -2  -5  290.19   24.97
 -26   2   5  328.33   26.23
  26   2  -5  311.74   24.97
  26   2  -5  309.52   28.46
  24  -2  -5   10.36    1.49
  24  -2  -5   12.15    1.39
 -24  -2   5   12.91    1.46
  24   2  -5   12.56    1.40
  24   2  -5   11.67    1.34
 -24   2   5    9.05    1.32
  22  -2  -5  341.49   30.80
 -22  -2   5  372.83   28.43
  22  -2  -5  303.12   27.04
 -22   2   5  375.15   28.41
  22   2  -5  300.07   30.77
  20  -2  -5   19.14    2.10
 -20  -2   5   21.87    2.00
  20   2  -5   20.46    1.89
  20   2  -5   20.15    2.11
 -20   2   5   20.30    1.78
 -20   2   5   19.08    1.95
 -18  -2   5  344.70   31.40
  18  -2  -5  372.28   29.93
  18  -2  -5  367.71   34.06
  18   2  -5  409.92   29.93
 -18   2   5  378.88   29.80
  16  -2  -5    7.59    0.92
  16  -2  -5    8.71    1.00
 -16  -2   5    9.68    1.06
 -16   2   5    4.72    0.88
  16   2  -5    9.14    0.98
 -16   2   5    7.01    0.77
  16   2  -5    7.33    0.92
 -14  -2   5  566.96   46.35
  14  -2  -5  565.57   44.15
  14  -2  -5  553.91   50.24
  14   2  -5  558.17   44.14
 -14   2   5  502.17   44.02
 -14   2   5  582.76   46.35
  12  -2  -5   15.90    1.47
  12  -2  -5   13.75    1.52
 -12  -2   5   14.86    1.51
 -12   2   5   13.57    1.35
  12   2  -5   15.23    1.44
  12   2  -5   17.77    1.62
 -12   2   5   16.37    1.52
  10  -2  -5  647.35   58.24
 -10  -2   5  682.61   53.73
  10   2  -5  699.85   51.20
 -10   2   5  664.77   53.73
  10   2  -5  548.17   58.27
 -10   2   5  623.39   51.09
   8  -2  -5  174.10   13.62
   8   2  -5  180.84   13.53
  -8   2   5  162.28   13.55
  -8   2   5  185.79   14.31
   8   2  -5  144.90   13.59
  -6  -2   5  474.77   41.82
  -6  -2   5  520.03   45.40
   6  -2  -5  487.64   39.85
   6   2  -5  513.36   39.77
   6   2  -5  489.60   39.85
  -6   2   5  512.73   39.78
  -6   2   5  508.81   41.84
  -4  -2   5  225.02   20.49
   4   2  -5  227.56   17.97
  -4   2   5  255.36   18.90
  -4   2   5  211.71   17.94
   4   2  -5  206.94   17.93
  -2  -2   5  716.66   59.74
   0  -2   5   56.40    5.33
   0  -2   5   62.40    5.85
   0  -2  -5   65.91    5.08
   0   2   5   65.96    5.36
   0   2   5   62.46    5.75
   0   2  -5   62.30    5.10
   0   2  -5   57.00    5.06
   0   2   5   69.52    5.08
  -2  -2  -5  355.74   27.55
   2  -2   5  356.86   28.95
   2  -2   5  325.31   31.50
  -2   2  -5  308.63   27.53
   2   2   5  391.48   31.43
   2   2   5  348.73   27.55
  -2   2  -5  333.00   27.59
   2   2   5  352.27   28.97
   4  -2   5   83.30    6.89
  -4  -2  -5   75.69    5.99
  -4  -2  -5   73.79    5.92
  -4   2  -5   68.78    5.91
   4   2   5   69.50    6.82
  -4   2  -5   69.92    6.00
   4   2   5   78.43    6.28
   6  -2   5  471.12   37.63
  -6  -2  -5  439.41   35.85
  -6  -2  -5  451.76   35.78
  -6   2  -5  423.62   35.77
  -6   2  -5  468.67   35.87
   6   2   5  453.13   40.90
   8  -2   5   69.74    6.45
  -8  -2  -5   70.03    6.19
   8  -2   5   85.22    7.14
   8   2   5   77.35    7.10
   8   2   5   82.95    6.50
  -8   2  -5   74.13    6.22
 -10  -2  -5  297.88   25.62
  10  -2   5  343.18   26.88
  10  -2   5  355.88   29.34
  10   2   5  327.14   26.90
  10   2   5  272.28   29.25
 -10   2  -5  334.50   25.66
  12  -2   5  136.39   11.59
 -12  -2  -5  139.37   11.08
  12  -2   5  135.41   12.72
  12   2   5  141.87   12.71
  12   2   5  134.98   11.61
 -12   2  -5  137.31   11.09
  14  -2   5  332.41   30.65
  14  -2   5  345.33   28.12
 -14  -2  -5  346.43   26.80
 -14   2  -5  305.10   26.80
  14   2   5  349.95   28.14
  14   2   5  335.52   30.62
 -16  -2  -5  164.19   13.50
  16  -2   5  157.49   15.49
 -16   2  -5  189.30   13.55
  16   2   5  148.14   15.43
  16   2   5  178.73   14.16
 -18  -2  -5  180.99   15.71
  18  -2   5  188.14   17.18
 -18  -2  -5  187.02   14.97
  18   2   5  190.39   17.17
 -18   2  -5  187.76   14.99
 -18   2  -5  182.58   15.69
 -20  -2  -5  228.11   19.27
  20  -2   5  243.60   21.04
 -20  -2  -5  225.94   18.36
 -20   2  -5  218.87   19.26
 -20   2  -5  230.11   18.37
  20   2   5  226.28   21.01
  22  -2   5  109.39    9.51
 -22  -2  -5  101.20    8.62
  22   2   5  101.92    9.45
 -22   2  -5   86.40    8.20
 -22   2  -5  103.99    8.63
  24  -2   5  154.49   13.95
 -24  -2  -5  160.61   12.76
 -24   2  -5  151.36   12.14
  24   2   5  157.60   13.96
 -24   2  -5  126.46   12.69
  26  -2   5   55.94    5.97
 -26  -2  -5   70.40    5.49
  26   2   5   61.52    6.00
 -26   2  -5   60.82    5.47
 -26   2  -5   59.17    5.21
  28  -2   5   98.50    9.48
 -28  -2  -5   93.39    8.62
  28   2   5  112.09    9.52
 -28   2  -5   96.98    8.66
 -30  -2  -5   21.74    2.18
  30  -2   5   19.01    2.40
  30   2   5   24.23    2.51
 -30   2  -5   21.37    2.18
 -32  -2  -5   75.03    6.69
  32  -2   5   80.93    7.39
  32   2   5   73.20    7.33
 -32   2  -5   75.45    6.75
 -35  -3   5   21.58    2.14
 -35   3   5   18.69    2.16
 -33  -3   5   17.33    1.81
  33   3  -5   16.73    1.99
 -33   3   5   14.98    1.91
 -31  -3   5   22.57    2.07
  31   3  -5   21.29    2.23
 -31   3   5   13.93    2.03
 -29  -3   5    3.52    0.77
  29  -3  -5    4.39    0.82
  29   3  -5    3.87    0.77
 -29   3   5    3.41    0.82
  29   3  -5    4.82    0.95
  27  -3  -5   39.88    3.92
 -27  -3   5   49.36    4.16
  27   3  -5   49.71    3.91
  27   3  -5   45.40    4.47
 -27   3   5   42.01    4.13
  25  -3  -5   12.02    1.36
 -25  -3   5    8.14    1.27
  25   3  -5   10.65    1.27
  25   3  -5   10.84    1.47
 -25   3   5   12.15    1.46
  23  -3  -5    6.80    1.02
 -23  -3   5    7.55    1.04
 -23   3   5    7.49    0.89
  23   3  -5    6.51    0.94
  23   3  -5    8.41    1.16
 -23   3   5    7.21    1.07
  21  -3  -5   37.55    3.69
 -21  -3   5   43.70    3.88
  21  -3  -5   51.59    4.22
 -21   3   5   38.83    3.58
  21   3  -5   47.48    4.22
 -21   3   5   37.34    3.84
  21   3  -5   46.96    3.69
  19  -3  -5   16.32    1.89
 -19  -3   5   22.15    1.84
  19  -3  -5   19.84    1.75
 -19   3   5   15.54    1.75
  19   3  -5   18.10    1.69
 -19   3   5   16.94    1.61
  19   3  -5   19.05    1.93
 -17  -3   5   32.05    2.88
  17  -3  -5   29.66    3.03
  17  -3  -5   31.47    2.75
 -17   3   5   31.05    2.85
  17   3  -5   32.02    2.72
 -17   3   5   28.57    2.64
  17   3  -5   35.22    3.10
  15  -3  -5  173.14   14.16
 -15  -3   5  182.28   14.87
  15  -3  -5  194.50   16.07
  15   3  -5  170.99   14.13
 -15   3   5  168.37   14.83
 -15   3   5  165.94   14.06
  13  -3  -5  108.18    8.76
  13  -3  -5  112.44    9.89
 -13  -3   5  110.89    9.20
  13   3  -5  100.06    8.72
 -13   3   5  102.49    9.16
  13   3  -5  104.02    9.92
 -13   3   5  116.03    8.68
  11  -3  -5  168.66   13.79
 -11  -3   5  166.92   14.48
  11  -3  -5  159.20   15.61
  11   3  -5  160.25   13.76
 -11   3   5  181.56   14.49
 -11   3   5  172.73   13.72
  11   3  -5  194.81   15.71
   9  -3  -5   19.03    1.67
   9  -3  -5   18.16    1.76
  -9  -3   5   21.36    1.75
   9   3  -5   22.40    1.87
   9   3  -5   17.62    1.65
  -9   3   5   18.57    1.74
  -9   3   5   14.47    1.59
  -7  -3   5   75.09    5.98
  -7  -3   5   68.90    6.47
   7  -3  -5   57.02    5.66
  -7   3   5   72.73    5.65
  -7   3   5   72.09    5.98
   7   3  -5   69.69    5.68
   7   3  -5   73.23    5.61
   5  -3  -5  117.45    9.41
  -5  -3   5  133.49    9.89
   5   3  -5  112.52    9.40
  -5   3   5  107.76    9.88
  -5   3   5  112.88    9.38
   5   3  -5  118.69    9.36
  -3  -3   5   15.81    1.45
   3  -3  -5   14.80    1.36
  -3  -3   5   16.59    1.61
  -3   3   5   15.17    1.35
   3   3  -5   15.34    1.36
  -3   3   5   16.08    1.44
   3   3  -5   14.94    1.36
   1  -3  -5  190.68   14.29
  -1  -3   5  159.28   16.34
  -1  -3   5  201.01   15.02
  -1   3   5  191.42   14.29
   1   3  -5  177.95   14.30
   1   3  -5  166.36   14.28
  -1   3   5  167.07   16.23
  -1  -3  -5   15.36    1.25
   1  -3   5   13.70    1.32
  -1   3  -5   12.85    1.24
   1   3   5   16.01    1.42
   1   3   5   14.02    1.27
   1   3   5   14.48    1.35
  -1   3  -5   14.36    1.32
   3  -3   5  366.45   32.96
  -3  -3  -5  350.91   28.78
   3  -3   5  371.93   30.24
   3   3   5  364.96   28.80
  -3   3  -5  332.38   28.83
  -3   3  -5  356.78   28.78
   3   3   5  393.11   32.86
   5  -3   5    9.17    1.10
   5  -3   5    9.13    0.88
   5   3   5   11.91    0.96
  -5   3  -5    8.53    0.80
  -5   3  -5    9.11    0.95
   5   3   5    7.02    0.98
   7  -3   5  229.21   18.69
  -7  -3  -5  221.16   17.84
   7  -3   5  220.23   20.44
  -7   3  -5  223.16   17.87
  -7   3  -5  223.60   17.76
   7   3   5  230.04   18.74
   7   3   5  209.65   17.76
   7   3   5  231.94   20.39
  -9  -3  -5    3.15    0.53
   9  -3   5    2.75    0.66
   9  -3   5    3.91    0.50
   9   3   5    3.91    0.56
   9   3   5    3.44    0.37
   9   3   5    2.78    0.64
  -9   3  -5    3.90    0.59
  -9   3  -5    3.80    0.39
  11  -3   5   91.21    8.50
 -11  -3  -5   88.65    7.37
  11  -3   5  103.25    7.70
 -11   3  -5   83.43    7.37
  11   3   5   91.77    7.72
  11   3   5   89.02    8.45
  11   3   5   86.97    7.23
  13  -3   5    0.02    0.26
 -13  -3  -5    0.19    0.29
  13  -3   5    0.40    0.46
 -13   3  -5   -0.01    0.31
  13   3   5    0.14    0.33
  13   3   5    0.34    0.27
 -15  -3  -5   79.62    6.26
  15  -3   5   65.81    7.17
  15   3   5   74.94    7.20
 -15   3  -5   80.37    6.30
  15   3   5   79.38    6.56
  17  -3   5    0.18    0.40
 -17  -3  -5    0.68    0.36
  17   3   5    0.75    0.32
 -17   3  -5    0.37    0.36
  17   3   5    0.20    0.43
 -17   3  -5    0.73    0.32
 -19  -3  -5   27.87    3.00
 -19  -3  -5   35.08    2.92
  19  -3   5   37.92    3.48
 -19   3  -5   31.12    3.01
  19   3   5   37.86    3.42
  21  -3   5    2.69    0.81
 -21  -3  -5    1.83    0.54
 -21   3  -5    2.72    0.61
  21   3   5    2.09    0.69
 -21   3  -5    4.48    0.70
 -23  -3  -5   27.18    2.43
  23  -3   5   22.84    2.68
 -23   3  -5   26.49    2.42
  23   3   5   28.01    2.75
 -23   3  -5   20.91    2.28
 -25  -3  -5    1.59    0.52
  25  -3   5    1.88    0.72
 -25   3  -5    1.03    0.51
 -25   3  -5    1.74    0.58
  25   3   5    1.59    0.67
 -27  -3  -5   27.98    2.86
  27  -3   5   38.87    3.31
  27   3   5   27.20    3.20
 -27   3  -5   27.38    2.91
 -27   3  -5   32.94    2.83
 -29  -3  -5    4.29    0.81
  29  -3   5    4.29    0.94
  29   3   5    4.06    0.95
 -31  -3  -5   35.94    3.66
  31  -3   5   43.03    4.13
  31   3   5   40.99    4.05
 -33  -3  -5   -0.07    0.42
  33  -3   5    0.25    0.55
  33   3   5   -0.30    0.48
 -34  -4   5   25.48    2.48
  34   4  -5   23.21    2.68
 -32  -4   5    0.41    0.48
  32   4  -5    0.24    0.47
 -32   4   5    0.23    0.55
  30  -4  -5   11.27    1.50
 -30  -4   5   12.25    1.55
 -30   4   5   12.06    1.61
  30   4  -5   14.75    1.80
  30   4  -5   12.80    1.49
  28  -4  -5    0.42    0.49
 -28  -4   5    1.57    0.58
  28   4  -5    1.22    0.59
  28   4  -5    0.88    0.45
 -28   4   5    0.76    0.52
  26  -4  -5   19.44    2.07
 -26  -4   5   20.29    2.11
 -26   4   5   23.06    2.19
  26   4  -5   19.57    1.98
  26   4  -5   23.55    2.34
  24  -4  -5    0.33    0.44
 -24  -4   5    0.72    0.45
  24   4  -5    0.13    0.43
 -24   4   5    0.98    0.38
  24   4  -5    0.36    0.37
 -24   4   5   -0.15    0.40
 -22  -4   5    0.90    0.45
  22  -4  -5    1.49    0.51
  22   4  -5    0.62    0.47
 -22   4   5    1.63    0.43
 -22   4   5    2.26    0.56
  22   4  -5    2.14    0.53
  20  -4  -5   27.37    2.51
 -20  -4   5   24.94    2.59
 -20   4   5   27.27    2.61
 -20   4   5   27.74    2.41
  20   4  -5   25.02    2.80
  20   4  -5   34.78    2.52
  18  -4  -5   66.56    5.47
  18  -4  -5   61.30    6.14
 -18  -4   5   62.01    5.71
 -18   4   5   68.68    5.37
  18   4  -5   70.02    5.43
  18   4  -5   62.05    6.18
 -18   4   5   68.09    5.73
  16  -4  -5    8.45    1.15
  16  -4  -5    7.56    1.05
 -16  -4   5    8.66    1.14
  16   4  -5    9.31    1.08
 -16   4   5   10.27    1.08
  16   4  -5    9.86    1.15
 -16   4   5   11.20    0.98
  14  -4  -5   83.39    8.26
 -14  -4   5   90.82    7.69
  14  -4  -5   87.60    7.32
 -14   4   5   86.98    7.26
  14   4  -5   93.71    7.31
 -14   4   5   85.38    7.66
  14   4  -5  100.28    8.34
 -12  -4   5    6.81    0.90
  12  -4  -5    6.12    0.82
  12  -4  -5    8.65    0.93
  12   4  -5    6.42    0.95
 -12   4   5    8.63    0.89
 -12   4   5    7.32    0.82
  12   4  -5    7.88    0.90
  10  -4  -5  128.05   10.14
 -10  -4   5  127.23   10.65
  10  -4  -5  128.65   11.47
  10   4  -5  127.88   11.55
  10   4  -5  112.84   10.12
 -10   4   5  128.64   10.10
  -8  -4   5   33.74    2.96
   8  -4  -5   33.56    2.83
   8  -4  -5   27.26    2.56
  -8  -4   5   31.34    2.71
   8   4  -5   31.18    2.57
  -8   4   5   28.40    2.69
  -8   4   5   25.05    2.52
   6  -4  -5   95.38    7.68
   6  -4  -5   91.18    8.66
  -6  -4   5   91.52    8.06
   6   4  -5  101.33    7.63
  -6   4   5   93.18    7.66
  -6   4   5   97.60    8.07
  -4  -4   5   61.63    5.89
   4  -4  -5   65.32    5.76
   4  -4  -5   62.70    5.12
  -4  -4   5   56.20    5.37
  -4   4   5   70.37    5.12
  -4   4   5   63.36    5.37
   4   4  -5   59.72    5.09
   2  -4  -5    8.10    0.81
  -2  -4   5    7.65    1.02
  -2  -4   5    7.53    0.81
   2  -4  -5    8.81    0.78
   2   4  -5    7.88    0.80
   2   4  -5    6.70    0.77
  -2   4   5    6.58    0.75
  -2   4   5    7.51    0.81
   0  -4   5  124.05   11.11
   0  -4  -5  118.36    9.63
   0  -4   5  121.26   10.11
   0   4  -5  122.62    9.67
   0   4   5  114.52    9.64
   0   4   5  109.36   10.95
   0   4  -5  132.28    9.63
   2  -4   5   60.84    5.29
   2   4   5   60.96    5.08
   2   4   5   58.87    5.78
  -2   4  -5   64.78    5.07
  -2   4  -5   57.54    5.11
   2   4   5   72.48    5.36
   4  -4   5   25.41    2.17
   4  -4   5   22.26    2.51
  -4   4  -5   20.73    2.14
   4   4   5   25.87    2.11
  -4   4  -5   26.72    2.08
   4   4   5   21.85    2.05
   4   4   5   28.92    2.25
   4   4   5   27.60    2.44
   6  -4   5   40.15    3.94
   6  -4   5   45.64    4.47
   6   4   5   48.99    4.40
  -6   4  -5   45.91    3.87
  -6   4  -5   47.53    3.75
   6   4   5   49.53    4.02
   6   4   5   47.75    3.75
   8  -4   5   21.75    1.88
  -8  -4  -5   21.63    1.86
   8  -4   5   22.19    2.25
   8   4   5   20.61    1.75
  -8   4  -5   20.90    1.91
   8   4   5   17.82    2.12
   8   4   5   23.02    1.95
  -8   4  -5   21.12    1.76
 -10  -4  -5   75.14    7.03
  10  -4   5   91.83    7.34
  10  -4   5   96.47    8.17
 -10   4  -5   89.44    6.95
 -10   4  -5   82.67    7.08
  10   4   5   86.27    7.39
  10   4   5   85.53    6.94
 -12  -4  -5   16.36    1.53
  12  -4   5   17.26    1.55
  12  -4   5   16.51    1.41
  12   4   5   15.58    1.38
  12   4   5   17.65    1.81
 -12   4  -5   15.98    1.58
  12   4   5   15.75    1.57
  14  -4   5   21.04    2.25
 -14  -4  -5   22.09    1.87
  14   4   5   20.49    1.94
 -14   4  -5   23.77    1.94
 -14   4  -5   21.41    1.88
  14   4   5   14.64    2.09
 -16  -4  -5    7.14    0.88
  16  -4   5    6.40    1.11
  16   4   5    5.01    1.01
  16   4   5    7.39    0.91
 -16   4  -5    6.75    0.90
 -16   4  -5    6.66    0.85
  18  -4   5   18.26    1.98
 -18  -4  -5   15.13    1.64
 -18  -4  -5   16.93    1.64
  18   4   5   16.15    1.91
 -18   4  -5   18.18    1.65
 -18   4  -5   16.11    1.64
 -20  -4  -5   37.72    3.49
  20  -4   5   38.10    3.92
  20   4   5   41.47    3.91
 -20   4  -5   38.34    3.36
 -20   4  -5   38.11    3.49
  22  -4   5    1.07    0.64
 -22  -4  -5    0.89    0.45
 -22   4  -5    0.93    0.44
 -22   4  -5    1.11    0.51
  22   4   5    0.92    0.56
 -24  -4  -5    6.47    0.98
  24  -4   5    8.03    1.21
 -24   4  -5    6.14    0.95
  24   4   5    5.84    1.09
  26  -4   5   11.49    1.64
 -26  -4  -5   10.54    1.29
 -26   4  -5    9.02    1.23
  26   4   5    7.72    1.39
 -28  -4  -5    5.10    0.91
  28  -4   5    4.65    1.05
 -28   4  -5    5.95    0.94
  28   4   5    6.40    1.13
 -30  -4  -5    1.07    0.51
  30  -4   5    0.46    0.61
  30   4   5    0.53    0.58
  32  -4   5    9.59    1.59
 -32  -4  -5   10.61    1.40
  32   4   5   12.03    1.67
 -33  -5   5   33.38    2.85
  33   5  -5   24.46    2.98
 -31  -5   5   79.83    7.39
  31   5  -5   89.49    8.08
  29  -5  -5   54.92    4.28
 -29  -5   5   49.48    4.40
  29   5  -5   53.28    4.14
  29   5  -5   36.83    4.68
 -27  -5   5  107.01    8.44
  27   5  -5   76.53    9.06
 -27   5   5  101.52    8.55
  27   5  -5  104.76    7.97
 -25  -5   5   74.59    6.70
  25  -5  -5   71.44    6.41
 -25   5   5   70.34    6.72
  25   5  -5   81.51    6.35
 -25   5   5   84.95    6.33
  25   5  -5   75.62    7.29
 -23  -5   5  113.93   11.41
  23  -5  -5  132.78   10.93
  23   5  -5  154.33   10.90
 -23   5   5  132.15   11.47
 -23   5   5  137.02   10.84
  21  -5  -5   55.31    4.88
 -21  -5   5   71.05    5.18
 -21   5   5   47.77    4.76
 -21   5   5   55.48    5.09
  21   5  -5   63.67    4.84
  21   5  -5   57.01    5.52
 -19  -5   5  179.46   15.97
  19  -5  -5  203.23   15.25
 -19   5   5  173.50   15.13
  19   5  -5  203.59   17.34
 -19   5   5  183.70   15.95
  19   5  -5  191.01   15.19
 -17  -5   5   89.60    7.47
  17  -5  -5   86.20    7.11
 -17   5   5   86.78    7.45
 -17   5   5   85.27    7.03
  17   5  -5   84.91    7.07
 -15  -5   5  142.10   11.30
  15  -5  -5  132.42   10.74
 -15   5   5  133.49   11.26
  15   5  -5  118.79   12.20
 -15   5   5  138.68   10.68
  15   5  -5  130.52   10.71
 -13  -5   5  221.30   18.71
  13  -5  -5  224.99   17.82
  13  -5  -5  229.03   20.24
 -13   5   5  230.83   18.70
  13   5  -5  205.67   17.78
 -13   5   5  223.13   17.76
  13   5  -5  220.46   20.29
  11  -5  -5   88.37    7.29
 -11  -5   5   93.56    7.69
  11  -5  -5   89.49    8.25
 -11   5   5   93.79    7.67
  11   5  -5   87.44    7.28
 -11   5   5   84.65    7.25
  11   5  -5   91.50    8.31
   9  -5  -5  254.29   24.38
  -9  -5   5  312.48   22.54
  -9  -5   5  262.04   24.48
  -9   5   5  267.52   22.51
   9   5  -5  262.15   21.44
  -9   5   5  254.85   21.41
   7  -5  -5  143.74   13.70
  -7  -5   5  157.67   13.82
  -7  -5   5  148.94   12.67
   7  -5  -5  153.52   12.08
   7   5  -5  151.21   12.00
  -7   5   5  151.29   12.05
  -7   5   5  152.74   12.67
   7   5  -5  144.50   12.06
   5  -5  -5  641.34   51.63
   5  -5  -5  710.56   58.82
  -5  -5   5  632.96   58.93
  -5  -5   5  638.39   54.19
  -5   5   5  649.16   54.19
   5   5  -5  638.88   51.56
   5   5  -5  631.93   51.63
  -5   5   5  654.76   51.60
   3  -5  -5   61.01    5.93
  -3  -5   5   69.69    5.49
   3  -5  -5   59.68    5.22
  -3  -5   5   64.31    6.06
   3   5  -5   64.73    5.24
   3   5  -5   56.38    5.21
  -3   5   5   65.10    5.49
  -3   5   5   75.13    5.25
   1  -5  -5  448.59   39.87
  -1  -5   5  416.35   39.99
  -1  -5   5  393.98   36.71
   1  -5  -5  476.38   34.99
   1   5  -5  454.56   34.99
  -1   5   5  433.59   34.97
   1   5  -5  434.11   34.98
  -1   5   5  462.15   36.74
   1  -5   5   62.63    5.01
   1  -5   5   51.36    5.58
   1   5   5   64.40    5.06
  -1   5  -5   49.94    4.78
   1   5   5   59.96    4.81
   1   5   5   61.54    5.48
  -1   5  -5   62.59    4.85
   3  -5   5  497.21   40.39
   3  -5   5  500.69   44.07
   3   5   5  467.09   38.49
   3   5   5  484.27   43.94
  -3   5  -5  494.85   38.50
   3   5   5  426.46   38.48
   3   5   5  486.58   40.45
  -3   5  -5  523.10   38.55
   5  -5   5   26.91    2.33
   5  -5   5   27.57    2.76
   5   5   5   27.17    2.23
   5   5   5   25.87    2.64
   5   5   5   28.57    2.29
  -5   5  -5   23.30    2.32
   5   5   5   25.99    2.39
  -5   5  -5   27.74    2.25
   7  -5   5  270.25   24.31
   7  -5   5  301.48   26.63
   7   5   5  264.64   24.38
   7   5   5  284.46   23.19
  -7   5  -5  328.73   23.18
  -7   5  -5  295.84   23.26
   7   5   5  296.41   23.17
   7   5   5  288.60   26.52
   9  -5   5   44.11    3.79
  -9  -5  -5   50.81    3.70
   9  -5   5   44.71    4.35
   9   5   5   42.76    3.59
   9   5   5   42.22    3.85
  -9   5  -5   43.14    3.72
  -9   5  -5   42.43    3.60
 -11  -5  -5  315.71   23.15
  11  -5   5  265.53   26.45
  11  -5   5  302.00   24.22
  11   5   5  288.23   24.29
 -11   5  -5  267.45   23.14
  11   5   5  293.79   26.41
  11   5   5  292.59   23.05
  13  -5   5   14.62    1.64
 -13  -5  -5   14.48    1.35
 -13   5  -5   12.45    1.31
  13   5   5   13.40    1.37
 -13   5  -5   15.67    1.41
  13   5   5   12.65    1.54
 -15  -5  -5  259.60   21.61
  15  -5   5  286.55   24.83
  15   5   5  267.22   22.70
 -15   5  -5  264.18   22.67
 -15   5  -5  274.35   21.66
  15   5   5  272.11   24.75
 -17  -5  -5    3.55    0.62
  17  -5   5    1.64    0.67
 -17   5  -5    2.01    0.55
  17   5   5    3.31    0.74
  19  -5   5  139.07   14.91
 -19  -5  -5  176.55   13.70
  19   5   5  152.76   14.92
 -19   5  -5  175.24   13.06
 -21  -5  -5    0.99    0.45
  21  -5   5    1.20    0.60
 -21   5  -5    0.84    0.45
  21   5   5    0.38    0.51
  23  -5   5  155.58   15.31
 -23   5  -5  168.82   13.37
  23   5   5  168.95   15.29
 -25  -5  -5    4.91    0.81
  25  -5   5    3.91    0.95
  25   5   5    2.93    0.86
 -25   5  -5    4.46    0.82
 -27  -5  -5  103.43    8.76
  27  -5   5  107.54    9.64
 -27   5  -5   97.40    8.32
  27   5   5   96.71    9.52
  29  -5   5   11.68    1.68
 -29  -5  -5    8.86    1.29
  29   5   5    9.86    1.51
 -29   5  -5    8.42    1.20
 -31  -5  -5   83.05    7.75
  31  -5   5   95.15    8.59
  31   5   5   89.53    8.52
 -32  -6   5   22.06    2.31
  32   6  -5   22.68    2.49
 -30  -6   5  116.21    9.86
  30  -6  -5  112.26    9.46
  30   6  -5  123.52    9.36
  30   6  -5  104.17   10.66
 -28  -6   5   19.01    1.97
  28  -6  -5   19.63    1.97
  28   6  -5   16.12    2.07
  28   6  -5   20.13    1.82
  26  -6  -5  164.46   11.86
  26   6  -5  135.65   11.72
  26   6  -5  136.58   13.41
 -26   6   5  144.92   11.71
  24  -6  -5    0.20    0.44
 -24  -6   5    1.06    0.50
 -24   6   5    0.62    0.38
  24   6  -5    0.71    0.41
  24   6  -5    0.73    0.51
 -22  -6   5  254.67   23.38
  22   6  -5  286.58   25.40
 -22   6   5  291.13   22.22
 -20  -6   5    0.05    0.37
  20  -6  -5    0.28    0.38
  20   6  -5    0.62    0.43
 -20   6   5    0.24    0.38
  20   6  -5    0.22    0.34
 -20   6   5    0.39    0.33
 -18  -6   5  295.55   26.17
  18  -6  -5  283.05   24.93
 -18   6   5  304.55   24.87
  18   6  -5  353.70   28.47
  18   6  -5  294.22   24.89
 -18   6   5  340.88   26.20
  16  -6  -5    0.30    0.36
 -16  -6   5   -0.02    0.34
  16   6  -5    0.89    0.42
  16   6  -5    0.38    0.34
 -16   6   5    0.52    0.37
 -16   6   5   -0.31    0.24
 -14  -6   5  290.98   24.07
  14  -6  -5  295.82   22.93
  14   6  -5  286.02   22.90
 -14   6   5  277.76   22.87
  14   6  -5  274.10   26.11
 -14   6   5  294.83   24.05
  12  -6  -5   26.59    2.32
 -12  -6   5   23.03    2.41
 -12   6   5   27.95    2.42
  12   6  -5   25.77    2.64
  12   6  -5   28.74    2.30
 -12   6   5   25.39    2.27
 -10  -6   5  196.86   17.38
  10  -6  -5  202.28   15.21
  10  -6  -5  192.33   17.26
 -10  -6   5  201.75   15.97
 -10   6   5  184.17   15.16
  10   6  -5  160.57   15.16
   8  -6  -5   29.43    2.52
   8  -6  -5   30.29    2.84
  -8  -6   5   24.70    2.63
  -8  -6   5   30.17    2.95
   8   6  -5   28.42    2.43
  -8   6   5   33.32    2.63
   8   6  -5   29.75    2.53
   6  -6  -5  266.78   27.40
  -6  -6   5  307.27   25.26
  -6  -6   5  296.48   27.52
   6   6  -5  316.84   24.07
  -6   6   5  310.26   24.05
   6   6  -5  313.03   24.01
  -4  -6   5   19.50    1.72
   4  -6  -5   20.22    1.86
   4  -6  -5   16.96    1.62
  -4  -6   5   18.69    1.96
   4   6  -5   20.22    1.65
  -4   6   5   18.94    1.70
   4   6  -5   16.46    1.61
  -4   6   5   16.91    1.63
   2  -6  -5  265.83   20.95
  -2  -6   5  271.47   21.98
  -2  -6   5  258.29   24.01
   2  -6  -5  264.09   23.90
  -2   6   5  268.02   21.99
   2   6  -5  282.29   20.97
   2   6  -5  231.55   20.94
  -2   6   5  260.22   20.96
   0  -6   5   19.27    1.80
   0  -6   5   22.29    2.17
   0  -6  -5   23.20    2.03
   0   6   5   21.04    1.77
   0   6  -5   21.84    1.77
   0   6  -5   21.44    1.81
   0   6   5   18.25    1.73
   0   6   5   17.05    1.83
   2  -6   5  171.01   14.08
   2  -6   5  164.18   15.50
   2   6   5  147.42   13.46
   2   6   5  180.83   13.46
  -2   6  -5  165.02   13.46
   2   6   5  191.24   15.40
   2   6   5  165.47   14.15
  -2   6  -5  161.41   13.50
   4  -6   5  135.56   11.67
   4  -6   5  122.25   10.50
   4   6   5  107.33   10.56
   4   6   5  121.23   10.03
   4   6   5  135.05   10.07
   4   6   5  136.84   11.52
  -4   6  -5  126.11   10.05
  -4   6  -5  121.76   10.11
   6  -6   5  205.75   18.08
   6   6   5  211.03   16.51
   6   6   5  167.03   17.93
  -6   6  -5  204.93   15.76
  -6   6  -5  185.16   15.66
   6   6   5  205.50   15.66
   8  -6   5   60.26    6.00
   8   6   5   64.86    5.40
  -8   6  -5   63.05    5.19
   8   6   5   58.93    5.90
  -8   6  -5   63.28    5.08
   8   6   5   65.73    5.12
   8   6   5   61.17    5.07
  10  -6   5  195.71   19.81
 -10  -6  -5  222.56   17.29
  10   6   5  217.85   17.21
 -10   6  -5  221.11   17.32
  10   6   5  212.48   18.14
 -10   6  -5  222.46   17.22
  12  -6   5   79.47    7.78
 -12  -6  -5   78.93    6.72
 -12   6  -5   81.17    6.76
 -12   6  -5   83.98    6.63
  12   6   5   89.80    7.75
  12   6   5   75.93    6.62
  12   6   5   87.20    7.06
 -14  -6  -5  221.91   17.19
  14  -6   5  212.78   19.73
  14   6   5  194.92   19.63
  14   6   5  217.58   18.02
 -14   6  -5  222.66   17.22
  16  -6   5  173.36   15.20
  16   6   5  159.65   15.10
 -16   6  -5  158.43   13.21
  18  -6   5   78.31    7.49
 -18  -6  -5   78.13    6.77
  18   6   5   73.67    7.41
 -18   6  -5   82.27    6.49
  20  -6   5   63.72    6.46
 -20  -6  -5   75.07    5.87
  20   6   5   61.98    6.40
 -20   6  -5   65.07    5.59
 -22  -6  -5  134.88   10.89
  22  -6   5  150.31   12.00
  22   6   5  123.64   11.88
 -22   6  -5  104.64   10.33
  24  -6   5   73.81    7.04
 -24  -6  -5   76.34    6.37
 -24   6  -5   70.55    6.05
  24   6   5   68.99    6.95
  26  -6   5   17.71    2.20
 -26  -6  -5   20.55    1.94
  26   6   5   13.36    2.16
 -26   6  -5   22.27    1.90
 -28  -6  -5   68.96    6.34
  28  -6   5   89.59    7.11
  28   6   5   68.11    6.95
 -28   6  -5   66.04    6.02
  30  -6   5   10.26    1.65
 -30  -6  -5    9.78    1.33
 -30   6  -5   10.05    1.29
  30   6   5   10.04    1.56
 -31  -7   5    5.11    0.93
  31   7  -5    4.18    0.96
 -29  -7   5    1.99    0.60
  29  -7  -5    0.76    0.57
  29   7  -5    0.69    0.46
  29   7  -5    1.28    0.61
  27  -7  -5    8.14    1.19
 -27  -7   5    4.87    1.03
  27   7  -5    9.21    1.10
  27   7  -5    8.61    1.30
 -27   7   5    9.52    1.12
 -25  -7   5   -0.21    0.40
  25  -7  -5    0.55    0.50
 -25   7   5   -0.04    0.34
  25   7  -5    0.23    0.38
  25   7  -5    0.51    0.51
 -23  -7   5   -0.05    0.36
  23  -7  -5    0.95    0.49
 -23   7   5    0.17    0.35
  23   7  -5    0.54    0.39
  23   7  -5    0.42    0.42
 -21  -7   5    0.57    0.44
  21  -7  -5    1.08    0.46
 -21   7   5    0.64    0.37
  21   7  -5    0.50    0.39
  21   7  -5    0.62    0.43
 -19  -7   5    0.70    0.44
  19  -7  -5    0.92    0.43
 -19   7   5    0.92    0.38
  19   7  -5    1.38    0.52
  19   7  -5    0.89    0.40
 -17  -7   5    5.73    0.84
  17  -7  -5    5.02    0.78
  17   7  -5    4.86    0.72
 -17   7   5    5.03    0.69
  17   7  -5    3.06    0.75
 -15  -7   5    0.23    0.33
  15  -7  -5    0.33    0.32
  15   7  -5    0.15    0.30
 -15   7   5    0.66    0.35
  15   7  -5    0.44    0.40
  13  -7  -5    7.60    0.91
 -13  -7   5    7.66    0.99
  13   7  -5    7.47    1.05
  13   7  -5    7.35    0.89
 -13   7   5    6.17    0.84
 -11  -7   5    9.26    1.08
 -11  -7   5   10.38    1.29
  11  -7  -5    7.77    0.98
 -11   7   5    7.74    0.95
  11   7  -5    8.03    0.97
 -11   7   5    8.78    1.02
  -9  -7   5    9.46    1.15
  -9  -7   5    5.72    0.81
   9  -7  -5    4.04    0.73
  -9   7   5    7.87    0.84
  -9   7   5    7.93    0.83
   9   7  -5    5.40    0.74
   7  -7  -5    2.16    0.49
  -7  -7   5    2.06    0.43
   7  -7  -5    1.01    0.35
  -7  -7   5    1.52    0.55
   7   7  -5    1.55    0.39
  -7   7   5    1.98    0.42
  -7   7   5    2.14    0.40
   7   7  -5    1.38    0.33
  -5  -7   5    9.35    0.92
   5  -7  -5    9.63    1.04
  -5  -7   5    9.20    1.22
   5  -7  -5    8.51    0.88
  -5   7   5    8.90    0.91
   5   7  -5    8.00    0.88
  -5   7   5    7.03    0.86
   5   7  -5    8.57    0.89
  -3  -7   5   31.12    3.32
   3  -7  -5   32.09    2.79
  -3  -7   5   30.80    2.90
   3  -7  -5   33.65    3.23
  -3   7   5   34.76    2.91
   3   7  -5   31.77    2.80
   3   7  -5   37.56    2.82
  -3   7   5   33.16    2.81
  -1  -7   5   16.06    1.98
   1  -7  -5   20.92    1.90
   1   7  -5   18.54    1.67
  -1   7   5   17.99    1.64
   1   7  -5   17.73    1.62
  -1   7   5   18.04    1.68
  -1   7   5   18.74    1.61
  -1  -7  -5    8.74    1.10
   1  -7   5    9.34    1.34
  -1   7  -5    8.63    0.95
   1   7   5   10.86    0.97
  -1   7  -5    9.94    1.04
   1   7   5   10.07    0.99
   1   7   5    9.59    0.94
   3  -7   5   21.89    2.56
  -3   7  -5   22.87    2.10
   3   7   5   27.04    2.10
   3   7   5   22.75    2.21
   3   7   5   25.27    2.13
   3   7   5   26.41    2.46
  -3   7  -5   25.22    2.18
   5  -7   5    0.55    0.43
   5   7   5    0.22    0.23
  -5   7  -5    0.45    0.32
   5   7   5    0.29    0.33
   5   7   5    0.47    0.28
   5   7   5    0.26    0.26
  -5   7  -5    0.05    0.23
   7  -7   5    6.35    1.11
  -7   7  -5    6.31    0.75
   7   7   5    7.63    0.83
  -7   7  -5    8.02    0.92
   7   7   5    7.22    0.77
   7   7   5    5.68    0.81
   7   7   5    7.44    1.01
   9  -7   5    0.45    0.51
   9   7   5    0.35    0.38
   9   7   5    0.02    0.21
   9   7   5    0.46    0.29
   9   7   5    0.18    0.25
  -9   7  -5   -0.15    0.32
  -9   7  -5   -0.11    0.22
 -11  -7  -5    5.18    0.68
  11  -7   5    4.67    0.93
  11   7   5    3.78    0.52
  11   7   5    2.23    0.67
 -11   7  -5    3.24    0.51
 -11   7  -5    2.93    0.61
  11   7   5    3.54    0.60
 -13  -7  -5    0.89    0.41
  13  -7   5    0.37    0.46
  13   7   5    1.05    0.51
  13   7   5    0.46    0.33
  13   7   5    0.40    0.29
 -13   7  -5    0.97    0.41
  15  -7   5    3.21    0.86
 -15   7  -5    3.38    0.66
  15   7   5    3.48    0.74
 -17  -7  -5    3.68    0.66
  17  -7   5    2.61    0.82
  17   7   5    3.32    0.78
 -17   7  -5    3.09    0.65
  19  -7   5   -0.08    0.48
 -19  -7  -5    0.17    0.35
 -19   7  -5    0.18    0.39
  19   7   5    0.17    0.41
 -21  -7  -5    0.11    0.40
  21  -7   5    0.55    0.61
 -21   7  -5   -0.15    0.36
  21   7   5   -0.02    0.42
  23  -7   5    1.51    0.69
 -23  -7  -5    2.15    0.60
 -23   7  -5    3.07    0.66
  23   7   5    2.72    0.71
 -25  -7  -5    0.88    0.48
  25  -7   5    1.10    0.70
 -25   7  -5    1.63    0.55
  25   7   5    0.81    0.61
 -27  -7  -5    1.63    0.56
  27  -7   5    1.30    0.67
  27   7   5    2.54    0.80
 -27   7  -5    2.44    0.65
 -29  -7  -5    2.60    0.67
  29  -7   5    1.91    0.78
  29   7   5    2.31    0.76
 -29   7  -5    1.89    0.61
 -30  -8   5   54.52    4.90
  30   8  -5   53.22    5.28
 -28  -8   5    4.02    0.89
  28  -8  -5    5.19    0.98
  28   8  -5    6.20    1.07
  28   8  -5    6.72    0.91
 -28   8   5    5.56    0.87
 -26  -8   5   49.74    4.55
  26  -8  -5   48.85    4.38
  26   8  -5   46.47    4.89
 -26   8   5   47.94    4.26
  26   8  -5   57.41    4.28
 -24  -8   5    0.98    0.51
  24  -8  -5    0.40    0.47
  24   8  -5    1.12    0.44
 -24   8   5    0.67    0.41
  24   8  -5    1.07    0.57
  22  -8  -5   74.05    6.59
 -22  -8   5   80.90    6.94
  22   8  -5   82.74    7.52
  22   8  -5   77.70    6.52
 -22   8   5   80.12    6.52
  20  -8  -5    3.71    0.72
 -20  -8   5    3.26    0.73
  20   8  -5    3.01    0.75
  20   8  -5    3.14    0.62
 -20   8   5    4.29    0.66
  18  -8  -5  107.80    8.43
 -18  -8   5  101.54    8.84
  18   8  -5   96.69    8.34
 -18   8   5  107.37    8.37
  18   8  -5   99.84    9.56
 -16  -8   5    1.95    0.55
  16  -8  -5    1.84    0.49
  16   8  -5    1.82    0.47
  16   8  -5    1.21    0.47
 -16   8   5    2.24    0.49
 -14  -8   5  149.93   14.12
 -14  -8   5  152.48   12.97
  14  -8  -5  146.60   12.33
 -14   8   5  150.52   12.30
  14   8  -5  163.36   12.32
 -12  -8   5    8.38    1.17
  12  -8  -5    6.55    0.89
 -12  -8   5    8.64    1.03
 -12   8   5    8.05    0.91
  12   8  -5    5.31    0.82
  10  -8  -5  177.94   13.67
 -10  -8   5  175.21   14.33
 -10  -8   5  172.99   15.66
  10   8  -5  141.22   13.60
 -10   8   5  183.21   13.64
   8  -8  -5    0.59    0.30
  -8  -8   5    0.38    0.44
  -8  -8   5    0.43    0.32
  -8   8   5    0.81    0.34
   8   8  -5    0.57    0.31
   6  -8  -5  215.95   17.00
   6  -8  -5  205.16   19.41
   6   8  -5  214.42   16.99
   6   8  -5  213.43   16.95
  -6   8   5  211.65   16.99
   4  -8  -5    6.73    0.93
  -4  -8   5    6.03    1.01
   4  -8  -5    4.70    0.68
   4   8  -5    5.99    0.73
   4   8  -5    5.74    0.73
  -4   8   5    6.78    0.78
  -4   8   5    5.30    0.69
   2  -8  -5  131.35   11.32
   2   8  -5  118.30    9.87
  -2   8   5  105.99   10.31
  -2   8   5  121.27    9.86
   2   8  -5  136.71    9.87
   0  -8  -5   34.87    3.40
   0  -8   5   33.57    3.50
   0   8  -5   33.04    2.93
   0   8   5   33.62    3.05
   0   8   5   37.76    2.92
   0   8  -5   34.03    2.97
   0   8   5   36.06    2.93
   2  -8   5  116.58   11.55
  -2  -8  -5  126.88   11.47
   2   8   5  105.72    9.96
  -2   8  -5  123.74   10.03
  -2   8  -5  132.32   10.01
   2   8   5  131.15   10.49
   2   8   5  132.42   10.01
   4  -8   5   13.59    1.89
   4   8   5   15.52    1.67
   4   8   5   15.37    1.41
  -4   8  -5   11.96    1.38
   4   8   5   17.96    1.41
  -4   8  -5   17.05    1.51
   4   8   5   15.76    1.48
   6  -8   5   98.36    9.42
   6   8   5   96.52    8.06
   6   8   5  110.69    8.52
  -6   8  -5  113.20    8.10
   6   8   5   94.10    9.28
  -6   8  -5   96.39    8.14
   6   8   5   89.92    8.08
   8  -8   5   20.84    2.37
   8   8   5   24.11    1.90
   8   8   5   24.16    1.94
  -8   8  -5   21.82    2.02
   8   8   5   16.46    2.24
  -8   8  -5   25.66    1.93
   8   8   5   18.85    2.01
  10  -8   5   66.00    6.32
 -10   8  -5   65.27    5.44
  10   8   5   63.74    6.21
 -10   8  -5   62.58    5.33
  10   8   5   64.05    5.66
  10   8   5   61.53    5.32
  10   8   5   74.43    5.37
 -12  -8  -5   80.49    6.00
  12  -8   5   63.95    6.92
 -12   8  -5   77.00    5.91
 -12   8  -5   82.95    6.05
  12   8   5   63.57    6.23
  12   8   5   67.82    5.89
  14  -8   5   28.51    3.31
 -14  -8  -5   32.37    2.95
 -14   8  -5   34.47    2.89
  14   8   5   33.59    3.33
  16  -8   5   48.08    4.93
 -16  -8  -5   48.18    4.40
 -16   8  -5   49.78    4.22
  16   8   5   51.55    4.87
 -18  -8  -5   54.77    5.10
  18  -8   5   68.71    5.79
 -18   8  -5   51.32    4.86
  18   8   5   60.53    5.64
  20  -8   5   37.14    4.26
 -20  -8  -5   44.80    3.84
  20   8   5   43.08    4.25
 -20   8  -5   42.73    3.67
  22  -8   5   19.89    2.28
 -22  -8  -5   19.63    1.93
  22   8   5   13.89    2.17
 -22   8  -5   21.19    1.88
 -24  -8  -5   55.97    4.68
 -24   8  -5   52.37    4.44
  24   8   5   46.47    5.09
 -26  -8  -5   17.66    1.73
  26  -8   5   13.49    2.08
  26   8   5   14.40    1.98
 -26   8  -5   15.44    1.63
 -28  -8  -5   39.32    3.67
  28  -8   5   37.80    4.10
  28   8   5   41.82    4.08
 -28   8  -5   39.00    3.48
  29  -9  -5   38.47    3.46
  29   9  -5   37.17    3.83
 -29   9   5   37.87    3.31
  29   9  -5   37.15    3.31
  27  -9  -5   47.61    4.51
 -27  -9   5   47.00    4.68
 -27   9   5   52.99    4.42
  27   9  -5   53.32    4.39
  27   9  -5   57.35    5.11
  25  -9  -5   54.39    4.24
 -25  -9   5   47.03    4.38
  25   9  -5   45.03    4.05
 -25   9   5   48.58    4.08
  25   9  -5   45.42    4.69
  23  -9  -5   95.93    7.75
 -23  -9   5   73.35    8.05
  23   9  -5   87.63    8.74
  23   9  -5  111.01    7.67
 -23   9   5   97.93    7.66
  21  -9  -5   92.33    7.59
 -21   9   5   91.65    7.51
  21   9  -5   91.14    7.48
  21   9  -5   90.22    8.60
 -19  -9   5  142.19   12.45
  19  -9  -5  154.00   11.87
  19   9  -5  137.90   11.76
  19   9  -5  144.09   13.48
 -19   9   5  150.90   11.80
 -17  -9   5  107.51    9.27
  17  -9  -5  105.91    8.79
  17   9  -5  104.22    8.73
 -17   9   5  112.39    8.77
  15  -9  -5  130.72   10.59
 -15  -9   5  132.76   11.16
 -15  -9   5  128.14   12.13
  15   9  -5  127.92   10.55
 -15   9   5  131.97   10.56
 -13  -9   5  198.99   18.44
  13  -9  -5  208.70   16.13
 -13  -9   5  206.04   16.95
  13   9  -5  190.43   16.07
 -13   9   5  197.93   16.07
  11  -9  -5   93.80    7.54
 -11  -9   5   88.18    8.67
  11   9  -5   86.61    7.50
 -11   9   5   99.04    7.52
  -9  -9   5  223.55   20.05
  -9   9   5  221.44   17.47
   9   9  -5  209.33   17.45
   7  -9  -5   91.47    6.92
  -7  -9   5   79.76    7.99
   7   9  -5   94.12    6.92
  -7   9   5   72.83    6.88
  -5  -9   5  241.66   21.36
   5   9  -5  250.30   18.58
  -5   9   5  205.90   18.57
  -3  -9   5   60.66    5.69
   3  -9  -5   54.93    5.59
   3   9  -5   56.17    4.85
  -3   9   5   57.22    4.84
   3   9  -5   64.31    4.85
  -1  -9   5  282.95   28.60
   1  -9  -5  342.26   28.56
  -1   9   5  267.09   24.94
   1   9  -5  338.59   24.98
  -1   9   5  304.86   24.93
   1   9  -5  341.27   24.97
  -1  -9  -5   11.88    1.42
   1  -9   5   12.66    1.71
   1   9   5   13.31    1.19
  -1   9  -5   10.82    1.24
   1   9   5   12.85    1.23
  -1   9  -5   12.43    1.20
   1   9   5   12.07    1.21
   3  -9   5  126.21   11.89
  -3  -9  -5  129.26   11.80
  -3   9  -5  126.17   10.26
   3   9   5  121.12   10.77
   3   9   5  129.35   10.29
  -3   9  -5  133.18   10.34
   3   9   5  127.09   10.26
   5   9   5   59.98    4.84
   5   9   5   54.02    4.80
   5   9   5   67.91    5.63
  -5   9  -5   55.30    4.88
   5   9   5   59.30    5.08
  -5   9  -5   57.30    4.82
   7  -9   5  236.39   20.81
  -7   9  -5  219.83   18.08
   7   9   5  213.00   18.01
   7   9   5  236.09   18.97
   7   9   5  222.80   18.03
  -7   9  -5  226.55   18.02
   9  -9   5    0.64    0.57
   9   9   5    0.55    0.48
   9   9   5    0.56    0.32
  -9   9  -5    0.62    0.32
   9   9   5    0.83    0.31
   9   9   5    0.24    0.31
  -9   9  -5    0.85    0.40
  11  -9   5  232.88   21.05
 -11   9  -5  241.84   18.35
  11   9   5  233.56   18.27
  11   9   5  239.07   18.25
  11   9   5  199.04   20.91
 -11   9  -5  222.66   18.26
  13  -9   5    0.72    0.62
 -13  -9  -5    0.91    0.39
  13   9   5    1.50    0.61
  13   9   5    1.37    0.38
 -13   9  -5    1.10    0.45
 -13   9  -5    1.26    0.37
  15  -9   5  229.10   22.76
 -15  -9  -5  259.02   20.87
  15   9   5  248.59   22.73
 -15   9  -5  251.88   19.87
 -17  -9  -5    9.45    1.22
  17  -9   5   12.64    1.68
  17   9   5   10.43    1.47
 -17   9  -5    7.38    1.13
 -19  -9  -5  162.43   13.51
  19   9   5  140.57   14.73
 -19   9  -5  173.28   12.91
  21  -9   5    2.23    0.78
 -21  -9  -5    1.46    0.55
  21   9   5    2.73    0.83
 -21   9  -5    1.89    0.54
 -23  -9  -5  134.50    9.70
  23  -9   5  108.78   10.60
 -23   9  -5  110.04    9.16
  23   9   5   94.20   10.48
  25  -9   5    8.87    1.51
 -25  -9  -5    9.04    1.29
  25   9   5   11.01    1.62
 -25   9  -5   11.50    1.29
 -27  -9  -5  113.83    9.39
  27  -9   5  104.30   10.31
 -27   9  -5  108.92    8.89
  27   9   5  104.76   10.24
  28 -10  -5    3.50    0.82
 -28 -10   5    3.40    0.81
  28  10  -5    5.13    0.78
  28  10  -5    2.81    0.85
 -28  10   5    2.95    0.65
  26 -10  -5   38.05    3.51
 -26 -10   5   40.48    3.68
  26  10  -5   39.69    3.39
 -26  10   5   38.16    3.39
  26  10  -5   38.17    3.92
 -24 -10   5    1.75    0.62
  24 -10  -5    1.09    0.55
 -24  10   5    2.65    0.59
  24  10  -5    2.41    0.58
  24  10  -5    1.14    0.55
 -22 -10   5   89.53    7.82
  22 -10  -5   89.49    7.44
  22  10  -5   90.99    7.36
 -22  10   5   87.42    7.35
 -20 -10   5    0.10    0.49
 -20 -10   5    0.04    0.47
  20 -10  -5    0.48    0.43
 -20  10   5    0.95    0.42
  20  10  -5    0.60    0.41
  18 -10  -5   76.35    6.83
 -18 -10   5   85.76    7.89
  18  10  -5   83.20    6.81
 -18  10   5   86.09    6.83
 -16 -10   5    0.26    0.46
  16 -10  -5    0.92    0.42
  16  10  -5    0.44    0.37
 -16  10   5    0.26    0.35
  14 -10  -5   91.32    7.42
 -14 -10   5   91.31    8.54
 -14  10   5   84.55    7.38
  14  10  -5   93.42    7.38
 -12 -10   5   -0.19    0.43
  12 -10  -5    0.22    0.33
 -12  10   5    0.21    0.32
  12  10  -5    0.20    0.33
  10 -10  -5   98.79    7.79
 -10 -10   5   94.93    9.02
  10  10  -5   92.11    7.76
   8 -10  -5    3.73    0.64
  -8 -10   5    4.91    0.94
   8  10  -5    3.68    0.61
  -8  10   5    5.18    0.72
   6 -10  -5   56.17    5.02
  -6 -10   5   65.71    5.92
   6  10  -5   66.59    5.03
  -6  10   5   55.89    5.02
   4 -10  -5    5.84    0.76
  -4 -10   5    2.89    0.86
  -4  10   5    6.48    0.79
   4  10  -5    6.22    0.76
   2 -10  -5  182.95   16.73
   2  10  -5  156.27   14.55
  -2  10   5  172.18   14.55
  -2  10   5  188.85   14.53
   2  10  -5  206.04   14.57
   0 -10   5   55.25    5.12
   0 -10  -5   41.28    4.91
   0  10  -5   52.23    4.26
   0  10   5   60.86    4.27
   0  10  -5   47.94    4.29
   0  10   5   50.06    4.26
   2 -10   5  113.30   10.35
  -2 -10  -5   95.80   10.20
   2  10   5  115.75    8.87
  -2  10  -5  111.85    8.92
   2  10   5  109.72    8.89
  -2  10  -5  110.34    8.86
   4 -10   5   22.04    2.66
  -4 -10  -5   23.56    2.57
  -4  10  -5   24.07    2.18
   4  10   5   27.86    2.18
  -4  10  -5   23.84    2.24
   4  10   5   25.90    2.22
   6 -10   5  122.42    9.96
  -6 -10  -5  109.07    9.80
   6  10   5  102.95    8.48
  -6  10  -5  101.31    8.53
  -6  10  -5   94.21    8.45
   6  10   5  103.84    8.46
   8 -10   5   23.70    2.73
  -8  10  -5   25.93    2.19
   8  10   5   23.64    2.18
   8  10   5   23.39    2.20
   8  10   5   26.21    2.33
   8  10   5   24.62    2.63
  -8  10  -5   26.54    2.30
  10 -10   5   44.74    4.31
 -10 -10  -5   46.06    3.78
  10  10   5   43.04    4.16
  10  10   5   36.43    3.50
 -10  10  -5   42.43    3.54
 -10  10  -5   42.09    3.63
 -12 -10  -5   60.79    5.00
  12 -10   5   59.67    5.59
  12  10   5   56.54    5.48
 -12  10  -5   60.72    4.80
 -12  10  -5   47.89    4.66
  12  10   5   56.81    4.68
 -14 -10  -5   35.49    3.19
 -14  10  -5   31.43    3.05
  14  10   5   37.42    3.57
 -16 -10  -5   25.86    2.62
  16 -10   5   35.70    3.12
 -16  10  -5   25.15    2.51
  16  10   5   26.79    2.91
 -18 -10  -5   26.53    2.37
  18 -10   5   25.40    2.68
  18  10   5   20.13    2.52
 -18  10  -5   23.09    2.22
  20 -10   5   20.61    2.90
 -20 -10  -5   29.96    2.65
 -20  10  -5   27.24    2.49
  20  10   5   29.76    2.93
  22 -10   5    8.57    1.59
 -22 -10  -5   11.84    1.44
 -22  10  -5   11.69    1.39
  22  10   5   12.37    1.64
  24 -10   5   43.73    3.69
 -24 -10  -5   32.92    3.16
 -24  10  -5   27.85    2.96
  24  10   5   33.23    3.49
 -26 -10  -5   15.95    1.85
  26 -10   5   19.30    2.43
  26  10   5   17.00    2.07
 -26  10  -5   17.57    1.77
  25 -11  -5    3.92    0.81
 -25 -11   5    3.14    0.85
 -25  11   5    2.13    0.61
  25  11  -5    4.09    0.70
 -23 -11   5    4.29    0.90
  23 -11  -5    4.30    0.85
 -23  11   5    3.47    0.70
  23  11  -5    4.61    0.74
  21 -11  -5   -0.54    0.37
 -21 -11   5    1.21    0.55
 -21  11   5   -0.29    0.35
  21  11  -5    0.99    0.43
 -19 -11   5    9.04    1.44
  19 -11  -5    8.61    1.21
 -19  11   5    9.94    1.18
  19  11  -5   11.57    1.22
  17 -11  -5    0.89    0.47
 -17 -11   5    1.10    0.60
 -17  11   5    2.41    0.56
  17  11  -5    1.30    0.45
 -15 -11   5    7.36    1.24
  15 -11  -5    7.28    0.95
 -15  11   5    4.26    0.79
  15  11  -5    7.29    0.88
  13 -11  -5    1.90    0.52
 -13 -11   5    1.29    0.65
  13  11  -5    1.65    0.45
 -13  11   5    1.45    0.47
 -11 -11   5    3.99    0.91
  11 -11  -5    5.65    0.79
  11  11  -5    4.13    0.71
 -11  11   5    4.61    0.73
  -9 -11   5   18.25    2.18
   9 -11  -5   23.33    1.85
   9  11  -5   18.65    1.77
  -9  11   5   16.98    1.79
   7 -11  -5    2.62    0.51
  -7 -11   5    1.40    0.60
   7  11  -5    2.80    0.54
  -7  11   5    1.22    0.44
   5 -11  -5   20.95    1.65
  -5 -11   5   16.20    2.21
  -5  11   5   15.91    1.64
   5  11  -5   15.85    1.62
  -3 -11   5    0.57    0.53
  -3  11   5    1.60    0.44
   3  11  -5    1.12    0.40
  -1 -11   5   18.66    1.98
   1  11  -5   19.25    1.64
  -1  11   5   16.79    1.57
   1  11  -5   12.57    1.49
  -1  11   5   16.79    1.53
   1 -11   5    1.13    0.61
  -1 -11  -5    0.25    0.40
   1  11   5    0.66    0.33
  -1  11  -5    0.98    0.44
  -1  11  -5    1.07    0.39
   1  11   5    0.89    0.37
   3 -11   5    5.79    1.16
  -3 -11  -5    7.87    1.24
   3  11   5    7.57    0.94
  -3  11  -5    6.76    0.87
  -3  11  -5    6.96    0.96
   3  11   5    6.50    0.85
   5 -11   5    1.27    0.71
  -5 -11  -5    1.92    0.65
  -5  11  -5    2.50    0.56
   5  11   5    2.70    0.53
  -5  11  -5    2.57    0.51
   5  11   5    2.55    0.49
  -7 -11  -5    7.00    1.20
   7 -11   5    5.46    1.24
  -7  11  -5    7.51    1.00
  -7  11  -5    7.56    0.90
   7  11   5    8.35    0.92
   7  11   5    7.77    0.97
   9 -11   5    0.32    0.50
  -9  11  -5    0.11    0.33
   9  11   5    0.35    0.33
  -9  11  -5    0.91    0.43
  11 -11   5    6.35    1.18
  11  11   5    4.95    0.71
 -11  11  -5    5.67    0.83
  11  11   5    3.92    0.94
 -11  11  -5    3.92    0.69
  13 -11   5    0.87    0.65
 -13  11  -5    0.38    0.42
  13  11   5    0.22    0.33
  13  11   5    0.36    0.56
 -15 -11  -5    7.17    1.05
  15 -11   5    6.65    1.29
 -15  11  -5    6.58    0.96
  15  11   5    6.08    1.17
 -17 -11  -5    0.53    0.44
  17 -11   5    0.38    0.60
 -17  11  -5    0.31    0.41
  17  11   5    0.04    0.50
  19 -11   5   10.71    1.66
 -19 -11  -5   12.12    1.48
 -19  11  -5   11.89    1.40
  19  11   5   11.41    1.69
 -21 -11  -5    0.29    0.44
  21 -11   5   -0.47    0.57
  21  11   5    0.74    0.59
 -21  11  -5    0.07    0.42
 -23 -11  -5    9.97    1.24
  23 -11   5    7.83    1.43
 -23  11  -5    6.61    1.03
  23  11   5    6.11    1.27
 -24 -12   5    0.03    0.48
  24 -12  -5   -0.07    0.44
 -24  12   5    0.75    0.44
  24  12  -5    0.58    0.42
  22 -12  -5   76.60    6.32
 -22 -12   5   64.18    7.15
  22  12  -5   80.49    6.22
 -22  12   5   77.86    6.24
 -20 -12   5    0.93    0.58
  20 -12  -5    0.65    0.45
  20  12  -5    1.20    0.46
 -20  12   5    1.29    0.48
  18 -12  -5  118.38    9.85
 -18 -12   5  130.84   11.37
 -18  12   5  123.81    9.80
  18  12  -5  110.16    9.76
  16 -12  -5    0.23    0.39
 -16 -12   5    0.13    0.43
  16  12  -5   -0.04    0.34
 -16  12   5    0.03    0.35
 -14 -12   5  113.75   10.78
  14 -12  -5  112.05    9.33
 -14  12   5  117.02    9.32
  14  12  -5  113.48    9.28
 -12 -12   5   -0.19    0.46
  12 -12  -5    0.97    0.41
 -12  12   5    0.03    0.38
  12  12  -5    0.64    0.37
 -10 -12   5  214.51   16.95
  10 -12  -5  212.23   14.72
  10  12  -5  158.96   14.63
 -10  12   5  152.33   14.64
  -8 -12   5    8.36    1.38
   8 -12  -5    8.22    1.00
   8  12  -5    7.03    0.97
  -8  12   5    9.54    1.08
  -6 -12   5  167.12   15.00
   6 -12  -5  164.51   12.98
   6  12  -5  159.70   12.95
  -6  12   5  152.35   12.95
   4 -12  -5    9.01    1.08
  -4 -12   5    6.31    1.37
  -4  12   5    9.17    1.12
   4  12  -5   11.65    1.06
  -2 -12   5  147.96   13.33
  -2  12   5  143.97   11.53
   2  12  -5  136.39   11.49
   0 -12   5   31.91    3.49
   0  12   5   32.15    2.88
   0  12  -5   35.57    2.87
   0  12   5   33.12    2.85
   0  12  -5   32.24    2.94
   2 -12   5  128.93   13.56
  -2  12  -5  139.43   11.79
   2  12   5  147.68   11.72
   2  12   5  167.51   11.78
  -2  12  -5  141.47   11.73
  -4 -12  -5   34.92    3.76
   4 -12   5   37.30    3.84
  -4  12  -5   36.73    3.12
   4  12   5   38.08    3.17
  -4  12  -5   35.03    3.17
  -6 -12  -5  116.38   11.43
   6 -12   5  125.30   11.53
  -6  12  -5  130.47    9.97
   6  12   5  103.51    9.84
   6  12   5  137.60    9.93
  -6  12  -5  121.37    9.87
   8 -12   5   54.65    5.51
  -8 -12  -5   47.53    5.36
  -8  12  -5   55.50    4.67
   8  12   5   61.02    4.59
  -8  12  -5   54.77    4.59
 -10 -12  -5  100.94    9.87
  10  12   5   98.60    8.51
 -10  12  -5  101.52    8.59
 -10  12  -5  117.58    8.56
  12 -12   5   40.17    5.06
 -12  12  -5   53.00    4.41
  12  12   5   62.71    4.36
 -12  12  -5   48.86    4.32
  14 -12   5   37.94    4.21
 -14  12  -5   44.72    3.60
  14  12   5   39.52    4.11
  16 -12   5   31.33    3.77
  16  12   5   42.81    3.82
 -16  12  -5   35.73    3.24
  18 -12   5   44.30    4.77
  18  12   5   44.55    4.68
 -18  12  -5   51.07    4.08
  20 -12   5   25.28    3.33
  20  12   5   32.33    3.34
 -20  12  -5   35.53    2.85
 -22  12  -5   30.37    2.79
  22  12   5   27.58    3.10
 -21 -13   5   64.09    6.21
  21 -13  -5   60.27    5.38
 -21  13   5   66.06    5.34
  21  13  -5   62.55    5.29
 -19 -13   5   53.48    4.84
  19 -13  -5   44.65    4.12
 -19  13   5   46.55    4.09
  19  13  -5   48.05    4.08
  17 -13  -5   63.25    5.08
 -17 -13   5   51.89    5.83
 -17  13   5   60.33    5.04
  17  13  -5   62.70    5.02
  15 -13  -5   35.22    3.02
 -15 -13   5   32.91    3.56
 -15  13   5   33.69    3.00
  15  13  -5   33.37    2.95
  13 -13  -5   73.37    6.72
 -13 -13   5   74.27    7.77
  13  13  -5   79.99    6.69
 -13  13   5   97.88    6.77
 -11 -13   5   25.89    2.87
  11 -13  -5   26.28    2.37
 -11  13   5   26.89    2.36
  11  13  -5   24.74    2.33
  -9 -13   5   99.68    9.32
  -9  13   5   95.95    7.97
   9  13  -5   96.48    7.94
   7 -13  -5   26.89    2.41
  -7 -13   5   25.06    2.91
   7  13  -5   28.88    2.38
  -7  13   5   25.46    2.40
  -5 -13   5  114.05    9.78
   5 -13  -5   96.09    8.34
   5  13  -5   82.57    8.28
  -5  13   5  123.72    8.41
  -3 -13   5   33.62    3.23
   3 -13  -5   29.02    2.60
   3  13  -5   28.38    2.60
  -3  13   5   28.37    2.64
  -1 -13   5  108.71   10.60
  -1  13   5  114.07    9.10
   1 -13   5   31.97    3.36
   1  13   5   31.39    2.75
   1  13   5   30.80    2.68
  -1  13  -5   29.99    2.69
   3 -13   5  115.37   10.61
  -3  13  -5  117.18    9.16
   3  13   5  112.14    9.11
  -3  13  -5   95.63    9.04
   3  13   5  119.75    9.05
   5 -13   5   15.32    2.01
  -5  13  -5   13.82    1.34
   5  13   5   11.11    1.36
  -5  13  -5   13.54    1.52
   7 -13   5  115.89   11.23
   7  13   5  129.11    9.64
  -7  13  -5  118.59    9.70
  -7  13  -5  110.38    9.61
   9 -13   5    4.76    1.10
  -9 -13  -5    2.21    0.87
  -9  13  -5    5.52    0.76
   9  13   5    4.83    0.70
  -9  13  -5    4.33    0.79
  11 -13   5  111.36   10.68
 -11 -13  -5  134.10   10.68
 -11  13  -5  109.22    9.13
 -11  13  -5   93.57    9.16
  11  13   5  118.64    9.14
  13 -13   5    0.96    0.76
 -13 -13  -5    2.68    0.77
 -13  13  -5    2.50    0.60
 -15 -13  -5   90.56    9.31
  15 -13   5  119.72    9.57
 -15  13  -5   91.16    8.08
  17 -13   5    0.21    0.54
 -17  13  -5    0.20    0.41
  19 -13   5   62.07    6.39
  19  13   5   58.80    6.29
 -19  13  -5   73.75    5.52
  18 -14  -5   10.37    1.54
 -18 -14   5   14.27    1.94
  18  14  -5   13.55    1.45
 -18  14   5   16.88    1.51
 -16 -14   5    4.10    1.02
  16 -14  -5    4.44    0.81
  16  14  -5    6.25    0.85
 -16  14   5    5.75    0.89
  14 -14  -5   25.44    2.30
 -14  14   5   23.36    2.23
  14  14  -5   24.43    2.23
 -12 -14   5    1.59    0.74
  12 -14  -5    1.58    0.52
  12  14  -5    0.99    0.48
 -12  14   5    1.32    0.51
  10 -14  -5   27.94    2.26
 -10 -14   5   15.41    2.68
  10  14  -5   24.05    2.17
 -10  14   5   27.09    2.27
   8 -14  -5    0.90    0.44
  -8 -14   5    1.00    0.61
  -8  14   5    0.67    0.42
   8  14  -5    1.90    0.49
  -6 -14   5   18.02    2.31
   6 -14  -5   20.00    1.89
  -6  14   5   19.27    1.91
   6  14  -5   22.04    1.91
   4 -14  -5   10.06    1.26
  -4 -14   5   10.71    1.71
   4  14  -5   11.90    1.29
  -4  14   5   12.62    1.38
  -2 -14   5    5.58    1.14
   2 -14  -5    5.45    0.80
  -2  14   5    5.07    0.79
   2  14  -5    4.81    0.78
   0 -14   5    0.99    0.67
   0  14   5    0.41    0.41
   0  14  -5    0.62    0.40
   2 -14   5   28.27    2.63
   2  14   5   21.07    2.00
   2  14   5   21.44    2.06
  -2  14  -5   20.45    2.02
   4 -14   5    1.28    0.72
   4  14   5    3.19    0.57
  -4  14  -5    2.34    0.63
  -4  14  -5    2.77    0.57
   6 -14   5    6.52    1.58
   6  14   5   12.88    1.26
  -6  14  -5   11.10    1.37
  -6  14  -5   15.22    1.30
   8 -14   5   10.50    1.68
   8  14   5   11.87    1.20
  -8  14  -5   11.08    1.23
  -8  14  -5    9.09    1.28
  10 -14   5    7.45    1.45
 -10  14  -5    6.97    0.97
 -10  14  -5    8.62    1.12
  10  14   5    8.12    1.01
  12 -14   5   12.28    1.79
  12  14   5   10.30    1.30
 -12  14  -5   14.64    1.52
  14 -14   5    3.82    1.05
 -14 -14  -5    4.02    1.00
 -14  14  -5    5.11    0.86
  16 -14   5    1.23    0.72
 -16 -14  -5    1.41    0.68
 -16  14  -5    1.76    0.58
 -13 -15   5   26.88    3.11
  13 -15  -5   29.92    2.63
  13  15  -5   28.53    2.57
 -13  15   5   28.98    2.61
 -11 -15   5    2.48    0.88
  11 -15  -5    2.56    0.60
 -11  15   5    2.54    0.61
  11  15  -5    2.57    0.56
   9 -15  -5   15.51    1.64
  -9 -15   5   15.72    2.20
  -9  15   5   17.73    1.70
   9  15  -5   16.88    1.63
   7 -15  -5    9.11    1.04
  -7 -15   5    4.24    1.19
  -7  15   5    7.42    0.97
   7  15  -5    5.89    0.86
  -5 -15   5   23.39    3.06
   5 -15  -5   29.86    2.55
   5  15  -5   30.34    2.54
  -5  15   5   27.46    2.55
  -3 -15   5    4.80    1.14
   3 -15  -5    5.64    0.82
  -3  15   5    2.81    0.69
   3  15  -5    5.96    0.80
   1 -15  -5   39.99    3.26
  -1 -15   5   36.72    3.96
  -1  15   5   34.75    3.27
   1  15  -5   37.72    3.22
   1 -15   5    1.81    0.79
  -1  15  -5    1.77    0.49
   3 -15   5   17.19    2.37
   3  15   5   17.56    1.67
  -3  15  -5   17.32    1.64
   5 -15   5    4.30    1.16
  -5  15  -5    4.79    0.78
   5  15   5    6.99    0.84
   7 -15   5   30.11    3.33
  -7  15  -5   25.60    2.63
  -7  15  -5   31.06    2.75
   7  15   5   33.64    2.66
   9 -15   5    0.91    0.71
   9  15   5    0.93    0.45
  -9  15  -5    0.89    0.50
  -9  15  -5    1.68    0.52
  11  15   5   29.57    2.69
 -11  15  -5   30.49    2.75
  -4 -16   5   11.06    1.71
   4 -16  -5    8.96    1.13
  -4  16   5    6.64    1.05
   2 -16  -5  111.74    8.27
  -2 -16   5   92.46    9.59
  -2  16   5   95.10    8.24
   0 -16   5   20.71    2.55
   0 -16  -5   17.54    1.74
   0  16  -5   17.48    1.72
   2 -16   5   73.46    7.43
  -2  16  -5   77.98    6.29
 -36   0   6   24.64    2.52
 -34   0   6   81.86    7.23
 -32   0   6   47.68    4.98
  32   0  -6   66.78    4.88
  30   0  -6   64.41    5.60
 -30   0   6   67.86    5.88
  28   0  -6  127.46   10.17
 -28   0   6  120.61   10.64
  26   0  -6  128.87    9.66
 -26   0   6  106.97   10.09
  24   0  -6  291.81   28.55
  24   0  -6  334.63   25.09
 -22   0   6  142.90   12.79
  22   0  -6  158.52   12.21
  22   0  -6  150.09   13.87
  20   0  -6  378.82   34.75
  20   0  -6  385.51   30.54
 -18   0   6  152.06   12.83
  18   0  -6  165.04   12.26
  18   0  -6  138.36   13.86
 -16   0   6  303.25   24.57
  16   0  -6  311.39   24.72
  16   0  -6  310.22   28.10
 -16   0   6  311.99   25.96
 -14   0   6  187.20   14.31
  14   0  -6  161.90   15.42
 -14   0   6  167.91   13.49
  14   0  -6  160.81   13.61
 -12   0   6  275.56   21.10
 -12   0   6  265.26   22.26
  12   0  -6  267.62   21.22
  12   0  -6  252.17   24.07
  10   0  -6  104.91    9.92
 -10   0   6  115.62    8.71
  10   0  -6  104.67    8.81
   8   0  -6  384.60   34.00
   8   0  -6  378.04   29.93
  -8   0   6  370.33   29.82
  -8   0   6  368.14   31.41
  -6   0   6    4.86    0.56
  -6   0   6    4.00    0.67
  -6   0   6    5.45    0.59
   6   0  -6    5.90    0.69
  -4   0   6  763.55   67.77
   4   0  -6  861.49   64.55
  -2   0   6   90.07    7.92
  -2   0   6   86.87    7.34
   2   0  -6   79.75    6.96
   2   0  -6   86.95    6.97
  -2   0  -6    0.38    0.24
   2   0   6    0.06    0.31
   2   0   6    0.12    0.27
  -2   0  -6    0.31    0.31
   4   0   6  794.71   65.67
  -4   0  -6  655.84   57.54
  -6   0  -6    0.79    0.35
   6   0   6    2.22    0.51
   6   0   6    0.79    0.31
   8   0   6  720.21   64.27
  -8   0  -6  709.58   56.30
   8   0   6  696.43   59.10
  10   0   6   25.46    3.23
 -10   0  -6   36.36    2.87
  10   0   6   37.03    2.95
 -12   0  -6  600.69   46.91
  12   0   6  586.13   49.22
  12   0   6  582.09   53.53
  14   0   6   44.22    4.25
 -14   0  -6   44.60    3.68
  14   0   6   41.41    3.80
  16   0   6  289.16   24.46
 -16   0  -6  247.39   21.34
  16   0   6  265.23   22.39
  18   0   6   28.52    2.99
 -18   0  -6   28.43    2.57
  18   0   6   28.69    2.62
 -20   0  -6  237.96   18.80
 -20   0  -6  229.87   19.70
 -22   0  -6   24.92    2.23
  22   0   6   22.22    2.54
 -22   0  -6   23.18    2.24
 -24   0  -6  196.57   15.68
 -24   0  -6  191.52   16.42
  26   0   6    5.38    1.13
 -26   0  -6   11.58    1.24
 -28   0  -6   87.08    7.89
  28   0   6   94.59    8.68
  30   0   6   38.89    4.01
 -30   0  -6   38.34    3.61
 -32   0  -6   38.92    3.75
  32   0   6   42.18    4.19
 -35  -1   6    1.48    0.59
 -35   1   6    2.67    0.73
 -33  -1   6   26.19    2.56
  31  -1  -6    1.73    0.62
 -31  -1   6    1.13    0.56
 -31   1   6    1.80    0.64
  31   1  -6    1.55    0.61
  29  -1  -6   76.05    6.46
 -29  -1   6   73.78    6.75
 -29   1   6   75.61    6.78
  29   1  -6   82.31    6.45
  27  -1  -6    3.38    0.73
 -27  -1   6    4.18    0.77
  27   1  -6    2.37    0.62
  27   1  -6    2.52    0.73
 -27   1   6    3.15    0.72
 -25  -1   6   61.03    5.99
  25  -1  -6   66.92    5.73
  25   1  -6   76.34    5.76
 -25   1   6   66.73    6.00
  25   1  -6   71.20    6.51
  23  -1  -6    0.98    0.50
 -23  -1   6    0.32    0.40
  23  -1  -6    0.51    0.42
  23   1  -6    0.45    0.39
  23   1  -6    0.12    0.36
 -23   1   6    0.22    0.39
 -21  -1   6  108.53    9.39
  21  -1  -6  105.27   10.14
  21  -1  -6  112.62    8.95
 -21   1   6  103.72    9.39
  21   1  -6  110.67   10.15
  21   1  -6  115.63    8.95
  19  -1  -6    3.47    0.64
  19  -1  -6    3.26    0.63
 -19  -1   6    2.65    0.59
 -19   1   6    3.05    0.63
  19   1  -6    2.38    0.58
  19   1  -6    2.44    0.58
 -19   1   6    4.00    0.51
  17  -1  -6  162.74   14.97
  17  -1  -6  177.26   13.23
 -17  -1   6  168.60   13.86
 -17   1   6  182.01   13.88
 -17   1   6  155.59   13.07
  17   1  -6  153.32   13.19
  17   1  -6  149.77   14.97
 -15  -1   6   63.45    5.08
 -15  -1   6   66.11    5.50
  15  -1  -6   63.74    5.24
  15  -1  -6   59.63    5.85
  15   1  -6   62.41    5.23
 -15   1   6   58.52    5.47
 -15   1   6   64.76    5.12
  15   1  -6   65.83    5.89
 -13  -1   6  236.51   21.02
 -13  -1   6  250.30   19.90
  13  -1  -6  245.85   20.05
  13  -1  -6  235.24   22.73
 -13   1   6  240.09   21.04
  13   1  -6  274.04   22.79
 -13   1   6  273.98   19.95
  13   1  -6  246.00   20.04
  11  -1  -6   99.92    9.56
 -11  -1   6  121.98    9.45
 -11  -1   6  121.30   10.05
  11  -1  -6  114.18   10.78
 -11   1   6  122.39   10.04
  11   1  -6  126.62    9.59
  11   1  -6  117.75   10.82
 -11   1   6  123.02    9.48
   9  -1  -6  231.79   22.40
  -9  -1   6  251.00   19.66
  -9  -1   6  241.22   20.75
   9  -1  -6  240.28   19.77
   9   1  -6  259.45   22.45
   9   1  -6  239.16   19.76
  -9   1   6  259.77   20.76
  -9   1   6  256.72   19.69
   7  -1  -6   44.45    3.88
  -7  -1   6   47.57    4.08
  -7  -1   6   44.86    4.35
  -7   1   6   49.59    3.82
   7   1  -6   46.40    3.89
  -7   1   6   47.18    4.10
   7   1  -6   48.13    3.82
  -5  -1   6  263.50   25.84
  -5  -1   6  275.67   23.84
   5  -1  -6  271.53   22.69
   5   1  -6  294.96   22.70
   5   1  -6  329.88   22.67
  -5   1   6  273.60   22.63
  -3  -1   6   22.41    1.95
   3  -1  -6   21.28    1.83
  -3  -1   6   20.49    2.06
   3   1  -6   19.52    1.81
  -3   1   6   23.35    1.95
  -3   1   6   21.09    1.79
   3   1  -6   20.59    1.82
  -1  -1   6    5.75    0.74
   1  -1  -6    5.69    0.62
  -1  -1   6    5.28    0.65
  -1   1   6    5.03    0.66
   1   1  -6    4.84    0.59
  -1   1   6    5.07    0.58
   1   1  -6    5.93    0.65
  -1   1   6    5.25    0.59
  -1  -1  -6    8.57    0.86
  -1  -1  -6    8.60    0.81
   1  -1   6    9.30    0.89
   1  -1   6    7.49    0.96
   1   1   6    7.87    0.91
   1   1   6    9.44    0.90
  -1   1  -6    8.57    0.87
  -1   1  -6    8.79    0.80
   3  -1   6   20.80    1.76
  -3  -1  -6   19.39    1.62
   3  -1   6   20.27    1.94
  -3  -1  -6   19.32    1.70
  -3   1  -6   17.95    1.60
   3   1   6   19.28    1.92
  -3   1  -6   19.68    1.72
   3   1   6   18.80    1.76
  -5  -1  -6   85.55    7.13
   5  -1   6   99.82    7.46
  -5   1  -6   86.89    7.14
   5   1   6   85.49    7.45
   5   1   6   81.71    8.11
   7  -1   6  179.74   15.74
  -7  -1  -6  167.11   13.76
   7  -1   6  169.49   14.42
   7   1   6  170.64   14.42
   9  -1   6  163.70   14.68
  -9  -1  -6  148.35   12.80
   9  -1   6  166.99   13.42
  -9   1  -6  153.58   12.82
   9   1   6  160.39   13.43
   9   1   6  163.75   14.66
 -11  -1  -6  121.55   11.31
  11  -1   6  157.70   11.88
  11  -1   6  135.33   12.97
 -11   1  -6  142.70   11.35
  11   1   6  148.34   13.00
  11   1   6  138.39   11.86
  13  -1   6   55.86    5.75
  13  -1   6   63.37    6.39
 -13  -1  -6   70.00    5.56
  13   1   6   72.61    6.41
 -13   1  -6   69.85    5.57
  13   1   6   74.10    5.80
 -15  -1  -6   95.57    7.85
  15  -1   6  101.81    9.05
  15  -1   6   98.04    8.21
  15   1   6   89.21    8.99
  15   1   6   98.60    8.20
 -15   1  -6   93.59    7.86
 -17  -1  -6   61.64    4.93
  17  -1   6   53.74    5.10
  17  -1   6   55.09    5.64
  17   1   6   64.68    5.72
  17   1   6   60.76    5.12
 -17   1  -6   58.43    4.93
  19  -1   6   14.67    2.22
 -19  -1  -6   23.31    2.01
  19   1   6   24.81    2.37
 -19   1  -6   22.08    2.00
 -19   1  -6   21.24    1.97
 -21  -1  -6   85.93    7.22
 -21  -1  -6   80.47    6.89
  21  -1   6   88.73    7.98
 -21   1  -6   81.54    7.19
  21   1   6   79.79    7.91
 -21   1  -6   84.08    6.90
  23  -1   6   23.25    2.39
 -23  -1  -6   24.39    2.06
 -23  -1  -6   21.69    2.06
 -23   1  -6   19.89    2.06
  23   1   6   18.79    2.29
 -23   1  -6   17.93    1.99
  25  -1   6   37.41    3.97
 -25  -1  -6   32.26    3.53
  25   1   6   43.51    4.01
 -25   1  -6   41.11    3.45
 -25   1  -6   42.12    3.60
 -27  -1  -6   10.74    1.33
  27  -1   6    9.96    1.56
  27   1   6   10.60    1.57
 -27   1  -6    8.67    1.28
  29  -1   6   38.95    3.86
 -29  -1  -6   39.67    3.49
 -29   1  -6   31.31    3.45
  29   1   6   40.62    3.90
 -31  -1  -6    2.03    0.62
  31  -1   6    2.38    0.81
  31   1   6    2.06    0.71
 -31   1  -6    1.42    0.59
  33  -1   6   35.36    3.70
 -33  -1  -6   33.84    3.31
  33   1   6   35.55    3.71
 -33   1  -6   36.37    3.36
 -34  -2   6   -0.04    0.44
 -34   2   6    0.41    0.50
  32  -2  -6    0.49    0.52
 -32  -2   6    0.02    0.41
  32   2  -6    0.30    0.48
 -32   2   6    0.71    0.50
  30  -2  -6    0.14    0.48
 -30  -2   6    0.49    0.47
 -30   2   6    0.53    0.46
  30   2  -6    0.55    0.48
  30   2  -6    0.12    0.44
  28  -2  -6   19.79    2.06
 -28  -2   6   20.27    2.14
  28   2  -6   22.99    2.35
 -28   2   6   19.16    2.14
  28   2  -6   22.69    2.03
  26  -2  -6    1.26    0.52
 -26  -2   6    1.13    0.52
 -26   2   6    1.01    0.51
  26   2  -6    2.33    0.59
  26   2  -6    1.41    0.58
  24  -2  -6    0.65    0.44
 -24  -2   6   -0.24    0.37
  24   2  -6    1.14    0.44
  24   2  -6    0.92    0.51
 -24   2   6    0.45    0.44
  22  -2  -6    6.67    0.93
 -22  -2   6    6.02    0.92
 -22   2   6    5.74    0.89
  22   2  -6    4.88    0.80
  22   2  -6    4.96    0.89
  20  -2  -6    0.67    0.40
 -20  -2   6    0.31    0.37
 -20   2   6    0.47    0.39
  20   2  -6    0.66    0.39
  20   2  -6    0.69    0.41
 -20   2   6    0.74    0.30
  18  -2  -6    0.05    0.35
 -18  -2   6    0.20    0.35
  18  -2  -6    0.45    0.33
 -18   2   6    0.63    0.37
  18   2  -6    0.64    0.36
 -18   2   6    0.16    0.26
  18   2  -6    0.74    0.38
  16  -2  -6   45.98    4.21
 -16  -2   6   44.17    3.97
  16  -2  -6   41.56    3.78
 -16   2   6   41.79    3.67
  16   2  -6   40.31    3.76
 -16   2   6   53.23    4.00
  16   2  -6   46.79    4.28
 -14  -2   6    3.16    0.65
  14  -2  -6    5.51    0.69
  14  -2  -6    5.58    0.76
  14   2  -6    5.41    0.72
 -14   2   6    5.54    0.77
 -14   2   6    5.22    0.63
  14   2  -6    5.85    0.77
  12  -2  -6   66.94    6.88
 -12  -2   6   74.67    6.46
  12  -2  -6   76.13    6.17
 -12   2   6   76.25    6.46
  12   2  -6   78.40    6.17
 -12   2   6   73.88    6.08
  12   2  -6   81.86    6.97
 -10  -2   6   27.67    2.58
  10  -2  -6   23.84    2.64
  10  -2  -6   27.59    2.47
  10   2  -6   34.17    2.76
 -10   2   6   27.81    2.39
 -10   2   6   36.30    2.64
  10   2  -6   27.06    2.46
  10   2  -6   28.38    2.36
  -8  -2   6    1.38    0.36
   8  -2  -6    1.07    0.35
  -8  -2   6    2.10    0.42
   8   2  -6    1.34    0.29
  -8   2   6    1.30    0.28
  -8   2   6    1.81    0.44
   8   2  -6    1.10    0.36
  -6  -2   6   34.79    3.09
  -6  -2   6   36.54    3.34
   6  -2  -6   32.83    2.94
  -6   2   6   33.08    3.10
  -6   2   6   40.41    2.90
   6   2  -6   34.75    2.90
   6   2  -6   30.22    2.93
  -4  -2   6   10.34    1.21
   4  -2  -6   11.70    1.08
  -4  -2   6   11.33    1.15
  -4   2   6    9.99    1.13
  -4   2   6   11.54    1.05
   4   2  -6    9.09    1.04
   4   2  -6   13.59    1.09
  -2  -2   6    0.07    0.30
   2  -2  -6    0.05    0.23
  -2  -2   6   -0.05    0.26
  -2   2   6   -0.06    0.22
   2   2  -6   -0.14    0.24
   2   2  -6    0.01    0.22
  -2   2   6    0.07    0.22
   0  -2  -6    0.43    0.23
   0  -2   6    0.01    0.24
   0  -2   6    0.47    0.35
   0   2  -6    0.83    0.26
   0   2   6    0.12    0.20
   0   2   6   -0.07    0.25
   0   2  -6    0.40    0.28
   0   2   6    0.20    0.22
   2  -2   6    0.29    0.30
   2  -2   6    0.49    0.25
  -2  -2  -6   -0.06    0.17
   2   2   6    0.06    0.24
   2   2   6    0.46    0.22
  -2   2  -6   -0.11    0.18
  -2   2  -6    0.11    0.27
   2   2   6    0.37    0.25
   4  -2   6    0.44    0.35
   4  -2   6    0.38    0.26
  -4  -2  -6    0.69    0.22
  -4  -2  -6    0.91    0.34
  -4   2  -6    0.72    0.21
   4   2   6    0.74    0.31
   4   2   6    1.05    0.36
  -4   2  -6    0.44    0.30
   6  -2   6    8.53    0.92
   6  -2   6    6.01    0.75
  -6  -2  -6    6.66    0.80
  -6  -2  -6    5.99    0.61
  -6   2  -6    6.01    0.60
   6   2   6    7.45    0.77
   6   2   6    7.45    0.95
  -6   2  -6    5.16    0.77
   8  -2   6   58.60    4.86
   8  -2   6   53.99    5.38
  -8  -2  -6   57.40    4.68
  -8   2  -6   56.48    4.69
   8   2   6   55.34    5.35
  10  -2   6    6.74    1.00
 -10  -2  -6    6.85    0.83
  10  -2   6    5.75    0.76
 -10   2  -6    7.52    0.88
  10   2   6    6.07    0.97
  10   2   6    5.27    0.77
  12  -2   6   14.19    1.34
  12  -2   6   11.41    1.66
 -12  -2  -6   13.59    1.35
  12   2   6   15.38    1.60
 -12   2  -6   12.63    1.35
  12   2   6   13.66    1.35
 -14  -2  -6   10.16    1.16
  14  -2   6   10.20    1.39
  14  -2   6   11.99    1.09
  14   2   6    9.17    1.10
 -14   2  -6    8.46    1.13
  14   2   6   11.08    1.43
  16  -2   6   11.57    1.54
 -16  -2  -6   12.05    1.16
  16  -2   6    9.60    1.09
  16   2   6    7.34    1.31
  16   2   6   11.46    1.16
 -16   2  -6   12.53    1.21
  18  -2   6    0.39    0.45
 -18  -2  -6   -0.09    0.36
 -18   2  -6    0.55    0.41
  18   2   6    0.48    0.44
 -18   2  -6    0.07    0.28
  18   2   6    0.53    0.36
 -20  -2  -6    7.08    0.95
  20  -2   6    6.20    1.11
 -20  -2  -6    7.17    0.97
  20   2   6    6.99    1.14
 -20   2  -6    8.52    1.04
 -20   2  -6    6.45    0.93
 -22  -2  -6    4.92    0.77
 -22  -2  -6    3.75    0.69
  22  -2   6    3.08    0.87
 -22   2  -6    2.99    0.67
  22   2   6    4.50    0.96
 -22   2  -6    4.34    0.76
  24  -2   6    5.40    1.07
 -24  -2  -6    5.67    0.85
 -24   2  -6    5.28    0.87
 -24   2  -6    5.11    0.87
  24   2   6    4.53    1.03
  26  -2   6    0.63    0.52
 -26  -2  -6    0.20    0.41
 -26   2  -6    0.25    0.43
 -26   2  -6    0.28    0.43
  26   2   6    0.18    0.54
 -28  -2  -6    5.96    0.91
  28  -2   6    5.60    1.16
 -28   2  -6    4.50    0.89
  28   2   6    5.20    1.06
  30  -2   6    0.83    0.58
 -30  -2  -6    0.35    0.43
  30   2   6    0.91    0.64
 -30   2  -6   -0.23    0.44
  32  -2   6    2.81    0.90
 -32  -2  -6    4.04    0.82
  32   2   6    5.37    1.09
 -35  -3   6    1.72    0.60
 -35   3   6    0.98    0.59
 -33  -3   6   59.51    5.31
 -33   3   6   58.56    5.35
 -31  -3   6    0.20    0.44
  31  -3  -6    0.39    0.49
  31   3  -6    0.63    0.51
 -31   3   6   -0.30    0.42
  31   3  -6    0.45    0.46
 -29  -3   6  165.12   14.32
  29  -3  -6  169.80   13.67
  29   3  -6  157.27   13.60
 -29   3   6  169.01   14.34
  29   3  -6  178.69   15.57
  27  -3  -6    1.15    0.53
 -27  -3   6    0.76    0.46
  27   3  -6    0.48    0.48
 -27   3   6    0.63    0.47
  27   3  -6    0.34    0.42
  25  -3  -6  184.26   15.71
 -25  -3   6  172.69   16.46
 -25   3   6  196.29   16.50
  25   3  -6  210.83   15.70
  25   3  -6  207.85   17.91
 -23  -3   6    0.43    0.42
  23  -3  -6   -0.04    0.39
  23   3  -6   -0.01    0.35
  23   3  -6    0.54    0.43
 -23   3   6   -0.21    0.31
  21  -3  -6  185.63   15.82
 -21   3   6  199.98   15.71
 -21   3   6  190.99   16.60
  21   3  -6  207.63   18.03
 -19  -3   6    1.43    0.50
  19  -3  -6    1.00    0.45
  19   3  -6    1.67    0.47
 -19   3   6    0.66    0.42
  19   3  -6    1.73    0.50
 -19   3   6    2.07    0.40
  17  -3  -6  321.67   25.97
 -17  -3   6  327.17   27.27
 -17   3   6  343.94   25.86
  17   3  -6  335.29   29.55
 -17   3   6  321.72   27.25
  17   3  -6  296.97   25.93
 -15  -3   6   90.71    7.27
  15  -3  -6   75.11    6.90
  15   3  -6   86.99    6.91
 -15   3   6   79.23    6.82
  15   3  -6   83.85    7.81
 -15   3   6   91.07    7.25
  13  -3  -6  304.30   28.48
 -13   3   6  338.39   25.01
  13   3  -6  304.08   28.55
  13   3  -6  300.44   25.08
 -13   3   6  323.36   26.35
  11  -3  -6   53.10    5.23
  11  -3  -6   62.97    4.75
 -11  -3   6   59.36    4.96
  11   3  -6   58.40    4.72
 -11   3   6   50.22    4.93
 -11   3   6   60.48    4.66
  -9  -3   6  165.50   15.27
  -9  -3   6  160.20   14.08
   9  -3  -6  171.79   13.43
   9   3  -6  161.90   13.40
  -9   3   6  172.79   14.10
   9   3  -6  166.25   13.32
  -9   3   6  171.49   13.36
   7  -3  -6  133.98   10.97
  -7  -3   6  136.61   12.50
  -7  -3   6  128.05   11.49
  -7   3   6  147.42   10.91
   7   3  -6  129.38   10.95
   7   3  -6  141.37   10.89
   5  -3  -6  265.24   21.00
  -5  -3   6  238.12   22.03
  -5  -3   6  275.47   23.96
   5   3  -6  273.79   21.00
  -5   3   6  258.28   22.05
  -5   3   6  264.91   20.95
   5   3  -6  266.05   20.95
  -3  -3   6  162.56   13.62
   3  -3  -6  154.73   12.95
  -3  -3   6  164.67   14.83
   3   3  -6  183.54   12.96
  -3   3   6  158.98   12.93
   3   3  -6  141.92   12.95
  -3   3   6  168.46   13.62
  -1  -3   6  297.88   25.46
  -1  -3   6  276.12   23.37
  -1   3   6  296.68   25.30
   1   3  -6  273.35   22.26
  -1   3   6  238.28   22.22
  -1   3   6  288.65   23.39
   1   3  -6  285.50   22.25
   1  -3   6   85.34    8.74
   1  -3   6   99.46    7.99
  -1  -3  -6  100.64    7.59
  -1   3  -6   91.02    7.63
   1   3   6   94.99    7.60
   1   3   6   98.20    8.64
  -1   3  -6   91.76    7.58
   1   3   6   92.53    8.00
  -3  -3  -6  288.00   21.38
   3  -3   6  260.05   24.50
   3  -3   6  275.72   22.47
   3   3   6  294.00   24.42
  -3   3  -6  248.43   21.43
   3   3   6  268.63   21.39
  -3   3  -6  245.74   21.36
   5  -3   6  141.94   11.87
   5  -3   6  124.02   10.80
  -5  -3  -6  120.50   10.25
  -5  -3  -6  130.09   10.34
   5   3   6  137.55   10.86
   5   3   6  122.94   11.78
  -5   3  -6  126.85   10.24
  -5   3  -6  127.45   10.36
  -7  -3  -6  364.86   28.93
  -7  -3  -6  343.65   29.02
   7  -3   6  345.58   33.17
   7  -3   6  361.95   30.43
  -7   3  -6  423.78   29.08
   7   3   6  364.44   30.47
   7   3   6  347.88   33.11
   9  -3   6  188.41   16.99
   9  -3   6  191.98   15.51
  -9  -3  -6  180.59   14.69
  -9  -3  -6  167.20   14.80
   9   3   6  190.25   15.54
  -9   3  -6  189.28   14.83
   9   3   6  181.46   16.91
  -9   3  -6  187.96   14.68
 -11  -3  -6  160.31   12.71
  11  -3   6  163.49   13.28
  11   3   6  157.28   13.31
 -11   3  -6  155.47   12.72
  11   3   6  151.62   14.52
  13  -3   6   98.29    8.88
 -13  -3  -6  103.25    8.52
  13  -3   6  113.42    9.84
  13   3   6  110.15    8.93
 -13   3  -6  103.27    8.53
  13   3   6  101.99    9.76
  15  -3   6   60.31    5.09
  15  -3   6   56.19    4.52
 -15  -3  -6   53.31    4.36
 -15   3  -6   51.16    4.38
  15   3   6   39.59    4.94
 -17  -3  -6  124.92   10.03
  17  -3   6  135.07   11.58
  17   3   6  130.81   10.49
 -17   3  -6  116.89   10.46
  17   3   6  115.43   11.48
 -17   3  -6  118.15   10.04
  19  -3   6   28.44    2.80
 -19  -3  -6   24.31    2.33
 -19   3  -6   30.93    2.44
  19   3   6   19.68    2.64
 -19   3  -6   25.28    2.35
 -21   3  -6  187.01   16.21
  21   3   6  205.88   17.73
 -21   3  -6  183.50   15.45
 -23  -3  -6   14.26    1.70
  23  -3   6   19.55    2.00
  23   3   6   17.75    1.96
 -23   3  -6   16.04    1.69
 -23   3  -6   16.04    1.72
  25  -3   6   88.42    7.79
 -25  -3  -6   87.34    7.02
 -25   3  -6   82.33    7.06
 -25   3  -6   78.19    6.71
  25   3   6   67.60    7.65
  27  -3   6   13.07    2.04
 -27  -3  -6   21.18    1.87
 -27   3  -6   15.68    1.81
  27   3   6   18.51    2.08
 -27   3  -6   16.82    1.77
 -29  -3  -6   89.93    7.37
  29  -3   6   77.68    8.02
 -29   3  -6   87.59    7.09
  29   3   6   80.62    8.04
 -31  -3  -6    6.52    1.16
  31  -3   6    9.72    1.48
  31   3   6   13.02    1.58
 -34  -4   6   46.98    4.31
 -32  -4   6   42.44    3.82
  32   4  -6   40.96    3.70
  32   4  -6   40.54    4.14
 -32   4   6   39.33    3.85
  30  -4  -6   83.74    7.11
 -30  -4   6   84.76    7.44
 -30   4   6   75.26    7.44
  30   4  -6   82.81    7.04
  30   4  -6   99.63    8.17
  28  -4  -6   90.62    6.47
 -28  -4   6   73.71    6.67
  28   4  -6   71.64    6.31
 -28   4   6   66.61    6.67
  28   4  -6   79.65    7.27
 -26  -4   6  142.90   11.98
  26  -4  -6  132.54   11.42
  26   4  -6  151.17   13.04
 -26   4   6  126.74   11.97
  26   4  -6  146.03   11.39
  24  -4  -6  172.86   14.00
 -24  -4   6  165.59   14.67
 -24   4   6  175.30   13.88
  24   4  -6  178.82   15.94
  24   4  -6  176.91   13.97
 -24   4   6  165.67   14.69
  22  -4  -6   83.73    6.74
 -22  -4   6   83.24    7.07
  22   4  -6   80.56    7.63
  22   4  -6   81.85    6.69
 -22   4   6   79.04    7.05
 -22   4   6   78.26    6.62
  20  -4  -6  151.46   12.88
 -20  -4   6  175.53   13.56
  20   4  -6  153.73   12.84
  20   4  -6  159.66   14.65
 -20   4   6  168.46   12.79
 -20   4   6  145.98   13.49
  18  -4  -6  176.90   13.38
 -18  -4   6  181.34   14.05
 -18   4   6  137.92   13.96
 -18   4   6  156.59   13.25
  18   4  -6  168.48   13.32
  18   4  -6  173.48   15.18
 -16  -4   6  502.55   42.25
  16  -4  -6  467.34   40.22
  16   4  -6  514.07   45.84
 -16   4   6  513.94   42.25
 -16   4   6  554.58   40.15
  16   4  -6  476.00   40.20
 -14  -4   6   55.30    4.37
 -14   4   6   44.53    4.32
  14   4  -6   53.96    4.69
 -14   4   6   44.61    4.06
  12  -4  -6  348.47   27.66
 -12  -4   6  313.03   29.01
 -12   4   6  326.56   27.58
 -12   4   6  392.17   29.06
  12   4  -6  371.80   31.50
  12   4  -6  328.71   27.63
  10  -4  -6   43.33    3.74
 -10  -4   6   54.21    3.96
 -10  -4   6   46.03    4.26
 -10   4   6   42.85    3.69
 -10   4   6   45.70    3.93
  10   4  -6   37.18    3.72
   8  -4  -6  366.84   29.02
  -8  -4   6  380.01   30.48
  -8  -4   6  362.18   33.10
   8   4  -6  355.52   29.01
  -8   4   6  354.32   28.97
   8   4  -6  366.11   28.92
   6  -4  -6    1.88    0.42
  -6  -4   6    1.84    0.47
  -6  -4   6    2.40    0.46
  -6   4   6    2.60    0.48
  -6   4   6    2.49    0.40
   6   4  -6    2.97    0.40
   6   4  -6    1.37    0.37
   4  -4  -6  664.95   51.00
  -4  -4   6  652.39   58.20
  -4  -4   6  670.29   53.55
  -4   4   6  600.21   50.93
  -4   4   6  592.35   53.53
   4   4  -6  674.60   51.00
   4   4  -6  638.89   50.95
  -2  -4   6   51.86    3.93
  -2  -4   6   40.60    4.30
   2  -4  -6   44.64    3.71
   2   4  -6   44.16    3.71
  -2   4   6   45.01    3.71
   2   4  -6   43.88    3.73
  -2   4   6   44.51    3.91
   0  -4   6  486.49   42.87
   0  -4   6  473.86   39.36
   0  -4  -6  515.36   37.50
   0   4  -6  447.31   37.50
   0   4   6  450.14   39.38
   0   4  -6  463.20   37.49
   0   4   6  491.44   42.71
   0   4   6  445.18   37.47
   2  -4   6   76.87    7.07
   2  -4   6   62.89    6.35
  -2  -4  -6   81.14    6.07
  -2   4  -6   74.94    6.06
   2   4   6   72.56    6.92
   2   4   6   74.46    6.41
   2   4   6   80.78    6.09
  -2   4  -6   78.01    6.13
   4  -4   6  436.82   34.38
  -4  -4  -6  396.39   32.73
   4   4   6  455.47   32.76
   4   4   6  349.63   34.40
  -4   4  -6  442.28   32.73
  -4   4  -6  389.41   32.79
   6  -4   6   22.05    1.79
   6  -4   6   20.30    2.12
  -6   4  -6   19.09    1.79
   6   4   6   16.08    1.98
  -6   4  -6   19.68    1.67
   6   4   6   20.28    1.83
   8  -4   6  386.31   33.01
   8  -4   6  383.55   30.22
  -8  -4  -6  385.92   28.84
   8   4   6  343.15   28.73
  -8   4  -6  362.52   28.85
  -8   4  -6  328.02   28.73
   8   4   6  347.96   30.26
 -10  -4  -6   14.38    1.54
  10  -4   6   16.71    1.53
  10  -4   6   15.17    1.81
  10   4   6   20.18    1.63
  10   4   6   15.17    1.77
 -10   4  -6   15.87    1.39
 -10   4  -6   17.38    1.60
  10   4   6   16.73    1.39
  12  -4   6  335.94   28.87
  12  -4   6  352.19   31.53
 -12  -4  -6  357.64   27.56
  12   4   6  337.98   28.91
 -12   4  -6  350.04   27.58
  12   4   6  338.70   31.47
  14  -4   6   43.70    4.73
 -14  -4  -6   47.59    4.09
  14  -4   6   55.16    4.24
  14   4   6   45.58    4.71
 -14   4  -6   48.73    4.13
  16  -4   6  235.17   24.92
 -16  -4  -6  291.60   21.81
 -16   4  -6  257.15   22.82
 -16   4  -6  285.14   21.83
  16   4   6  286.23   24.95
  16   4   6  278.63   22.88
 -18  -4  -6   60.16    5.19
  18  -4   6   58.87    5.98
  18   4   6   60.29    5.98
 -18   4  -6   76.92    5.25
 -18   4  -6   60.90    5.39
  18   4   6   56.77    5.37
  20  -4   6  240.15   20.77
 -20  -4  -6  232.28   18.98
 -20   4  -6  231.12   18.96
 -20   4  -6  233.99   18.11
  20   4   6  188.05   20.64
 -22  -4  -6   50.47    4.55
  22  -4   6   51.94    5.10
  22   4   6   54.77    5.08
 -22   4  -6   48.31    4.36
  24  -4   6   89.30    7.99
 -24  -4  -6   88.05    7.25
  24   4   6   71.61    7.89
 -24   4  -6   84.83    6.93
  26  -4   6   11.74    1.69
 -26  -4  -6   10.25    1.30
  26   4   6    7.72    1.41
 -26   4  -6   10.85    1.30
  28  -4   6   86.50    8.73
 -28  -4  -6   92.71    7.94
 -28   4  -6   97.01    7.61
  28   4   6   88.40    8.72
 -30  -4  -6   25.04    2.61
  30  -4   6   31.72    3.01
 -30   4  -6   24.27    2.53
  30   4   6   27.98    2.97
  32  -4   6   58.61    6.11
 -32  -4  -6   62.14    5.57
  32   4   6   65.65    6.14
  33   5  -6   10.12    1.51
 -31  -5   6    6.70    1.03
  31  -5  -6    5.99    1.00
  31   5  -6    5.00    0.86
  31   5  -6    5.23    1.04
  29  -5  -6   18.96    2.13
 -29  -5   6   21.49    2.06
  29   5  -6   18.50    2.16
  29   5  -6   18.45    1.88
 -27  -5   6   -0.10    0.38
  27  -5  -6    0.45    0.48
  27   5  -6    0.61    0.42
  27   5  -6    0.39    0.49
 -27   5   6    0.71    0.52
  25  -5  -6   23.66    2.17
 -25  -5   6   23.50    2.22
  25   5  -6   16.39    2.29
  25   5  -6   25.17    2.09
 -25   5   6   22.23    2.03
 -25   5   6   22.96    2.23
  23  -5  -6    0.55    0.47
 -23  -5   6    0.16    0.38
  23   5  -6    0.32    0.45
 -23   5   6    0.15    0.42
  23   5  -6    0.15    0.38
 -23   5   6   -0.10    0.29
 -21  -5   6   12.92    1.39
  21  -5  -6   11.86    1.40
  21   5  -6   14.52    1.32
 -21   5   6   13.99    1.26
 -21   5   6   12.99    1.40
  21   5  -6    8.02    1.43
  19  -5  -6   18.70    1.72
 -19  -5   6   22.07    1.85
  19   5  -6   17.01    1.65
 -19   5   6   17.26    1.78
  19   5  -6   17.02    1.90
 -19   5   6   14.25    1.59
 -17  -5   6    3.10    0.62
  17  -5  -6    2.12    0.54
 -17   5   6    2.80    0.50
  17   5  -6    2.55    0.52
 -17   5   6    2.19    0.56
  17   5  -6    2.34    0.59
  15  -5  -6    1.22    0.42
 -15  -5   6    1.00    0.44
  15   5  -6    1.05    0.39
 -15   5   6    1.16    0.35
 -15   5   6    0.26    0.35
  15   5  -6    1.76    0.50
  13  -5  -6  110.55    9.28
 -13  -5   6  116.37    9.74
  13   5  -6  110.96    9.26
 -13   5   6  105.72    9.72
 -13   5   6  127.67    9.24
  11  -5  -6    0.62    0.33
 -11  -5   6    0.59    0.33
 -11  -5   6    0.15    0.34
 -11   5   6   -0.40    0.25
 -11   5   6    0.31    0.26
  11   5  -6    0.68    0.33
  -9  -5   6   44.57    3.82
   9  -5  -6   43.76    3.64
  -9  -5   6   45.40    4.18
  -9   5   6   43.83    3.60
   9   5  -6   43.78    3.62
  -9   5   6   38.79    3.81
  -7  -5   6    1.71    0.49
  -7  -5   6    2.09    0.43
   7  -5  -6    2.46    0.43
  -7   5   6    1.97    0.39
   7   5  -6    2.67    0.38
  -7   5   6    2.38    0.46
   7   5  -6    1.08    0.37
  -5  -5   6   22.76    2.09
  -5  -5   6   22.18    2.31
   5  -5  -6   21.85    2.16
   5  -5  -6   27.60    2.01
  -5   5   6   25.96    2.09
  -5   5   6   23.36    1.98
   5   5  -6   21.05    1.95
   5   5  -6   19.13    1.96
  -3  -5   6   10.35    1.31
   3  -5  -6    8.95    1.07
   3  -5  -6   13.61    1.19
  -3  -5   6   12.53    1.16
  -3   5   6   11.79    1.08
  -3   5   6   10.96    1.15
   3   5  -6   10.92    1.10
   3   5  -6   12.62    1.12
  -1  -5   6   53.60    4.88
   1  -5  -6   57.67    4.66
  -1  -5   6   64.02    5.46
  -1   5   6   54.13    4.91
   1   5  -6   49.92    4.64
   1   5  -6   56.05    4.69
  -1   5   6   67.32    4.68
   1  -5   6   74.25    5.70
  -1  -5  -6   66.18    5.43
   1  -5   6   70.29    6.37
   1   5   6   68.86    5.74
   1   5   6   61.86    6.18
   1   5   6   68.20    5.46
  -1   5  -6   62.95    5.49
  -1   5  -6   64.02    5.43
   3  -5   6    6.88    0.71
  -3  -5  -6    6.57    0.68
   3  -5   6    9.18    1.12
  -3   5  -6    6.92    0.70
   3   5   6    5.64    0.79
   3   5   6    6.70    0.89
  -3   5  -6    6.44    0.83
   3   5   6    7.77    0.82
   5  -5   6   94.22    8.90
   5  -5   6   96.45    8.00
   5   5   6   94.26    7.65
  -5   5  -6   93.94    7.71
   5   5   6   95.44    8.77
   5   5   6   95.29    7.60
   5   5   6   96.93    8.06
  -5   5  -6   91.60    7.62
   7  -5   6    2.85    0.72
   7  -5   6    3.00    0.42
   7   5   6    1.85    0.42
  -7   5  -6    2.34    0.51
   7   5   6    1.80    0.37
  -7   5  -6    2.00    0.35
   7   5   6    2.71    0.55
   7   5   6    1.75    0.31
  -9  -5  -6    1.62    0.41
   9  -5   6    1.11    0.30
   9  -5   6    1.21    0.51
  -9   5  -6    1.39    0.43
  -9   5  -6    1.24    0.29
   9   5   6    1.87    0.30
   9   5   6    1.14    0.37
   9   5   6    1.23    0.48
  11  -5   6   33.63    3.33
  11  -5   6   37.65    3.83
  11   5   6   40.84    3.42
  11   5   6   40.52    3.15
  11   5   6   39.28    3.79
 -11   5  -6   39.60    3.32
 -13  -5  -6    2.44    0.50
  13  -5   6    2.25    0.65
  13  -5   6    1.93    0.42
  13   5   6    1.07    0.40
 -13   5  -6    1.79    0.48
  13   5   6    1.58    0.56
  15  -5   6   35.65    3.47
 -15  -5  -6   32.58    2.90
 -15   5  -6   31.00    2.93
  15   5   6   32.36    3.34
  15   5   6   35.29    3.06
  17  -5   6    1.41    0.62
 -17  -5  -6    1.71    0.50
  17   5   6    1.12    0.45
  17   5   6    1.83    0.60
 -17   5  -6    1.63    0.50
 -19  -5  -6    2.59    0.56
  19  -5   6    2.08    0.76
 -19   5  -6    2.91    0.63
  19   5   6    2.74    0.70
 -21  -5  -6    1.42    0.49
  21  -5   6    0.90    0.63
 -21   5  -6    0.48    0.45
  21   5   6    1.18    0.58
  23  -5   6   19.99    2.74
 -23  -5  -6   27.19    2.49
 -23   5  -6   29.94    2.42
  23   5   6   25.05    2.79
  25  -5   6   42.84    4.57
 -25  -5  -6   46.42    4.12
 -25   5  -6   40.19    3.93
  25   5   6   53.00    4.63
  27  -5   6    0.46    0.53
 -27  -5  -6    0.72    0.46
  27   5   6    0.35    0.55
 -27   5  -6   -0.15    0.43
  29  -5   6   37.23    3.95
 -29  -5  -6   39.78    3.53
  29   5   6   38.04    3.91
 -29   5  -6   35.38    3.34
  31  -5   6    1.30    0.68
 -31  -5  -6    2.15    0.64
  31   5   6    2.56    0.81
 -31   5  -6    2.47    0.63
 -32  -6   6   13.78    1.75
  32   6  -6   14.69    1.91
 -30  -6   6   27.98    2.43
  30  -6  -6   24.46    2.37
  30   6  -6   17.43    2.48
  30   6  -6   26.12    2.24
  28  -6  -6   26.28    2.45
 -28  -6   6   23.41    2.48
  28   6  -6   26.59    2.35
  28   6  -6   24.76    2.69
  26  -6  -6    9.36    1.33
 -26  -6   6   12.26    1.45
 -26   6   6   11.33    1.28
  26   6  -6   11.22    1.52
  26   6  -6    9.77    1.25
 -24  -6   6   17.84    1.84
  24  -6  -6   18.08    1.81
 -24   6   6   18.43    1.69
  24   6  -6   17.88    1.98
  24   6  -6   15.75    1.68
  22  -6  -6   25.57    2.46
 -22  -6   6   25.18    2.55
 -22   6   6   30.40    2.38
  22   6  -6   26.78    2.38
 -22   6   6   27.81    2.69
  22   6  -6   23.52    2.75
  20  -6  -6   20.38    2.03
 -20  -6   6   22.43    2.13
  20   6  -6   19.28    2.25
 -20   6   6   24.58    2.14
  20   6  -6   19.94    1.96
 -20   6   6   22.55    1.95
 -18  -6   6   28.69    2.69
  18  -6  -6   28.75    2.56
 -18   6   6   29.98    2.68
 -18   6   6   26.10    2.47
  18   6  -6   28.02    2.51
  18   6  -6   29.41    2.89
 -16  -6   6   72.09    6.39
  16  -6  -6   73.08    6.08
 -16   6   6   71.52    6.00
 -16   6   6   72.93    6.37
  16   6  -6   79.62    6.05
  16   6  -6   70.74    6.89
 -14  -6   6    1.82    0.50
  14  -6  -6    1.55    0.46
 -14   6   6    1.57    0.41
  14   6  -6    2.41    0.52
  14   6  -6    1.29    0.43
 -14   6   6    2.28    0.52
  12  -6  -6  127.01    8.97
 -12  -6   6  110.16    9.40
 -12  -6   6  110.39   10.23
 -12   6   6   95.76    8.89
  12   6  -6  109.65    8.93
 -10  -6   6   16.71    1.52
  10  -6  -6   14.58    1.43
 -10  -6   6   17.30    1.71
 -10   6   6   14.79    1.42
  10   6  -6   15.75    1.43
 -10   6   6   12.91    1.48
  -8  -6   6  166.33   13.22
  -8  -6   6  157.47   14.40
   8  -6  -6  159.28   12.58
   8   6  -6  161.36   12.52
  -8   6   6  129.36   12.53
   8   6  -6  162.08   12.58
  -8   6   6  159.97   13.19
  -6  -6   6   50.72    3.91
  -6  -6   6   37.17    4.26
   6  -6  -6   45.96    3.71
  -6   6   6   36.15    3.85
  -6   6   6   44.70    3.70
   6   6  -6   49.89    3.68
   6   6  -6   46.38    3.71
  -4  -6   6   55.95    4.36
  -4  -6   6   42.34    4.79
   4  -6  -6   46.62    4.67
   4  -6  -6   49.52    4.13
   4   6  -6   47.20    4.12
   4   6  -6   49.74    4.12
  -4   6   6   55.61    4.15
  -4   6   6   53.03    4.34
  -2  -6   6    1.17    0.48
   2  -6  -6    1.19    0.37
   2  -6  -6    1.54    0.34
  -2  -6   6    2.00    0.39
   2   6  -6    1.42    0.34
  -2   6   6    1.29    0.36
  -2   6   6    1.51    0.33
   2   6  -6    1.46    0.38
   0  -6   6   61.57    5.68
   0  -6   6   53.40    5.04
   0  -6  -6   55.05    4.83
   0   6  -6   61.61    4.84
   0   6  -6   65.00    4.90
   0   6   6   63.44    4.85
   0   6   6   56.31    5.08
   2  -6   6    2.35    0.64
   2  -6   6    1.78    0.34
   2   6   6    1.74    0.45
   2   6   6    1.62    0.38
   2   6   6    1.47    0.39
  -2   6  -6    2.08    0.45
  -2   6  -6    2.24    0.37
   4  -6   6  107.57    9.62
   4  -6   6  115.04   10.69
   4   6   6  116.34    9.70
   4   6   6  111.14    9.18
   4   6   6  118.20    9.23
   4   6   6  115.66   10.56
  -4   6  -6  125.36    9.21
  -4   6  -6  106.85    9.27
   6  -6   6    0.72    0.46
  -6   6  -6    0.68    0.26
  -6   6  -6    1.26    0.39
   6   6   6    0.58    0.36
   6   6   6    1.05    0.28
   6   6   6    0.71    0.32
   6   6   6    1.11    0.32
   8  -6   6  109.88    9.53
   8   6   6  106.56    9.39
  -8   6  -6  104.93    8.12
  -8   6  -6   85.25    8.21
   8   6   6  106.87    8.16
   8   6   6  110.48    8.12
   8   6   6   83.30    8.56
  10  -6   6    0.85    0.51
 -10  -6  -6    1.92    0.46
 -10   6  -6    1.45    0.45
 -10   6  -6    2.15    0.36
  10   6   6    1.80    0.34
  10   6   6    2.11    0.56
  10   6   6    1.30    0.40
 -12  -6  -6   67.78    5.62
  12  -6   6   81.49    6.57
  12   6   6   59.01    6.42
  12   6   6   70.74    5.89
 -12   6  -6   63.28    5.63
  14  -6   6    0.78    0.56
 -14  -6  -6    0.77    0.40
  14   6   6    0.70    0.44
  14   6   6    1.13    0.42
 -14   6  -6    0.83    0.42
 -16  -6  -6   27.07    2.40
  16  -6   6   26.26    2.86
 -16   6  -6   25.75    2.41
  16   6   6   25.91    2.48
  16   6   6   27.26    2.81
  18  -6   6    2.26    0.72
 -18  -6  -6    3.29    0.66
  18   6   6    3.36    0.83
 -18   6  -6    3.61    0.68
  20  -6   6   56.79    5.69
 -20  -6  -6   54.36    5.11
  20   6   6   63.53    5.70
 -20   6  -6   58.02    4.91
  22  -6   6    5.70    1.19
 -22  -6  -6    9.02    1.10
 -22   6  -6    7.93    1.06
  22   6   6    5.60    1.12
 -24  -6  -6   48.62    3.94
  24  -6   6   38.09    4.36
  24   6   6   38.37    4.33
 -24   6  -6   46.30    3.79
 -26  -6  -6    3.99    0.78
  26  -6   6    3.66    0.96
 -26   6  -6    4.06    0.78
  26   6   6    5.37    1.05
 -28  -6  -6   29.64    2.83
  28  -6   6   29.62    3.18
  28   6   6   30.17    3.18
 -28   6  -6   27.82    2.70
  30  -6   6    0.44    0.66
 -30  -6  -6   -0.08    0.45
 -30   6  -6    0.41    0.50
  30   6   6    1.07    0.63
 -31  -7   6    4.26    0.90
  31  -7  -6    6.59    1.08
  31   7  -6    4.68    1.00
  31   7  -6    4.05    0.81
 -29  -7   6  127.45   11.42
  29   7  -6  143.02   10.84
  29   7  -6  127.53   12.39
 -27  -7   6    2.66    0.69
  27  -7  -6    2.87    0.72
  27   7  -6    2.82    0.61
 -27   7   6    2.88    0.60
  27   7  -6    1.67    0.67
  25  -7  -6  120.09    9.23
 -25  -7   6   94.73    9.58
  25   7  -6  109.25    9.11
  25   7  -6  119.52   10.44
 -25   7   6  114.85    9.10
 -23  -7   6   13.50    1.51
  23  -7  -6    7.55    1.25
  23   7  -6   10.54    1.48
 -23   7   6   10.40    1.23
  23   7  -6   13.30    1.24
  21  -7  -6  249.14   19.07
  21   7  -6  235.79   18.97
 -21   7   6  240.19   18.94
  21   7  -6  220.95   21.66
  19  -7  -6    1.30    0.51
 -19  -7   6    2.12    0.58
 -19   7   6    2.53    0.50
  19   7  -6    1.66    0.48
  19   7  -6    1.82    0.61
 -17  -7   6  347.07   29.85
  17  -7  -6  385.13   28.45
  17   7  -6  372.95   32.39
  17   7  -6  333.37   28.36
 -17   7   6  340.11   28.34
 -15  -7   6   44.79    3.52
  15  -7  -6   36.74    3.30
  15   7  -6   37.08    3.28
 -15   7   6   36.01    3.25
 -13  -7   6  246.82   19.42
 -13  -7   6  243.66   21.14
  13  -7  -6  242.17   18.49
 -13   7   6  216.15   18.44
  13   7  -6  192.28   18.44
 -13   7   6  244.89   19.41
 -11  -7   6   30.16    2.73
 -11  -7   6   31.15    3.02
  11  -7  -6   23.23    2.55
 -11   7   6   32.23    2.71
  11   7  -6   31.14    2.59
 -11   7   6   30.95    2.57
  -9  -7   6  315.03   25.45
  -9  -7   6  285.11   27.67
   9  -7  -6  310.95   24.24
  -9   7   6  278.97   25.40
   9   7  -6  304.81   24.22
  -9   7   6  324.45   24.19
  -7  -7   6   72.68    6.10
   7  -7  -6   69.22    5.26
  -7  -7   6   61.72    5.48
  -7   7   6   63.46    5.22
   7   7  -6   54.77    5.20
  -7   7   6   62.64    5.47
  -5  -7   6  259.64   20.79
  -5  -7   6  239.66   22.69
   5   7  -6  259.28   19.81
  -5   7   6  241.81   20.78
  -5   7   6  221.55   19.78
   5   7  -6  264.56   19.79
  -3  -7   6  102.46    8.70
   3  -7  -6   92.31    9.46
  -3  -7   6  101.52    9.58
   3  -7  -6  106.97    8.31
  -3   7   6   97.76    8.30
   3   7  -6  102.12    8.31
  -3   7   6  117.48    8.73
   3   7  -6  100.90    8.31
   1  -7  -6  225.67   17.05
   1  -7  -6  217.88   19.46
  -1  -7   6  215.98   19.59
   1   7  -6  211.86   17.05
  -1   7   6  195.48   17.88
  -1   7   6  236.31   17.06
   1   7  -6  189.97   17.05
   1  -7   6  161.22   14.01
   1   7   6  149.90   12.74
   1   7   6  131.59   12.11
  -1   7  -6  167.52   12.18
  -1   7  -6  148.73   12.12
  -3   7  -6  264.84   20.66
   3   7   6  260.65   20.58
   3   7   6  269.84   20.62
  -3   7  -6  234.40   20.58
   3   7   6  259.50   23.53
   3   7   6  260.71   21.64
   5  -7   6  150.52   13.24
   5   7   6  152.34   11.45
   5   7   6  129.70   13.06
  -5   7  -6  130.09   11.48
  -5   7  -6  149.49   11.41
   5   7   6  143.85   11.40
   5   7   6  139.96   12.02
   7  -7   6  180.56   15.15
   7   7   6  166.01   13.11
  -7   7  -6  157.07   13.08
   7   7   6  174.41   15.03
   7   7   6  162.29   13.78
  -7   7  -6  158.37   13.17
   7   7   6  149.96   13.07
   9  -7   6  159.86   14.10
  -9   7  -6  157.82   12.26
   9   7   6  160.44   13.99
  -9   7  -6  146.06   12.14
   9   7   6  149.45   12.13
   9   7   6  144.57   12.80
   9   7   6  146.48   12.17
  11  -7   6   88.03    8.24
 -11  -7  -6   88.93    7.08
  11   7   6   90.90    6.99
  11   7   6   79.69    7.39
  11   7   6   84.69    8.12
 -11   7  -6   82.58    6.98
 -11   7  -6   90.69    7.12
 -13  -7  -6  219.95   18.55
  13  -7   6  272.94   21.33
  13   7   6  246.85   19.50
 -13   7  -6  212.84   18.56
  13   7   6  208.16   21.19
  15  -7   6   97.01    8.80
  15   7   6   85.80    8.67
 -15   7  -6   94.96    7.61
  15   7   6   92.23    7.94
 -17  -7  -6  152.41   12.06
  17  -7   6  139.86   13.23
  17   7   6  131.32   13.12
  19  -7   6   86.15    8.20
 -19  -7  -6   88.01    7.42
 -19   7  -6   82.26    7.09
  21  -7   6  135.17   12.66
 -21  -7  -6  141.89   11.55
  21   7   6  153.71   12.62
 -21   7  -6  111.41   10.94
  23  -7   6   14.09    1.88
 -23  -7  -6   11.34    1.46
 -23   7  -6   14.26    1.54
  23   7   6   12.57    1.77
 -25  -7  -6   94.38    7.73
 -25   7  -6   83.39    7.32
  25   7   6   87.80    8.44
  27  -7   6    7.79    1.43
 -27  -7  -6   11.41    1.36
 -27   7  -6    9.53    1.24
  27   7   6    9.83    1.53
 -29  -7  -6   75.17    6.14
 -29   7  -6   61.29    5.78
  29   7   6   71.20    6.72
 -30  -8   6   65.30    6.13
  30  -8  -6   65.93    5.90
  30   8  -6   74.90    5.79
 -28  -8   6   43.18    3.91
  28  -8  -6   41.29    3.76
  28   8  -6   41.04    3.63
 -28   8   6   42.26    3.64
  26  -8  -6   18.51    2.07
 -26  -8   6   19.81    2.14
 -26   8   6   20.85    1.97
  26   8  -6   22.73    2.01
  26   8  -6   21.80    2.33
 -24  -8   6   56.04    5.14
  24  -8  -6   57.35    4.92
  24   8  -6   58.66    4.84
  24   8  -6   57.93    5.57
 -24   8   6   56.90    4.83
  22  -8  -6   38.92    3.34
 -22  -8   6   35.65    3.46
 -22   8   6   34.65    3.22
  22   8  -6   39.82    3.24
  22   8  -6   37.32    3.72
 -20  -8   6  150.03   12.13
  20  -8  -6  119.84   11.49
  20   8  -6  137.33   13.11
  20   8  -6  151.50   11.47
 -20   8   6  148.95   11.47
 -18  -8   6   33.85    3.07
  18  -8  -6   32.96    2.91
 -18   8   6   34.19    2.84
  18   8  -6   31.98    2.84
  18   8  -6   29.88    3.24
  16  -8  -6   99.20    8.15
 -16  -8   6  101.05    8.57
 -16  -8   6   98.81    9.32
  16   8  -6   99.63    8.11
 -16   8   6   98.08    8.10
 -14  -8   6   47.69    4.85
 -14  -8   6   51.73    4.44
  14  -8  -6   52.36    4.24
  14   8  -6   46.90    4.16
 -14   8   6   50.81    4.18
 -12  -8   6  175.35   16.66
  12  -8  -6  179.17   14.56
 -12  -8   6  187.33   15.31
 -12   8   6  181.38   14.54
 -10  -8   6   25.18    2.17
  10  -8  -6   24.27    2.05
 -10  -8   6   23.42    2.39
 -10   8   6   23.64    2.03
  10   8  -6   17.36    1.98
  -8  -8   6  185.14   15.49
   8  -8  -6  185.01   14.77
  -8  -8   6  177.61   16.92
   8   8  -6  198.35   14.76
  -8   8   6  171.71   14.73
   6  -8  -6   30.55    2.79
  -6  -8   6   32.93    3.33
  -6   8   6   37.16    2.82
   6   8  -6   29.88    2.80
  -6   8   6   33.21    2.91
  -4  -8   6  208.04   16.35
   4  -8  -6  166.06   14.14
  -4   8   6  162.25   14.82
   4   8  -6  196.45   14.16
   4   8  -6  154.58   14.11
  -4   8   6  178.43   14.14
  -2  -8   6   35.73    3.90
   2  -8  -6   39.65    3.30
   2  -8  -6   40.70    3.83
  -2   8   6   32.92    3.27
   2   8  -6   45.11    3.32
   2   8  -6   38.84    3.33
  -2   8   6   42.26    3.46
   0  -8  -6  165.02   15.07
   0  -8   6  166.03   15.19
   0   8  -6  160.90   13.15
   0   8  -6  167.72   13.21
   0   8   6  160.92   13.16
   2  -8   6    0.09    0.40
  -2  -8  -6    0.44    0.34
  -2   8  -6    0.43    0.34
  -2   8  -6    0.69    0.30
   2   8   6    0.52    0.26
   2   8   6    0.51    0.30
   2   8   6    0.08    0.28
   4  -8   6  274.99   22.96
   4   8   6  273.60   19.94
   4   8   6  259.12   22.78
  -4   8  -6  229.44   19.97
   4   8   6  260.14   20.94
  -4   8  -6  220.68   19.89
   4   8   6  233.92   19.89
   6  -8   6    0.68    0.53
   6   8   6    1.12    0.34
   6   8   6    0.96    0.47
   6   8   6    0.88    0.34
   6   8   6    1.20    0.38
  -6   8  -6    1.15    0.45
  -6   8  -6    1.45    0.37
   8  -8   6  152.20   13.75
   8   8   6  147.86   11.84
   8   8   6  136.79   13.59
  -8   8  -6  156.04   11.85
  -8   8  -6  144.80   11.94
   8   8   6  146.85   12.48
  10  -8   6    7.69    1.25
  10   8   6    6.64    0.77
 -10   8  -6    6.55    0.78
  10   8   6    6.38    1.05
  10   8   6    7.08    0.90
 -10   8  -6    6.27    0.93
  10   8   6    6.10    0.81
  12  -8   6  164.82   15.16
 -12  -8  -6  175.53   13.17
  12   8   6  145.04   15.04
 -12   8  -6  167.78   13.20
  12   8   6  161.29   13.80
  14  -8   6    8.26    1.35
 -14   8  -6    8.13    1.06
  14   8   6    7.49    1.20
  14   8   6    7.92    1.04
 -16  -8  -6  172.43   13.02
  16  -8   6  161.62   14.30
  16   8   6  136.61   14.15
 -16   8  -6  141.86   12.39
 -18  -8  -6   13.56    1.30
  18  -8   6    7.85    1.47
  18   8   6   12.31    1.60
 -18   8  -6    8.48    1.22
 -20  -8  -6   92.56    7.66
  20  -8   6   82.90    8.41
 -20   8  -6   85.29    7.28
  20   8   6   90.99    8.40
 -22  -8  -6    3.47    0.72
  22  -8   6    3.13    0.95
  22   8   6    5.34    1.04
 -22   8  -6    5.22    0.84
  24  -8   6   54.51    5.65
 -24  -8  -6   58.34    5.12
 -24   8  -6   61.91    4.88
  24   8   6   53.17    5.60
  26  -8   6   14.27    2.11
 -26  -8  -6   15.14    1.72
  26   8   6   15.96    1.93
 -26   8  -6   17.93    1.72
  28  -8   6   27.15    3.18
 -28  -8  -6   28.48    2.83
  28   8   6   30.63    3.18
 -28   8  -6   30.60    2.72
  29  -9  -6    0.03    0.50
 -29  -9   6    0.14    0.43
 -29   9   6    0.33    0.41
  29   9  -6    0.43    0.49
  29   9  -6   -0.25    0.37
  27  -9  -6    0.14    0.49
 -27  -9   6    0.38    0.46
  27   9  -6    0.34    0.40
  27   9  -6    0.29    0.53
 -27   9   6   -0.08    0.37
 -25  -9   6    6.50    1.08
  25  -9  -6    7.31    1.08
  25   9  -6    8.32    1.00
 -25   9   6    7.98    1.00
  25   9  -6    3.86    0.99
  23  -9  -6    0.46    0.49
 -23  -9   6    1.28    0.56
  23   9  -6    1.15    0.56
 -23   9   6    0.87    0.42
  23   9  -6    1.24    0.46
  21  -9  -6    0.90    0.47
 -21  -9   6    0.72    0.47
  21   9  -6    0.10    0.36
 -21   9   6    1.39    0.45
 -19  -9   6    0.36    0.45
  19  -9  -6    1.21    0.48
 -19  -9   6    1.05    0.53
 -19   9   6    0.33    0.38
  19   9  -6    0.64    0.39
  17  -9  -6    6.68    0.95
 -17  -9   6    6.00    1.12
 -17  -9   6    6.54    0.99
 -17   9   6    7.01    0.90
  17   9  -6    6.29    0.87
 -15  -9   6    0.49    0.44
  15  -9  -6    1.15    0.45
 -15  -9   6    0.76    0.52
 -15   9   6    0.60    0.37
  15   9  -6    1.19    0.41
  13  -9  -6    3.03    0.56
 -13  -9   6    2.35    0.66
  13   9  -6    2.44    0.52
 -13   9   6    2.42    0.53
 -11  -9   6    1.65    0.66
  11  -9  -6    1.14    0.42
  11   9  -6    1.81    0.44
 -11   9   6    2.49    0.49
   9  -9  -6    1.74    0.45
  -9  -9   6    1.17    0.56
  -9   9   6    1.35    0.42
   9   9  -6    1.19    0.40
   7  -9  -6    3.10    0.53
  -7  -9   6    2.22    0.71
  -7   9   6    2.34    0.49
   7   9  -6    1.85    0.46
   5  -9  -6    2.56    0.49
  -5  -9   6    1.71    0.59
   5   9  -6    2.01    0.46
  -5   9   6    2.99    0.51
   3  -9  -6    1.15    0.36
  -3  -9   6    1.64    0.58
   3   9  -6    0.68    0.34
  -3   9   6    0.58    0.32
   3   9  -6    1.09    0.39
  -1  -9   6    0.52    0.44
   1  -9  -6    0.18    0.25
  -1   9   6    0.11    0.28
   1   9  -6   -0.14    0.28
   1   9  -6    0.20    0.34
  -1  -9  -6    0.63    0.40
   1  -9   6    0.07    0.47
  -1   9  -6    0.43    0.36
   1   9   6    0.63    0.31
  -1   9  -6    0.11    0.29
   1   9   6    0.70    0.33
   1   9   6   -0.02    0.24
   3  -9   6    2.39    0.71
  -3  -9  -6    1.44    0.49
   3   9   6    1.31    0.38
  -3   9  -6    0.72    0.39
   3   9   6    1.23    0.35
  -3   9  -6    0.97    0.33
   3   9   6    1.22    0.39
   5  -9   6    0.13    0.43
   5   9   6    0.31    0.30
   5   9   6    0.15    0.29
   5   9   6    0.22    0.39
  -5   9  -6    0.11    0.28
   5   9   6   -0.13    0.28
  -5   9  -6    0.37    0.37
   7  -9   6    1.35    0.65
  -7   9  -6    2.77    0.62
   7   9   6    4.65    0.69
  -7   9  -6    4.19    0.61
   7   9   6    3.73    0.56
   7   9   6    5.29    0.66
   7   9   6    5.07    0.85
   9  -9   6   13.83    1.85
   9   9   6   13.17    1.30
  -9   9  -6   12.50    1.37
   9   9   6   12.95    1.36
   9   9   6   13.18    1.26
   9   9   6   13.60    1.60
  -9   9  -6   12.89    1.27
  11  -9   6    0.09    0.50
  11   9   6    0.28    0.30
  11   9   6    0.49    0.46
  11   9   6    0.13    0.33
 -11   9  -6    0.11    0.31
 -11   9  -6    0.65    0.41
  13  -9   6    5.67    1.13
  13   9   6    6.49    1.09
 -13   9  -6    6.16    0.91
 -15  -9  -6    4.84    0.76
  15  -9   6    2.92    0.85
 -15   9  -6    4.51    0.78
  15   9   6    5.29    0.99
 -17  -9  -6    0.22    0.37
  17  -9   6   -0.06    0.51
  17   9   6    0.05    0.48
 -17   9  -6    0.24    0.42
 -19  -9  -6    2.75    0.66
  19  -9   6    2.52    0.87
 -19   9  -6    2.55    0.62
  19   9   6    2.22    0.78
 -21  -9  -6    0.56    0.40
  21  -9   6    0.34    0.60
 -21   9  -6   -0.12    0.39
  21   9   6    0.47    0.59
  23  -9   6    1.89    0.78
 -23  -9  -6    1.93    0.59
 -23   9  -6    1.02    0.52
  23   9   6    1.35    0.68
  25  -9   6    1.52    0.71
 -25  -9  -6   -0.04    0.38
 -25   9  -6   -0.01    0.43
  25   9   6    0.13    0.55
 -27  -9  -6    0.02    0.42
  27  -9   6    0.80    0.66
  27   9   6   -0.15    0.49
 -27   9  -6    0.64    0.47
  28 -10  -6   27.16    2.61
 -28  10   6   28.21    2.48
  28  10  -6   25.30    2.47
  26 -10  -6   24.87    1.97
 -26 -10   6   13.03    1.92
  26  10  -6   17.97    1.76
 -26  10   6   16.71    1.73
 -24 -10   6   25.85    2.79
 -24 -10   6   23.28    2.55
 -24  10   6   26.20    2.36
  24  10  -6   27.75    2.37
 -22 -10   6   47.89    4.68
  22 -10  -6   55.75    4.17
 -22 -10   6   42.70    4.33
 -22  10   6   48.94    4.03
  22  10  -6   42.33    3.98
 -20 -10   6   78.17    7.77
  20 -10  -6   77.37    6.78
  20  10  -6   82.83    6.71
 -20  10   6   86.31    6.73
  18 -10  -6   57.70    4.83
 -18 -10   6   56.50    5.54
 -18  10   6   59.44    4.79
  18  10  -6   54.03    4.77
 -16 -10   6   94.79    9.16
  16 -10  -6   95.96    7.98
 -16  10   6   98.19    7.94
  16  10  -6   98.31    7.94
 -14 -10   6   18.53    2.18
  14 -10  -6   19.75    1.85
 -14  10   6   20.96    1.84
  14  10  -6   18.02    1.80
  12 -10  -6  124.76   10.47
 -12 -10   6  120.38   12.03
 -12  10   6  151.97   10.49
  12  10  -6  118.89   10.42
 -10 -10   6    0.79    0.56
  10 -10  -6    1.33    0.43
  10  10  -6    1.22    0.43
 -10  10   6    0.88    0.38
  -8 -10   6  104.10    9.52
   8 -10  -6   89.55    8.18
   8  10  -6  104.17    8.19
  -8  10   6  105.77    8.22
  -6 -10   6   31.39    3.31
   6 -10  -6   26.57    2.74
   6  10  -6   34.00    2.78
  -6  10   6   37.23    2.82
  -4 -10   6  171.03   16.49
   4 -10  -6  184.44   14.34
  -4  10   6  170.66   14.32
   4  10  -6  185.30   14.32
   2 -10  -6   11.03    1.17
  -2 -10   6    9.93    1.58
   2  10  -6   14.37    1.21
   2  10  -6   10.45    1.27
   0 -10   6   50.36    4.85
   0  10  -6   51.11    4.12
   0  10   6   40.22    4.04
   0  10  -6   54.32    4.09
   2 -10   6    2.94    0.78
  -2  10  -6    2.20    0.56
   2  10   6    2.05    0.45
   2  10   6    2.70    0.52
  -2  10  -6    2.72    0.51
   4 -10   6  120.47   11.23
  -4 -10  -6  121.64   11.12
  -4  10  -6  102.46    9.68
  -4  10  -6  123.47    9.66
   4  10   6  128.98    9.70
   6 -10   6   28.42    2.75
   6  10   6   23.79    2.16
  -6  10  -6   22.25    2.22
   6  10   6   22.25    2.26
   6  10   6   25.30    2.14
  -6  10  -6   24.27    2.14
   8 -10   6  249.64   23.58
  -8  10  -6  256.89   20.49
   8  10   6  266.06   20.51
   8  10   6  248.52   21.57
   8  10   6  236.48   23.46
   8  10   6  277.47   20.50
  10 -10   6   -0.19    0.44
  10  10   6    0.39    0.38
  10  10   6    0.45    0.48
  10  10   6    0.40    0.35
 -10  10  -6    0.18    0.32
  10  10   6   -0.01    0.30
 -10  10  -6    0.85    0.42
  12 -10   6   85.87    7.08
 -12  10  -6   63.44    5.98
  12  10   6   71.26    6.91
 -14 -10  -6    0.29    0.37
  14 -10   6    1.16    0.65
 -14  10  -6    0.20    0.42
  14  10   6    0.39    0.52
 -16 -10  -6  117.78    8.97
  16 -10   6  113.20    9.89
 -16  10  -6   94.73    8.51
  16  10   6   90.85    9.73
 -18 -10  -6    2.41    0.62
  18 -10   6    2.25    0.76
  18  10   6    2.78    0.82
 -18  10  -6    2.37    0.62
  20 -10   6   60.25    6.06
 -20 -10  -6   63.20    5.45
 -20  10  -6   56.00    5.15
  20  10   6   65.27    5.98
 -22 -10  -6    6.67    1.10
  22 -10   6    6.45    1.31
  22  10   6    8.54    1.35
 -22  10  -6    9.26    1.13
 -24 -10  -6   27.14    2.63
  24  10   6   28.01    2.93
 -24  10  -6   25.36    2.47
  25 -11  -6  115.09   10.34
 -25 -11   6  117.34   11.79
 -25  11   6  149.87   10.30
  25  11  -6  120.66   10.23
  23 -11  -6    2.18    0.65
 -23 -11   6    2.03    0.70
  23  11  -6    2.97    0.60
 -23  11   6    2.46    0.60
 -21 -11   6  239.16   19.02
  21 -11  -6  190.97   16.59
 -21  11   6  187.36   16.51
  21  11  -6  207.83   16.52
  19 -11  -6   11.34    1.47
 -19 -11   6   11.72    1.74
  19  11  -6   14.63    1.38
 -19  11   6   12.49    1.42
 -17 -11   6  112.10   11.30
  17 -11  -6  118.47    9.84
 -17  11   6  127.51    9.83
  17  11  -6  122.51    9.81
  15 -11  -6    4.90    0.78
 -15 -11   6    3.97    0.90
  15  11  -6    4.41    0.72
 -15  11   6    4.47    0.73
  13 -11  -6  142.10   11.56
 -13 -11   6  139.80   13.29
 -13  11   6  144.12   11.53
  13  11  -6  142.70   11.51
 -11 -11   6   28.61    3.24
  11 -11  -6   37.23    2.81
  11  11  -6   30.77    2.71
 -11  11   6   28.45    2.72
  -9 -11   6  147.55   13.94
   9 -11  -6  146.15   12.10
   9  11  -6  155.57   12.09
  -9  11   6  148.54   12.09
   7 -11  -6   48.37    4.13
  -7 -11   6   46.95    4.86
  -7  11   6   49.27    4.13
   7  11  -6   50.54    4.11
   5 -11  -6  206.08   16.32
  -5 -11   6  206.21   18.79
  -5  11   6  198.43   16.30
   5  11  -6  201.91   16.31
   3 -11  -6   98.42    7.69
  -3 -11   6   97.36    8.96
   3  11  -6   80.98    7.63
  -3  11   6  101.30    7.69
   1 -11  -6  186.63   14.99
  -1 -11   6  193.24   17.30
   1  11  -6  183.35   14.97
   1  11  -6  194.71   15.01
  -1  11   6  175.56   14.96
   1 -11   6  100.06    9.88
  -1  11  -6  103.56    8.54
  -1  11  -6  100.65    8.48
   1  11   6  113.06    8.53
  -3  11  -6  166.04   13.29
   3  11   6  168.87   13.30
  -3  11  -6  171.47   13.35
   3  11   6  155.11   13.26
   5 -11   6   64.43    5.98
   5  11   6   52.16    5.02
   5  11   6   68.50    5.02
  -5  11  -6   62.41    5.01
  -5  11  -6   55.44    5.07
   7 -11   6   94.46    8.88
  -7 -11  -6   92.92    8.78
  -7  11  -6   86.43    7.63
   7  11   6   88.79    7.59
   7  11   6  103.85    7.59
  -7  11  -6   90.81    7.56
   9 -11   6  102.82    9.34
  -9  11  -6  105.16    8.05
  -9  11  -6   93.36    7.95
   9  11   6   92.04    7.93
  11 -11   6   28.00    3.09
 -11  11  -6   27.46    2.58
  11  11   6   28.90    2.99
 -11  11  -6   27.74    2.51
  11  11   6   29.45    2.50
  13 -11   6  100.81    9.40
 -13  11  -6   98.02    8.08
  13  11   6   95.90    9.26
 -15 -11  -6   44.72    4.47
  15 -11   6   64.19    5.12
  15  11   6   47.60    4.94
 -15  11  -6   47.98    4.28
  17 -11   6   88.99    9.22
 -17 -11  -6   98.93    8.37
 -17  11  -6   99.85    7.98
  17  11   6   97.48    9.17
 -19 -11  -6   31.03    2.90
  19 -11   6   31.50    3.29
  19  11   6   36.87    3.31
 -19  11  -6   24.02    2.71
  21 -11   6   55.05    5.77
 -21 -11  -6   60.01    5.21
 -21  11  -6   60.59    4.94
  21  11   6   55.33    5.71
 -23 -11  -6   21.61    2.08
  23 -11   6   16.74    2.47
  23  11   6   18.65    2.27
 -23  11  -6   20.21    1.96
  24 -12  -6   22.69    2.37
 -24 -12   6   23.87    2.72
  24  12  -6   23.80    2.28
 -24  12   6   28.67    2.34
 -22 -12   6   20.36    2.07
  22 -12  -6   15.21    1.86
 -22  12   6   15.77    1.67
  22  12  -6   15.77    1.65
 -20 -12   6   16.04    2.19
  20 -12  -6   16.24    1.75
 -20  12   6   20.92    1.75
  20  12  -6   15.03    1.65
  18 -12  -6    7.11    1.00
 -18 -12   6    6.91    1.22
 -18  12   6    5.75    0.90
  18  12  -6    7.00    0.90
 -16 -12   6   16.86    1.76
  16 -12  -6    8.69    1.33
  16  12  -6   12.95    1.29
 -16  12   6   11.95    1.39
 -14 -12   6   13.22    1.72
  14 -12  -6   10.76    1.31
 -14  12   6   10.14    1.25
  14  12  -6   11.67    1.30
  12 -12  -6   41.68    3.21
 -12 -12   6   36.88    3.75
 -12  12   6   30.63    3.12
  12  12  -6   36.30    3.12
 -10 -12   6    8.52    1.42
  10 -12  -6   10.49    1.16
 -10  12   6    8.18    1.07
  10  12  -6    8.35    1.05
   8 -12  -6   27.27    2.80
   8  12  -6   31.92    2.80
  -8  12   6   38.19    2.87
  -6 -12   6    6.68    1.18
   6 -12  -6    7.17    0.87
  -6  12   6    4.85    0.80
   6  12  -6    6.05    0.82
   4 -12  -6   61.81    5.11
  -4  12   6   49.60    5.07
   4  12  -6   73.94    5.13
   2 -12  -6    0.29    0.31
  -2 -12   6    0.04    0.54
  -2  12   6    0.29    0.33
   2  12  -6    0.50    0.33
   0 -12   6   55.08    5.42
   0  12   6   51.93    4.54
   0  12  -6   56.23    4.55
   2 -12   6    0.34    0.59
   2  12   6    0.84    0.41
   2  12   6    0.99    0.35
  -2  12  -6   -0.03    0.38
  -2  12  -6    0.36    0.37
   4 -12   6   60.64    6.05
  -4  12  -6   74.52    5.14
  -4  12  -6   59.96    5.17
   4  12   6   50.81    5.10
   4  12   6   61.63    5.08
   6 -12   6   -0.04    0.53
   6  12   6    0.19    0.31
   6  12   6    0.41    0.37
  -6  12  -6    0.41    0.39
  -6  12  -6    0.01    0.31
   8 -12   6   38.47    3.72
  -8  12  -6   37.03    3.03
  -8  12  -6   33.94    3.10
   8  12   6   31.73    3.01
  10 -12   6   -0.30    0.47
 -10 -12  -6   -0.07    0.42
 -10  12  -6    0.00    0.37
  10  12   6    0.10    0.36
 -10  12  -6    0.54    0.39
  12 -12   6   31.47    3.18
 -12  12  -6   27.25    2.64
  14 -12   6    1.42    0.70
  14  12   6    1.94    0.77
 -14  12  -6    2.04    0.58
  16 -12   6   15.85    2.08
  16  12   6   13.21    1.89
  18 -12   6    0.86    0.67
 -18  12  -6    0.86    0.49
  18  12   6    1.36    0.65
  20 -12   6   13.10    2.02
 -20  12  -6   14.09    1.61
  20  12   6   15.52    2.02
  21 -13  -6   22.09    2.24
 -21 -13   6   22.02    2.60
 -21  13   6   24.40    2.19
  21  13  -6   23.18    2.13
 -19 -13   6    6.02    1.15
  19 -13  -6    3.95    0.83
 -19  13   6    5.41    0.84
  19  13  -6    6.11    0.84
  17 -13  -6   21.69    2.18
 -17 -13   6   19.80    2.49
  17  13  -6   21.72    2.09
 -17  13   6   27.06    2.15
  15 -13  -6    1.54    0.54
 -15 -13   6    1.74    0.73
  15  13  -6    2.63    0.59
 -15  13   6    2.26    0.58
  13 -13  -6   26.69    2.33
 -13 -13   6   25.69    2.81
 -13  13   6   22.94    2.28
  13  13  -6   25.02    2.28
  11 -13  -6    4.40    0.76
 -11 -13   6    4.94    1.11
  11  13  -6    6.14    0.83
 -11  13   6    5.13    0.80
   9 -13  -6   24.48    2.20
  -9 -13   6   20.74    2.65
   9  13  -6   27.72    2.20
  -9  13   6   21.17    2.17
  -7 -13   6    5.82    1.19
   7 -13  -6    5.53    0.82
  -7  13   6    4.67    0.77
   7  13  -6    5.78    0.80
   5 -13  -6   21.47    1.93
  -5 -13   6   18.51    2.38
  -5  13   6   21.83    1.95
   5  13  -6   19.66    1.89
  -3 -13   6   12.87    2.00
   3 -13  -6   15.01    1.49
  -3  13   6   14.64    1.48
   3  13  -6   15.33    1.45
   1 -13  -6   21.30    1.87
  -1 -13   6   12.96    2.32
  -1  13   6   22.75    1.92
   1  13  -6   20.53    1.85
   1 -13   6    6.07    1.34
  -1  13  -6    7.75    0.98
   1  13   6    8.86    1.02
   3 -13   6   18.45    2.21
  -3  13  -6   20.02    1.83
  -3  13  -6   16.71    1.69
   3  13   6   17.67    1.66
   3  13   6   17.37    1.72
   5 -13   6    3.59    0.99
  -5  13  -6    3.78    0.73
   5  13   6    3.15    0.68
  -5  13  -6    4.07    0.67
   5  13   6    3.64    0.62
   7 -13   6    6.15    1.24
  -7  13  -6    4.27    0.75
   7  13   6    6.23    0.79
  -7  13  -6    5.77    0.90
   9 -13   6   15.15    2.09
   9  13   6   14.10    1.45
  -9  13  -6   14.69    1.56
  -9  13  -6   14.14    1.45
  11 -13   6    1.90    0.78
 -11  13  -6    2.85    0.63
  13 -13   6   18.99    2.43
 -13  13  -6   16.62    1.75
  15 -13   6    1.29    0.73
 -15 -13  -6    2.15    0.75
 -15  13  -6    2.22    0.60
  17 -13   6    9.73    1.89
  17  13   6   18.86    1.95
 -17  13  -6   14.69    1.55
 -16 -14   6   58.99    7.16
  16 -14  -6   81.10    6.28
  16  14  -6   81.61    6.19
 -16  14   6   75.09    6.21
 -14 -14   6   24.55    2.69
  14 -14  -6   25.97    2.25
  14  14  -6   23.75    2.19
 -14  14   6   20.89    2.17
 -12 -14   6   78.29    8.31
  12 -14  -6   94.94    7.22
 -12  14   6   89.92    7.18
  12  14  -6   83.69    7.14
 -10 -14   6   33.24    3.95
 -10  14   6   42.47    3.38
  10  14  -6   38.85    3.34
   8 -14  -6  112.11    9.22
  -8 -14   6  114.79   10.74
  -8  14   6  108.01    9.20
   8  14  -6  116.50    9.18
  -6 -14   6   15.94    2.16
   6 -14  -6   13.65    1.51
   6  14  -6   16.05    1.51
  -6  14   6   14.64    1.53
   4 -14  -6  100.36    8.58
  -4 -14   6  107.93   10.05
  -4  14   6  107.37    8.59
   4  14  -6  105.27    8.56
   2 -14  -6    8.79    0.98
  -2 -14   6    5.32    1.23
  -2  14   6    5.61    0.89
   2  14  -6    5.53    0.84
   0 -14   6  109.41   11.10
   0 -14  -6  121.77    9.56
   0  14  -6  118.56    9.53
   0  14   6  117.61    9.57
   2 -14   6    3.02    0.97
  -2  14  -6    2.89    0.58
   2  14   6    2.42    0.61
   4 -14   6   85.71    8.62
  -4  14  -6   90.32    7.33
  -4  14  -6   91.51    7.47
   6 -14   6    1.90    0.78
  -6  14  -6    1.83    0.49
   6  14   6    1.59    0.45
  -6  14  -6    0.27    0.47
   8 -14   6   72.17    6.92
   8  14   6   78.73    5.85
  -8  14  -6   56.34    5.79
  -8  14  -6   78.07    5.95
  10 -14   6    0.42    0.58
 -10  14  -6    0.25    0.41
  10  14   6    0.23    0.36
 -10  14  -6    0.24    0.43
  12 -14   6  125.51   10.74
 -12  14  -6  102.04    9.19
  14 -14   6    0.93    0.73
 -14  14  -6    1.65    0.55
  11 -15  -6    3.42    0.71
 -11 -15   6    3.36    0.96
 -11  15   6    3.42    0.68
  11  15  -6    3.49    0.65
  -9 -15   6   94.29    9.33
   9 -15  -6  103.61    8.06
  -9  15   6   94.18    8.02
  -7 -15   6   23.77    3.09
   7 -15  -6   33.75    2.65
   7  15  -6   28.34    2.56
  -7  15   6   28.80    2.59
   5 -15  -6   45.00    4.19
  -5 -15   6   62.13    5.15
  -5  15   6   46.53    4.20
   3 -15  -6   27.24    2.35
  -3 -15   6   23.13    2.86
   3  15  -6   26.14    2.30
  -3  15   6   24.47    2.34
  -1 -15   6   53.99    5.38
   1 -15  -6   53.41    4.51
  -1  15   6   51.92    4.51
   1  15  -6   53.04    4.47
  -1 -15  -6   17.50    1.81
   1 -15   6   22.15    2.71
  -1  15  -6   18.26    1.83
   1  15   6   21.72    1.92
   3 -15   6   48.59    5.14
  -3 -15  -6   53.29    4.31
  -3  15  -6   49.57    4.27
  -5  15  -6   27.58    2.48
   7 -15   6   49.98    4.56
  -7  15  -6   43.76    3.79
  -7  15  -6   38.86    3.67
   9 -15   6   42.00    4.36
   9  15   6   43.28    3.56
  -9  15  -6   38.83    3.62
 -34   0   7   -0.20    0.43
 -32   0   7    0.12    0.44
  32   0  -7    0.18    0.46
 -30   0   7    0.33    0.44
  30   0  -7   -0.28    0.39
  28   0  -7   -0.05    0.39
 -28   0   7   -0.14    0.39
  26   0  -7    0.46    0.44
 -26   0   7    0.21    0.44
  24   0  -7    0.55    0.41
 -24   0   7   -0.01    0.38
  22   0  -7   -0.14    0.34
 -22   0   7    0.36    0.39
 -20   0   7    0.13    0.37
  20   0  -7    0.21    0.37
  20   0  -7    0.19    0.35
  18   0  -7   -0.15    0.32
 -18   0   7   -0.19    0.33
  18   0  -7    0.13    0.31
  16   0  -7    0.10    0.27
  16   0  -7   -0.22    0.27
 -16   0   7    0.13    0.30
 -16   0   7   -0.06    0.19
 -14   0   7    0.15    0.31
  14   0  -7    0.15    0.24
  14   0  -7    0.47    0.32
 -14   0   7    0.62    0.24
 -12   0   7   -0.34    0.24
  12   0  -7   -0.05    0.28
  12   0  -7   -0.03    0.21
 -12   0   7    0.18    0.20
 -10   0   7    0.21    0.19
 -10   0   7   -0.17    0.25
  10   0  -7    0.17    0.21
  10   0  -7    0.02    0.28
  -8   0   7    0.17    0.18
  -8   0   7   -0.17    0.26
  -8   0   7    0.33    0.19
   8   0  -7   -0.29    0.25
   6   0  -7    0.41    0.28
  -6   0   7    0.21    0.18
  -6   0   7    0.57    0.30
  -6   0   7   -0.05    0.18
  -4   0   7    0.02    0.19
   4   0  -7    0.07    0.24
   4   0  -7    0.08    0.25
  -4   0   7    0.28    0.28
  -2   0   7    0.16    0.26
   2   0  -7    0.22    0.22
   2   0  -7   -0.17    0.22
  -2   0   7    0.27    0.21
   0   0  -7    0.23    0.21
   0   0   7    0.07    0.24
   0   0   7   -0.12    0.22
   0   0  -7    0.35    0.25
   2   0   7   -0.33    0.22
  -2   0  -7   -0.02    0.27
  -2   0  -7    0.09    0.20
   2   0   7    0.02    0.27
  -4   0  -7    0.11    0.27
   4   0   7    0.00    0.22
   4   0   7    0.09    0.26
  -4   0  -7    0.24    0.17
   6   0   7   -0.18    0.29
   6   0   7   -0.22    0.22
  -6   0  -7   -0.19    0.25
   8   0   7   -0.05    0.34
  -8   0  -7   -0.01    0.28
   8   0   7    0.12    0.24
  10   0   7    0.10    0.37
 -10   0  -7   -0.35    0.27
  10   0   7    0.06    0.24
  12   0   7    0.22    0.28
 -12   0  -7    0.30    0.32
  12   0   7   -0.11    0.31
 -14   0  -7   -0.16    0.30
  14   0   7   -0.03    0.27
  14   0   7    0.00    0.40
  16   0   7   -0.16    0.26
 -16   0  -7   -0.02    0.35
  16   0   7    0.71    0.52
  18   0   7    0.42    0.34
 -18   0  -7    0.31    0.39
  18   0   7    0.02    0.47
  20   0   7    0.27    0.42
 -20   0  -7    0.13    0.40
 -22   0  -7    0.07    0.37
  22   0   7    0.15    0.51
 -22   0  -7    0.20    0.34
  24   0   7    0.22    0.56
 -24   0  -7   -0.21    0.43
 -24   0  -7    0.35    0.37
  26   0   7    0.14    0.46
 -26   0  -7   -0.17    0.36
 -28   0  -7   -0.01    0.41
  28   0   7    0.35    0.52
  30   0   7    0.13    0.49
 -30   0  -7    0.35    0.39
 -32   0  -7    0.12    0.43
  32   0   7    0.07    0.56
 -35  -1   7   32.48    3.22
 -35   1   7   35.12    3.26
 -33  -1   7   31.81    3.07
  33  -1  -7   30.17    2.95
 -33   1   7   32.49    3.10
  33   1  -7   33.84    2.95
 -31  -1   7   56.92    5.86
  31  -1  -7   67.82    5.63
  31   1  -7   73.59    5.65
 -31   1   7   67.09    5.91
 -29  -1   7   27.56    2.83
  29  -1  -7   24.33    2.67
  29   1  -7   30.35    2.69
 -29   1   7   36.34    2.92
 -27  -1   7  103.68    8.59
  27  -1  -7   94.39    8.16
 -27   1   7  105.47    8.58
  27   1  -7   91.72    8.14
 -25  -1   7   64.84    5.76
  25  -1  -7   60.25    5.47
  25   1  -7   61.01    5.46
 -25   1   7   75.09    5.80
  23  -1  -7  251.46   18.93
  23   1  -7  241.74   18.91
  23   1  -7  243.51   21.52
 -23   1   7  203.73   19.82
 -21  -1   7   12.13    1.67
  21  -1  -7   17.20    1.59
 -21   1   7   16.12    1.65
  21   1  -7   17.17    1.58
  21   1  -7   15.05    1.71
 -19  -1   7  163.48   12.94
  19  -1  -7  144.73   12.30
 -19   1   7  157.21   12.94
  19   1  -7  148.12   13.96
  19   1  -7  147.28   12.30
  17  -1  -7   10.51    1.22
 -17  -1   7   10.77    1.27
 -17   1   7   12.19    1.01
 -17   1   7    9.05    1.22
  17   1  -7    9.46    1.17
  17   1  -7    9.78    1.19
  15  -1  -7  182.87   17.46
 -15  -1   7  197.86   16.21
  15  -1  -7  205.38   15.46
 -15  -1   7  191.11   15.28
 -15   1   7  184.06   16.19
  15   1  -7  180.07   15.43
  15   1  -7  194.43   17.50
 -15   1   7  199.61   15.31
 -13  -1   7    5.64    0.59
  13  -1  -7    6.61    0.85
  13  -1  -7    5.48    0.69
 -13  -1   7    6.23    0.83
 -13   1   7    5.42    0.65
  13   1  -7    6.09    0.80
 -13   1   7    4.46    0.76
  13   1  -7    6.97    0.76
 -11  -1   7  124.98   10.36
 -11  -1   7  117.24    9.73
  11  -1  -7  116.90   11.09
 -11   1   7  120.67   10.35
  11   1  -7  123.69    9.87
  11   1  -7  123.87   11.14
 -11   1   7  127.18    9.77
  -9  -1   7    2.99    0.56
  -9  -1   7    3.09    0.50
   9  -1  -7    2.67    0.54
  -9   1   7    3.52    0.39
   9   1  -7    3.03    0.55
  -9   1   7    3.18    0.44
  -9   1   7    2.85    0.55
   9   1  -7    3.54    0.46
   7  -1  -7  246.48   20.23
  -7  -1   7  268.73   23.00
  -7  -1   7  248.31   21.25
  -7   1   7  250.92   21.25
   7   1  -7  252.47   20.23
  -7   1   7  250.71   20.15
   7   1  -7  253.59   20.17
   5  -1  -7    5.91    0.69
  -5  -1   7    6.35    0.75
  -5  -1   7    6.04    0.68
  -5   1   7    4.12    0.56
   5   1  -7    5.41    0.67
  -5   1   7    3.83    0.66
   5   1  -7    5.57    0.64
  -3  -1   7  303.97   27.73
   3  -1  -7  380.25   26.42
  -3  -1   7  347.08   30.10
  -3   1   7  332.28   30.01
  -3   1   7  332.15   27.74
   3   1  -7  337.41   26.40
  -3   1   7  315.87   26.35
   3   1  -7  304.04   26.38
   1  -1  -7   36.70    2.94
  -1  -1   7   33.08    3.07
  -1  -1   7   35.25    3.35
   1  -1  -7   35.13    2.92
  -1   1   7   33.95    3.09
   1   1  -7   33.04    2.94
  -1   1   7   37.16    3.28
   1   1  -7   35.89    2.92
  -1  -1  -7  528.17   41.80
  -1  -1  -7  515.23   41.81
   1  -1   7  543.63   47.71
   1  -1   7  527.62   43.91
   1   1   7  548.85   47.66
  -1   1  -7  503.31   41.81
   1   1   7  517.25   43.91
  -1   1  -7  525.09   41.78
  -3  -1  -7   28.98    2.65
   3  -1   7   28.79    3.02
   3  -1   7   32.49    2.76
  -3  -1  -7   32.52    2.58
   3   1   7   31.81    2.77
  -3   1  -7   31.15    2.56
   3   1   7   31.38    3.01
  -3   1  -7   31.57    2.67
   5  -1   7  418.65   35.56
  -5  -1  -7  384.20   31.12
   5  -1   7  391.39   32.65
  -5   1  -7  370.26   31.12
   7  -1   7   47.94    4.57
  -7  -1  -7   47.23    3.98
   7  -1   7   47.39    4.12
  -7   1  -7   46.23    3.98
   7   1   7   51.03    4.15
   7   1   7   45.16    4.52
   9  -1   7  294.25   23.78
  -9  -1  -7  290.38   22.69
   9  -1   7  303.59   25.94
   9   1   7  244.58   25.87
  -9   1  -7  287.22   22.69
 -11  -1  -7   12.08    1.21
  11  -1   7   11.37    1.50
  11  -1   7   11.89    1.18
 -11   1  -7   11.88    1.20
  11   1   7   10.45    1.17
  11   1   7   12.35    1.56
 -13  -1  -7  237.75   20.28
  13  -1   7  265.97   23.24
  13  -1   7  255.45   21.26
  13   1   7  264.12   21.27
  13   1   7  243.34   23.19
  15  -1   7   28.95    2.54
  15  -1   7   25.36    2.86
 -15  -1  -7   28.31    2.49
 -15   1  -7   26.87    2.47
  15   1   7   27.59    2.53
  15   1   7   28.08    2.87
  17  -1   7   51.91    4.98
  17  -1   7   60.02    5.54
 -17  -1  -7   67.32    4.84
 -17   1  -7   63.31    4.83
  17   1   7   44.35    5.45
  17   1   7   57.89    4.99
  19  -1   7   33.23    3.83
  19  -1   7   36.44    3.39
 -19  -1  -7   39.20    3.33
  19   1   7   41.60    3.45
 -19   1  -7   38.75    3.33
 -21  -1  -7   75.33    6.41
  21  -1   7   72.66    7.38
 -21  -1  -7   83.57    6.70
  21   1   7   71.98    7.37
 -21   1  -7   80.10    6.70
 -21   1  -7   77.47    6.43
 -23  -1  -7   26.91    2.47
 -23  -1  -7   23.94    2.43
  23  -1   7   26.44    2.83
 -23   1  -7   25.47    2.44
 -23   1  -7   26.08    2.49
  25  -1   7   84.89    7.26
 -25  -1  -7   87.99    6.57
  25   1   7   66.49    7.16
 -25   1  -7   70.98    6.52
 -25   1  -7   64.69    6.22
  27  -1   7   28.34    3.22
 -27  -1  -7   34.72    2.94
 -27   1  -7   28.22    2.89
  27   1   7   31.06    3.29
  29  -1   7   31.05    3.07
 -29  -1  -7   25.13    2.68
  29   1   7   21.88    2.94
 -29   1  -7   36.11    2.81
  31  -1   7   35.09    3.84
 -31  -1  -7   39.88    3.50
 -31   1  -7   32.77    3.45
  31   1   7   40.17    3.87
 -34  -2   7    3.46    0.79
 -34   2   7    2.12    0.68
 -32  -2   7   85.24    7.91
  32  -2  -7   85.97    7.57
 -32   2   7   90.51    7.95
  32   2  -7  101.51    7.58
  30  -2  -7   10.68    1.48
 -30  -2   7   13.10    1.57
  30   2  -7   13.36    1.53
 -30   2   7   12.32    1.57
 -28  -2   7  202.15   15.38
  28  -2  -7  173.91   14.65
 -28   2   7  164.49   15.36
  28   2  -7  181.97   14.63
 -26  -2   7   24.82    2.52
  26  -2  -7   27.45    2.45
 -26   2   7   24.04    2.53
  26   2  -7   26.25    2.42
  26   2  -7   27.90    2.75
 -24  -2   7  256.67   22.52
  24  -2  -7  243.97   21.46
  24   2  -7  300.41   24.49
 -24   2   7  256.98   22.55
  24   2  -7  278.68   21.47
  22  -2  -7   31.24    2.82
 -22  -2   7   31.64    2.91
  22   2  -7   34.51    3.17
 -22   2   7   28.50    2.91
  22   2  -7   30.51    2.79
 -20  -2   7  204.68   18.16
  20  -2  -7  200.70   17.31
  20   2  -7  245.31   19.73
 -20   2   7  222.54   18.20
 -20   2   7  203.55   17.19
 -18  -2   7   70.87    6.15
  18  -2  -7   73.14    5.86
 -18   2   7   67.54    5.72
  18   2  -7   73.64    6.60
 -18   2   7   67.93    6.12
  18   2  -7   69.06    5.83
 -16  -2   7  266.68   22.43
 -16   2   7  267.18   21.26
 -16   2   7  258.04   22.42
  16   2  -7  270.36   21.37
  16   2  -7  271.06   24.28
 -14  -2   7  201.97   16.33
  14  -2  -7  192.45   15.55
 -14   2   7  171.29   16.29
  14   2  -7  194.45   15.54
  14   2  -7  205.60   17.65
 -14   2   7  193.29   15.44
  12  -2  -7  458.61   36.35
 -12  -2   7  450.43   38.15
  12   2  -7  473.07   41.34
  12   2  -7  454.20   36.33
 -12   2   7  431.75   36.22
  12   2  -7  467.45   36.21
 -10  -2   7  131.36   12.27
 -10  -2   7  134.40   11.35
  10  -2  -7  133.97   10.82
 -10   2   7  130.02   10.73
  10   2  -7  138.93   10.73
  10   2  -7  135.53   10.82
   8  -2  -7  322.44   26.80
  -8  -2   7  331.69   28.13
  -8  -2   7  349.44   30.51
  -8   2   7  331.13   26.72
  -8   2   7  340.36   28.14
   8   2  -7  337.67   26.79
   8   2  -7  338.56   26.72
  -6  -2   7  228.69   18.44
  -6  -2   7  203.97   17.00
   6  -2  -7  176.35   16.16
   6   2  -7  202.59   16.14
  -6   2   7  196.79   16.12
  -6   2   7  205.28   17.01
   4  -2  -7  281.99   25.81
  -4  -2   7  337.48   29.46
  -4  -2   7  339.74   27.13
   4   2  -7  333.04   25.80
  -4   2   7  313.10   25.78
   4   2  -7  347.10   25.83
  -4   2   7  317.50   27.13
  -2  -2   7  387.82   31.62
   2  -2  -7  383.67   30.10
  -2  -2   7  321.36   34.32
  -2   2   7  391.47   30.06
   2   2  -7  369.24   30.09
  -2   2   7  406.08   31.63
   2   2  -7  387.65   30.09
   0  -2  -7  317.90   23.34
   0  -2   7  285.32   26.66
   0   2  -7  289.31   23.31
   0   2  -7  256.47   23.33
   0   2   7  295.50   26.56
   0   2   7  308.74   23.32
   0   2   7  296.25   24.52
  -2  -2  -7  437.43   35.71
   2  -2   7  437.74   40.81
  -2  -2  -7  438.99   35.74
   2  -2   7  449.11   37.52
   2   2   7  500.09   40.74
   2   2   7  439.61   37.53
  -2   2  -7  442.90   35.70
  -4  -2  -7  200.19   15.68
   4  -2   7  195.88   16.43
   4  -2   7  208.41   17.95
  -4  -2  -7  200.23   15.61
  -4   2  -7  199.03   15.59
   4   2   7  183.16   17.84
  -4   2  -7  183.90   15.69
   6  -2   7  333.71   31.93
   6  -2   7  344.57   29.30
  -6  -2  -7  383.70   27.86
  -6  -2  -7  358.49   27.95
  -6   2  -7  352.85   27.96
   6   2   7  333.94   29.33
   6   2   7  344.04   31.86
   8  -2   7   44.81    3.88
  -8  -2  -7   43.77    3.75
   8  -2   7   42.64    4.34
   8   2   7   45.83    3.91
   8   2   7   47.83    4.31
  -8   2  -7   42.90    3.76
  10  -2   7  226.09   19.35
 -10  -2  -7  261.07   18.51
  10  -2   7  221.31   21.13
  10   2   7  216.27   21.10
  10   2   7  225.96   19.38
 -10   2  -7  233.61   18.49
  12  -2   7   76.13    6.76
  12  -2   7   78.62    7.49
 -12  -2  -7   84.28    6.51
  12   2   7   76.41    7.45
 -12   2  -7   70.55    6.48
  12   2   7   88.48    6.80
  14  -2   7  232.30   19.61
  14  -2   7  263.49   21.47
 -14  -2  -7  218.56   18.71
 -14   2  -7  228.40   18.74
  14   2   7  239.98   21.44
  14   2   7  221.68   19.61
  16  -2   7   14.47    1.55
 -16  -2  -7   18.52    1.60
  16  -2   7   13.82    1.80
  16   2   7   20.29    1.60
  16   2   7   12.36    1.72
 -16   2  -7   14.84    1.56
  18  -2   7  202.28   16.77
 -18  -2  -7  198.77   16.01
  18  -2   7  210.33   18.38
  18   2   7  204.86   16.78
  18   2   7  196.98   18.32
 -18   2  -7  180.02   15.99
  20  -2   7    3.19    0.76
 -20  -2  -7    2.89    0.66
  20   2   7    3.20    0.84
 -20   2  -7    2.82    0.65
 -20   2  -7    4.04    0.68
  22  -2   7  206.32   19.37
 -22  -2  -7  211.71   16.92
 -22  -2  -7  208.93   17.71
 -22   2  -7  214.69   17.73
 -22   2  -7  205.81   16.90
 -24  -2  -7   21.07    2.15
  24  -2   7   23.65    2.49
 -24   2  -7   30.86    2.22
 -24   2  -7   22.64    2.15
  24   2   7   15.03    2.33
  26  -2   7  172.18   14.85
 -26  -2  -7  150.36   13.51
 -26   2  -7  153.62   12.93
 -26   2  -7  162.03   13.59
 -28  -2  -7    7.06    1.07
  28  -2   7    7.82    1.37
 -28   2  -7    8.08    1.12
 -28   2  -7    7.51    1.12
  28   2   7    8.04    1.34
  30  -2   7  120.84   11.34
 -30  -2  -7  121.21   10.35
  30   2   7  116.25   11.30
 -30   2  -7  120.79   10.37
  32  -2   7    1.58    0.74
 -32  -2  -7    2.12    0.62
  32   2   7    0.86    0.68
 -35  -3   7   12.82    1.93
 -35   3   7   18.77    1.90
  33  -3  -7   11.43    1.52
 -33  -3   7   12.62    1.57
 -33   3   7   11.31    1.59
  33   3  -7   12.30    1.51
 -31  -3   7   11.67    1.42
  31  -3  -7   10.29    1.39
 -31   3   7   10.21    1.45
  31   3  -7   10.90    1.37
 -29  -3   7   17.14    1.96
  29  -3  -7   21.20    1.99
  29   3  -7   19.63    1.92
 -29   3   7   20.66    2.10
 -27  -3   7   29.11    2.64
  27  -3  -7   20.85    2.50
 -27   3   7   32.64    2.74
  27   3  -7   29.73    2.53
  27   3  -7   25.92    2.88
  25  -3  -7   15.83    1.61
 -25  -3   7   14.51    1.60
  25   3  -7   14.61    1.52
 -25   3   7   14.41    1.62
  25   3  -7   14.36    1.73
  23  -3  -7   47.77    4.29
 -23  -3   7   45.40    4.44
 -23   3   7   49.41    4.50
  23   3  -7   53.23    4.87
  23   3  -7   54.43    4.28
  21  -3  -7   25.62    2.72
 -21  -3   7   24.77    2.82
  21   3  -7   30.21    2.73
 -21   3   7   31.81    2.90
  21   3  -7   35.39    3.12
 -21   3   7   36.41    2.67
  19  -3  -7   61.96    5.42
  19   3  -7   55.02    5.38
 -19   3   7   68.56    5.33
 -19   3   7   68.38    5.69
  19   3  -7   70.12    6.14
 -17  -3   7    3.37    0.66
  17  -3  -7    2.56    0.57
  17   3  -7    2.92    0.61
  17   3  -7    3.04    0.59
 -17   3   7    2.85    0.61
 -17   3   7    3.19    0.50
  15  -3  -7  186.66   15.14
 -15  -3   7  187.95   15.88
 -15   3   7  188.23   15.88
  15   3  -7  186.23   17.18
  15   3  -7  194.19   15.13
 -15   3   7  184.99   15.04
 -13  -3   7    0.33    0.34
  13  -3  -7    0.28    0.34
 -13   3   7    0.20    0.30
 -13   3   7    0.18    0.22
  13   3  -7   -0.30    0.26
  13   3  -7    0.35    0.30
 -11  -3   7  180.94   15.69
 -11  -3   7  185.47   17.00
  11  -3  -7  176.18   14.93
 -11   3   7  179.62   14.87
  11   3  -7  186.67   14.83
 -11   3   7  188.76   15.71
  11   3  -7  205.31   14.96
  -9  -3   7    2.29    0.46
  -9  -3   7    2.21    0.50
   9  -3  -7    1.55    0.42
   9   3  -7    2.54    0.38
   9   3  -7    1.98    0.45
  -9   3   7    2.16    0.48
  -9   3   7    2.22    0.37
  -7  -3   7  148.38   11.64
   7  -3  -7  145.39   11.08
  -7  -3   7  118.93   12.59
  -7   3   7  116.99   11.01
   7   3  -7  141.76   11.07
  -7   3   7  147.88   11.65
   7   3  -7  145.50   11.02
  -5  -3   7    3.02    0.51
   5  -3  -7    2.39    0.44
  -5  -3   7    2.69    0.55
   5   3  -7    2.69    0.43
   5   3  -7    2.48    0.43
  -5   3   7    2.16    0.38
  -5   3   7    1.35    0.40
  -3  -3   7   67.47    6.61
  -3  -3   7   85.94    7.25
   3  -3  -7   81.77    6.30
   3   3  -7   74.10    6.28
   3   3  -7   72.83    6.28
  -3   3   7   83.36    6.28
   1  -3  -7    7.86    0.75
  -1  -3   7    6.77    1.00
  -1  -3   7    6.54    0.83
   1   3  -7    7.13    0.74
  -1   3   7    6.34    0.73
  -1   3   7    7.39    0.79
  -1   3   7    7.21    0.86
   1   3  -7    7.28    0.83
   1  -3   7   75.10    6.94
   1  -3   7   86.40    7.65
  -1  -3  -7   84.29    6.59
   1   3   7   69.48    6.59
  -1   3  -7   80.53    6.65
   1   3   7   96.94    6.98
   1   3   7   87.16    7.50
  -1   3  -7   75.26    6.57
  -3  -3  -7   -0.15    0.18
   3  -3   7    0.34    0.37
   3  -3   7    0.49    0.25
   3   3   7    0.08    0.23
   3   3   7    0.23    0.21
   3   3   7    0.19    0.25
  -3   3  -7    0.39    0.20
  -3   3  -7    0.48    0.32
  -5  -3  -7   16.03    1.35
  -5  -3  -7   14.76    1.44
   5  -3   7   19.42    1.48
   5  -3   7   15.13    1.73
  -5   3  -7   13.34    1.44
   5   3   7   15.31    1.49
  -5   3  -7   14.39    1.32
   5   3   7   15.62    1.63
   7  -3   7    0.80    0.45
  -7  -3  -7    1.70    0.26
   7  -3   7    0.50    0.28
  -7  -3  -7    1.27    0.37
   7   3   7    0.90    0.42
   7   3   7    0.74    0.31
  -7   3  -7    0.78    0.21
  -7   3  -7    0.75    0.38
  -9  -3  -7   54.54    4.52
   9  -3   7   52.65    5.21
   9  -3   7   57.99    4.68
  -9   3  -7   47.57    4.51
   9   3   7   60.48    5.20
   9   3   7   51.66    4.70
 -11  -3  -7   31.30    2.67
  11  -3   7   31.76    2.73
  11  -3   7   27.60    3.10
  11   3   7   28.91    2.75
  11   3   7   30.90    3.07
 -11   3  -7   31.93    2.69
  13  -3   7  167.37   15.21
 -13  -3  -7  150.42   13.23
 -13   3  -7  175.26   13.28
  13   3   7  164.90   13.88
  15  -3   7    4.03    0.90
  15  -3   7    4.54    0.69
 -15  -3  -7    4.14    0.70
 -15   3  -7    3.52    0.68
  15   3   7    5.08    0.93
  15   3   7    3.98    0.66
  17  -3   7  109.85    8.95
 -17  -3  -7  104.75    8.57
  17   3   7  102.40    8.95
 -17   3  -7  104.36    8.58
  17   3   7  101.29    9.82
  19  -3   7   21.70    2.35
 -19  -3  -7   21.04    2.01
  19   3   7   18.95    2.28
 -19   3  -7   22.60    2.04
  19   3   7   21.77    2.04
 -19   3  -7   18.82    1.99
  21  -3   7   20.69    2.22
 -21  -3  -7   16.78    1.85
 -21  -3  -7   18.62    1.85
 -21   3  -7   20.27    1.89
 -21   3  -7   15.65    1.85
  21   3   7   23.09    2.24
  23  -3   7    9.24    1.40
 -23  -3  -7    8.52    1.10
 -23   3  -7    7.98    1.11
  23   3   7    7.36    1.29
 -23   3  -7    7.13    1.07
  25  -3   7   24.76    2.84
 -25  -3  -7   24.13    2.49
 -25   3  -7   24.87    2.43
 -25   3  -7   29.15    2.57
  25   3   7   27.40    2.88
  27  -3   7   17.96    2.14
 -27  -3  -7   17.71    1.86
  27   3   7   16.87    2.13
 -27   3  -7   18.72    1.85
  29  -3   7   22.74    2.56
 -29  -3  -7   21.54    2.24
  29   3   7   23.37    2.56
 -29   3  -7   22.34    2.22
  31  -3   7   14.32    1.96
 -31  -3  -7   12.31    1.57
  31   3   7   12.29    1.77
 -34  -4   7   -0.22    0.41
  32  -4  -7    8.56    1.28
 -32  -4   7    8.74    1.24
  32   4  -7    8.68    1.21
 -32   4   7   10.66    1.42
 -30  -4   7   -0.04    0.38
  30  -4  -7    0.22    0.48
 -30   4   7    0.63    0.52
  30   4  -7    0.08    0.48
  30   4  -7    0.68    0.48
  28  -4  -7   23.00    2.48
 -28  -4   7   27.27    2.57
  28   4  -7   27.77    2.45
  28   4  -7   27.18    2.78
 -28   4   7   25.46    2.59
  26  -4  -7    0.74    0.50
 -26  -4   7    0.33    0.41
  26   4  -7    0.45    0.42
 -26   4   7    0.07    0.43
  26   4  -7    0.75    0.51
  24  -4  -7   34.25    3.33
 -24  -4   7   41.13    3.51
 -24   4   7   36.50    3.47
  24   4  -7   35.45    3.74
  24   4  -7   41.46    3.32
 -22  -4   7    3.54    0.70
  22  -4  -7    2.24    0.59
 -22   4   7    1.49    0.46
  22   4  -7    3.63    0.73
 -22   4   7    2.10    0.60
  22   4  -7    3.15    0.62
  20  -4  -7   38.60    3.39
 -20  -4   7   43.29    3.53
  20   4  -7   34.52    3.31
  20   4  -7   36.31    3.78
 -20   4   7   40.72    3.28
 -20   4   7   38.71    3.54
  18  -4  -7    5.45    0.88
 -18  -4   7    5.30    0.86
  18   4  -7    7.07    0.99
 -18   4   7    6.72    0.95
  18   4  -7    6.56    0.85
 -18   4   7    6.24    0.78
  16  -4  -7   58.59    4.71
 -16  -4   7   44.60    4.89
  16   4  -7   57.37    5.30
  16   4  -7   62.29    4.68
 -16   4   7   62.94    4.62
 -16   4   7   49.14    4.88
 -14  -4   7   37.65    3.45
  14  -4  -7   36.19    3.29
 -14   4   7   35.55    3.21
  14   4  -7   38.75    3.70
 -14   4   7   45.72    3.51
 -12  -4   7   13.41    1.50
 -12  -4   7   12.86    1.41
  12  -4  -7   13.59    1.34
 -12   4   7   13.73    1.28
  12   4  -7   12.86    1.32
 -12   4   7   15.97    1.44
 -10  -4   7   42.15    3.72
 -10  -4   7   44.47    4.05
  10  -4  -7   45.52    3.56
 -10   4   7   41.17    3.50
  10   4  -7   40.33    3.43
  10   4  -7   47.20    3.55
 -10   4   7   34.37    3.69
  -8  -4   7   44.29    4.14
   8  -4  -7   43.45    3.62
  -8  -4   7   39.81    3.78
  -8   4   7   42.87    3.80
   8   4  -7   46.08    3.62
   8   4  -7   41.03    3.53
  -8   4   7   44.28    3.56
  -6  -4   7   89.32    8.34
  -6  -4   7   83.66    7.63
   6  -4  -7   96.14    7.29
   6   4  -7   87.53    7.27
   6   4  -7   92.62    7.24
  -6   4   7   90.91    7.24
  -6   4   7   87.18    7.64
  -4  -4   7   26.22    2.18
  -4  -4   7   24.06    2.41
   4  -4  -7   22.22    2.04
   4   4  -7   24.03    2.05
  -4   4   7   24.29    2.04
   4   4  -7   22.88    2.05
  -4   4   7   22.32    2.15
  -2  -4   7    6.90    0.83
   2  -4  -7    6.82    0.74
  -2  -4   7    6.99    1.00
   2   4  -7    6.66    0.79
  -2   4   7    6.76    0.81
  -2   4   7    6.51    0.74
  -2   4   7    5.83    0.66
   2   4  -7    5.82    0.72
   0  -4   7   26.19    2.50
   0  -4  -7   29.83    2.40
   0  -4   7   27.29    2.85
   0   4   7   28.85    2.68
   0   4   7   25.28    2.39
   0   4  -7   30.61    2.40
   0   4   7   31.20    2.54
   0   4  -7   27.20    2.44
   2  -4   7    1.76    0.58
  -2  -4  -7    3.15    0.42
   2  -4   7    2.79    0.44
   2   4   7    2.62    0.47
   2   4   7    2.35    0.42
  -2   4  -7    2.37    0.40
   2   4   7    3.06    0.48
  -2   4  -7    1.89    0.46
   4  -4   7    1.17    0.32
  -4  -4  -7    1.65    0.31
   4  -4   7    1.59    0.55
   4   4   7    0.95    0.31
   4   4   7    1.38    0.40
  -4   4  -7    0.61    0.36
   4   4   7    1.60    0.39
  -4   4  -7    1.61    0.29
  -6  -4  -7   30.76    2.60
   6  -4   7   30.61    2.67
   6  -4   7   30.11    3.06
  -6  -4  -7   34.01    2.52
   6   4   7   30.29    2.71
  -6   4  -7   29.78    2.50
   6   4   7   26.98    2.93
  -6   4  -7   28.29    2.62
   8  -4   7   12.60    1.58
   8  -4   7   11.73    1.14
  -8  -4  -7   12.48    1.03
  -8  -4  -7   10.67    1.17
   8   4   7   10.05    1.41
  -8   4  -7   10.59    1.01
   8   4   7   12.50    1.21
  -8   4  -7   11.22    1.20
  10  -4   7   87.28    8.03
  10  -4   7   82.80    7.20
 -10  -4  -7   83.63    6.93
 -10   4  -7   89.41    6.97
  10   4   7   79.95    7.24
  10   4   7   85.98    7.94
 -12  -4  -7    2.41    0.51
  12  -4   7    2.15    0.45
  12  -4   7    2.76    0.71
  12   4   7    2.50    0.51
  12   4   7    2.24    0.63
 -12   4  -7    2.03    0.52
  14  -4   7   20.20    1.88
  14  -4   7   20.00    2.21
 -14  -4  -7   18.84    1.85
  14   4   7   16.69    2.09
  14   4   7   20.78    1.90
 -14   4  -7   21.50    1.90
  16  -4   7   14.69    1.48
 -16  -4  -7   16.61    1.52
  16  -4   7   15.12    1.79
  16   4   7   13.81    1.48
  16   4   7   13.43    1.70
 -16   4  -7   13.26    1.48
 -18  -4  -7   27.00    2.48
  18  -4   7   25.01    2.86
 -18   4  -7   26.32    2.46
  18   4   7   27.56    2.51
 -18   4  -7   29.61    2.53
  18   4   7   25.20    2.85
  20  -4   7    6.09    1.15
  20   4   7    7.35    1.21
 -20   4  -7    6.72    0.96
 -20   4  -7    6.30    0.94
  22  -4   7   38.21    3.72
 -22  -4  -7   29.00    3.21
  22   4   7   35.12    3.63
 -22   4  -7   41.41    3.20
  24  -4   7    1.06    0.58
 -24  -4  -7    0.31    0.40
  24   4   7    0.08    0.54
 -24   4  -7   -0.32    0.40
  26  -4   7    8.52    1.43
 -26  -4  -7    7.42    1.05
 -26   4  -7    7.56    1.10
  26   4   7    7.71    1.29
  28  -4   7    1.23    0.71
 -28  -4  -7    0.79    0.48
 -28   4  -7    1.68    0.58
  28   4   7    1.41    0.69
  30  -4   7   10.56    1.53
 -30  -4  -7    9.83    1.28
  30   4   7    7.58    1.37
 -30   4  -7    8.10    1.22
 -33  -5   7   35.18    3.45
  33  -5  -7   36.25    3.46
  33   5  -7   39.74    3.32
 -31  -5   7   61.26    5.79
  31  -5  -7   78.52    5.68
  31   5  -7   59.74    6.31
  29  -5  -7   53.27    4.31
 -29  -5   7   54.00    4.48
  29   5  -7   37.51    4.74
  29   5  -7   53.60    4.22
 -27  -5   7  131.29   11.69
  27   5  -7  153.55   12.73
  27   5  -7  126.73   11.09
 -27   5   7  135.32   11.74
 -25  -5   7   32.04    3.22
  25  -5  -7   38.25    3.18
  25   5  -7   33.95    3.05
 -25   5   7   26.66    3.23
  25   5  -7   39.15    3.57
 -25   5   7   39.07    3.04
  23  -5  -7  208.49   15.58
  23   5  -7  197.71   15.52
 -23   5   7  182.88   16.33
  23   5  -7  202.31   17.72
 -23   5   7  173.03   15.44
  21  -5  -7   26.57    2.28
 -21  -5   7   22.08    2.31
  21   5  -7   26.59    2.23
 -21   5   7   22.42    2.14
 -21   5   7   20.09    2.32
  21   5  -7   27.73    2.55
 -19  -5   7  249.14   24.41
  19  -5  -7  288.65   23.31
 -19   5   7  296.80   23.21
  19   5  -7  298.80   26.53
 -19   5   7  320.52   24.47
  19   5  -7  290.68   23.26
  17  -5  -7    9.01    1.05
 -17  -5   7   10.18    1.11
  17   5  -7    7.52    0.96
 -17   5   7    8.59    0.93
  17   5  -7    5.17    0.97
 -17   5   7    6.33    0.99
  15  -5  -7  274.39   19.79
 -15  -5   7  248.36   20.76
 -15   5   7  259.59   19.70
  15   5  -7  229.95   22.49
  15   5  -7  230.94   19.73
 -15   5   7  236.43   20.74
 -13  -5   7   42.69    3.84
 -13  -5   7   32.01    3.50
  13  -5  -7   38.51    3.36
 -13   5   7   41.98    3.31
  13   5  -7   41.52    3.35
 -13   5   7   38.82    3.52
 -11  -5   7  376.27   30.91
 -11  -5   7  368.29   28.45
  11  -5  -7  298.76   27.06
 -11   5   7  355.74   28.43
  11   5  -7  311.40   27.05
 -11   5   7  327.10   27.01
  -9  -5   7    3.82    0.69
   9  -5  -7    4.81    0.68
  -9  -5   7    4.87    0.81
  -9   5   7    5.67    0.76
   9   5  -7    4.87    0.70
  -9   5   7    5.04    0.65
   7  -5  -7  325.77   26.26
  -7  -5   7  332.60   30.00
  -7  -5   7  345.08   27.59
   7   5  -7  324.03   26.25
  -7   5   7  276.06   27.55
   7   5  -7  349.27   26.20
  -7   5   7  350.80   26.22
  -5  -5   7    0.87    0.35
   5  -5  -7    1.11    0.33
  -5  -5   7    1.33    0.50
   5   5  -7    0.81    0.31
  -5   5   7    0.88    0.31
   5   5  -7    0.37    0.28
  -5   5   7    0.46    0.32
  -3  -5   7  206.46   17.09
  -3  -5   7  210.91   18.66
   3  -5  -7  196.66   16.27
   3   5  -7  198.89   16.27
  -3   5   7  204.19   17.09
   3   5  -7  203.68   16.27
  -1  -5   7    4.04    0.78
  -1  -5   7    3.19    0.53
   1  -5  -7    3.05    0.48
   1   5  -7    3.19    0.49
  -1   5   7    3.25    0.51
  -1   5   7    3.31    0.55
  -1   5   7    3.58    0.53
   1   5  -7    2.88    0.54
  -1  -5  -7  354.06   31.24
   1  -5   7  395.92   35.77
   1  -5   7  376.47   32.79
   1   5   7  452.33   32.85
  -1   5  -7  424.34   31.25
   1   5   7  369.98   35.60
  -1   5  -7  385.30   31.29
   1   5   7  385.79   31.24
   3  -5   7   61.45    5.72
   3  -5   7   60.16    5.09
  -3  -5  -7   57.33    4.84
   3   5   7   60.43    5.14
  -3   5  -7   58.71    4.84
   3   5   7   51.30    5.53
  -3   5  -7   67.34    4.95
   3   5   7   60.84    4.87
   5  -5   7  363.83   32.42
   5  -5   7  342.68   29.66
  -5  -5  -7  370.18   28.26
   5   5   7  353.09   29.72
   5   5   7  363.10   32.29
  -5   5  -7  372.25   28.25
   5   5   7  331.87   28.26
  -5   5  -7  343.48   28.33
  -7  -5  -7   24.22    2.05
   7  -5   7   24.78    2.17
   7  -5   7   23.10    2.54
  -7   5  -7   25.18    2.04
   7   5   7   26.57    2.25
  -7   5  -7   21.53    2.19
   7   5   7   22.90    2.46
   9  -5   7  365.45   31.79
   9  -5   7  362.90   34.72
  -9  -5  -7  393.20   30.34
  -9   5  -7  389.17   30.37
   9   5   7  391.54   31.86
  11  -5   7   34.42    2.93
 -11  -5  -7   35.56    2.91
 -11   5  -7   36.88    2.94
  11   5   7   33.59    2.98
  11   5   7   25.33    3.26
  13  -5   7  198.42   16.60
 -13  -5  -7  187.32   14.46
  13   5   7  184.29   15.14
  13   5   7  178.03   16.50
 -13   5  -7  150.48   14.43
  15  -5   7   17.88    2.14
 -15  -5  -7   18.34    1.79
  15   5   7   18.58    2.08
 -15   5  -7   18.64    1.79
  15   5   7   18.52    1.82
 -17  -5  -7  157.12   12.41
  17  -5   7  157.71   14.26
  17   5   7  147.80   12.96
 -17   5  -7  173.22   12.45
  17   5   7  130.81   14.15
  19  -5   7   34.61    3.19
 -19   5  -7   30.67    2.69
  19   5   7   25.52    2.69
  19   5   7   30.08    3.12
  21  -5   7  161.89   14.29
 -21  -5  -7  128.90   12.94
  21   5   7  161.01   14.20
 -21   5  -7  162.54   12.41
  23  -5   7   34.96    3.39
 -23  -5  -7   34.47    2.95
  23   5   7   31.86    3.29
 -23   5  -7   24.76    2.78
  25  -5   7   65.51    6.38
 -25  -5  -7   59.09    5.75
 -25   5  -7   63.05    5.52
  25   5   7   76.33    6.45
  27  -5   7   32.82    3.57
 -27  -5  -7   31.06    3.15
  27   5   7   40.49    3.62
 -27   5  -7   31.94    3.06
  29  -5   7   55.53    5.57
 -29  -5  -7   60.12    5.02
  29   5   7   61.70    5.52
 -29   5  -7   46.27    4.74
 -32  -6   7  128.32   10.79
  32  -6  -7  118.38   10.34
  32   6  -7  130.86   11.77
  32   6  -7  123.57   10.24
  30  -6  -7    5.79    1.02
 -30  -6   7    7.59    1.05
  30   6  -7    5.09    1.08
  30   6  -7    5.66    0.91
 -28  -6   7  119.50    9.94
  28   6  -7  122.09   10.81
  28   6  -7  104.79    9.39
 -26  -6   7   10.57    1.38
  26  -6  -7    9.27    1.32
 -26   6   7    9.66    1.21
  26   6  -7   10.87    1.25
  26   6  -7   10.85    1.49
  24  -6  -7  146.47   10.36
 -24  -6   7  117.15   10.77
  24   6  -7  118.24   11.67
  24   6  -7  138.51   10.26
 -24   6   7  112.14   10.18
 -22  -6   7   29.39    3.15
  22  -6  -7   36.32    3.09
  22   6  -7   38.98    3.02
 -22   6   7   31.45    3.19
 -22   6   7   32.85    2.96
  22   6  -7   36.27    3.46
 -20  -6   7  182.63   13.74
  20  -6  -7  135.87   13.03
  20   6  -7  163.83   13.02
  20   6  -7  159.60   14.86
 -20   6   7  159.96   12.99
 -20   6   7  167.53   13.75
 -18  -6   7   48.47    4.60
  18  -6  -7   55.62    4.45
  18   6  -7   50.72    4.98
  18   6  -7   57.03    4.38
 -18   6   7   49.13    4.33
 -18   6   7   51.61    4.63
 -16  -6   7   80.06    7.34
  16  -6  -7   91.29    7.01
  16   6  -7   70.42    6.91
 -16   6   7   89.11    7.34
 -16   6   7   90.67    6.93
  16   6  -7   88.33    7.93
 -14  -6   7   14.73    1.51
  14  -6  -7    9.11    1.30
 -14  -6   7   14.36    1.38
  14   6  -7   13.06    1.28
 -14   6   7    9.72    1.39
 -14   6   7   14.65    1.27
  12  -6  -7  166.24   14.22
 -12  -6   7  182.79   14.96
 -12  -6   7  172.12   16.24
 -12   6   7  176.54   14.94
 -12   6   7  176.95   14.18
  12   6  -7  185.32   14.22
 -10  -6   7  124.83   11.67
  10  -6  -7  122.56   10.18
 -10  -6   7  128.98   10.72
 -10   6   7  122.06   10.15
  10   6  -7  126.05   10.18
 -10   6   7  131.53   10.71
  -8  -6   7  129.34   10.81
  -8  -6   7  123.77   11.78
   8  -6  -7  123.02   10.28
   8   6  -7  122.23   10.26
  -8   6   7  119.82   10.24
  -8   6   7  146.01   10.81
  -6  -6   7  178.10   16.86
  -6  -6   7  196.75   18.42
   6  -6  -7  203.07   16.09
   6   6  -7  207.61   16.05
  -6   6   7  203.18   16.90
   6   6  -7  184.94   16.07
  -6   6   7  231.44   16.07
   4  -6  -7  261.50   20.79
  -4  -6   7  258.90   21.82
  -4  -6   7  274.53   23.81
  -4   6   7  248.41   20.75
   4   6  -7  259.97   20.78
   4   6  -7  258.66   20.76
  -4   6   7  260.59   21.82
   2  -6  -7  132.21   10.76
  -2  -6   7  133.84   12.39
  -2  -6   7  129.74   11.29
  -2   6   7  137.04   10.75
  -2   6   7  137.09   11.32
   2   6  -7  128.74   10.76
   2   6  -7  138.32   10.79
   0  -6   7  182.13   17.94
   0  -6  -7  236.93   17.14
   0  -6   7  209.44   19.67
   0   6   7  244.03   19.51
   0   6   7  208.56   18.00
   0   6  -7  195.61   17.12
   0   6   7  222.79   17.13
   0   6  -7  215.40   17.16
   2  -6   7  253.74   24.28
  -2  -6  -7  269.20   21.15
   2  -6   7  263.60   22.18
  -2   6  -7  271.91   21.20
  -2   6  -7  269.50   21.15
   2   6   7  269.04   22.23
   2   6   7  265.20   24.12
   2   6   7  257.29   21.14
  -4  -6  -7  122.50   11.18
  -4   6  -7  138.55   11.28
  -4   6  -7  135.94   11.19
   4   6   7  148.54   12.84
   4   6   7  157.74   11.81
   4   6   7  136.63   11.21
  -6  -6  -7  223.63   17.26
   6  -6   7  208.15   19.87
   6   6   7  210.00   17.27
  -6   6  -7  214.69   17.35
   6   6   7  214.82   19.76
   6   6   7  220.89   18.19
  -6   6  -7  218.99   17.25
   8  -6   7   56.93    5.52
  -8   6  -7   57.95    4.77
   8   6   7   48.78    5.39
   8   6   7   63.28    4.97
  -8   6  -7   57.22    4.64
 -10  -6  -7  152.96   12.09
  10  -6   7  158.12   13.94
  10   6   7  144.87   13.80
  10   6   7  144.14   12.65
 -10   6  -7  149.18   12.10
 -12  -6  -7   16.63    1.55
  12   6   7   16.06    1.76
 -12   6  -7   14.99    1.55
  12   6   7   13.72    1.52
  14  -6   7  152.48   13.89
 -14  -6  -7  147.01   12.09
 -14   6  -7  147.82   12.11
  14   6   7  139.64   13.83
  14   6   7  159.01   12.68
  16  -6   7    4.98    1.02
 -16  -6  -7    5.41    0.83
  16   6   7    7.25    1.09
  16   6   7    5.31    0.81
 -16   6  -7    3.43    0.76
 -18   6  -7  146.88   12.36
  18   6   7  153.60   12.93
  18   6   7  156.64   14.16
  20  -6   7   14.49    1.80
 -20  -6  -7   12.77    1.35
  20   6   7   12.22    1.69
 -20   6  -7    9.93    1.38
  22  -6   7   90.26   10.44
 -22  -6  -7  108.11    9.53
 -22   6  -7  126.09    9.16
  22   6   7  120.47   10.49
  24  -6   7    6.80    1.19
 -24  -6  -7    6.10    0.97
  24   6   7    4.51    1.07
 -24   6  -7    5.71    0.96
 -26  -6  -7   69.35    5.99
  26  -6   7   72.39    6.63
  26   6   7   68.87    6.60
 -26   6  -7   60.55    5.69
 -28  -6  -7    0.21    0.42
  28  -6   7    0.30    0.56
  28   6   7    0.19    0.49
 -28   6  -7   -0.40    0.40
  31  -7  -7    4.69    0.95
 -31  -7   7    5.38    0.94
  31   7  -7    6.18    1.11
  31   7  -7    4.58    0.84
 -29  -7   7    1.90    0.59
  29  -7  -7    3.02    0.78
  29   7  -7    1.68    0.57
  29   7  -7    2.44    0.76
 -27  -7   7    0.22    0.40
  27  -7  -7    0.17    0.45
  27   7  -7    0.51    0.41
  27   7  -7    0.41    0.48
 -27   7   7    0.40    0.40
  25  -7  -7    4.10    0.82
 -25  -7   7    2.65    0.69
  25   7  -7    3.77    0.84
  25   7  -7    3.51    0.68
 -25   7   7    3.86    0.70
  23  -7  -7    6.90    1.01
 -23  -7   7    5.10    0.90
  23   7  -7    5.85    1.01
 -23   7   7    6.34    0.88
  23   7  -7    6.03    0.87
 -21  -7   7    2.20    0.59
  21  -7  -7    2.50    0.62
  21   7  -7    3.05    0.57
  21   7  -7    1.70    0.55
 -21   7   7    2.65    0.56
 -19  -7   7    7.14    1.01
  19  -7  -7    7.85    1.00
  19   7  -7    5.92    1.04
  19   7  -7    6.20    0.89
 -19   7   7    7.84    0.94
  17  -7  -7    9.68    1.15
 -17  -7   7    7.90    1.26
 -17  -7   7    9.99    1.23
  17   7  -7    7.73    1.02
 -17   7   7    9.56    1.07
 -15  -7   7   10.05    1.62
 -15  -7   7   14.94    1.48
  15  -7  -7   15.30    1.42
 -15   7   7   12.93    1.56
 -15   7   7   13.45    1.32
  15   7  -7   13.51    1.34
 -13  -7   7   16.51    1.89
  13  -7  -7   16.82    1.62
 -13  -7   7   16.94    1.71
  13   7  -7   16.79    1.61
 -13   7   7   20.04    1.72
 -13   7   7   14.17    1.56
 -11  -7   7    5.79    1.01
  11  -7  -7    7.54    0.93
 -11  -7   7    7.04    0.95
 -11   7   7    7.07    0.85
 -11   7   7    7.21    0.93
  11   7  -7    5.90    0.84
  -9  -7   7    2.16    0.49
   9  -7  -7    2.23    0.48
  -9  -7   7    1.87    0.57
  -9   7   7    2.04    0.45
  -9   7   7    1.82    0.47
   9   7  -7    2.25    0.48
  -7  -7   7    0.61    0.36
   7  -7  -7    1.06    0.35
  -7  -7   7    0.25    0.43
  -7   7   7    0.55    0.31
   7   7  -7    1.20    0.37
  -7   7   7    0.34    0.33
  -5  -7   7   10.15    1.09
   5  -7  -7    9.79    1.04
  -5  -7   7   11.03    1.44
  -5   7   7   11.58    1.10
  -5   7   7    8.99    1.00
   5   7  -7    8.93    1.02
   5   7  -7   10.66    1.05
  -3  -7   7    0.04    0.37
  -3  -7   7    0.19    0.29
   3  -7  -7    0.57    0.28
  -3   7   7    1.53    0.38
   3   7  -7    0.43    0.31
   3   7  -7    0.70    0.31
  -3   7   7    1.12    0.33
  -1  -7   7    5.68    1.00
   1  -7  -7    5.94    0.70
   1   7  -7    4.41    0.69
  -1   7   7    5.56    0.70
   1   7  -7    3.88    0.64
  -1   7   7    6.70    0.77
   1  -7   7    0.99    0.48
  -1  -7  -7    0.34    0.26
  -1   7  -7    0.79    0.37
  -1   7  -7    0.32    0.27
   1   7   7    0.40    0.30
   1   7   7    0.56    0.31
   3  -7   7    5.91    1.07
  -3  -7  -7    5.20    0.68
   3   7   7    5.11    0.70
  -3   7  -7    4.91    0.77
   3   7   7    5.71    0.85
   3   7   7    6.66    0.80
  -3   7  -7    6.99    0.75
   5  -7   7   10.96    1.55
   5   7   7    9.67    1.07
   5   7   7    9.36    1.33
   5   7   7    9.95    1.13
  -5   7  -7   12.26    1.20
  -5   7  -7   12.77    1.09
   7  -7   7    1.64    0.68
  -7   7  -7    1.67    0.49
  -7   7  -7    2.40    0.42
   7   7   7    2.51    0.40
   7   7   7    1.63    0.41
   7   7   7    2.34    0.59
   7   7   7    1.64    0.44
   9  -7   7   23.53    2.57
   9   7   7   25.86    2.05
  -9   7  -7   19.72    2.04
  -9   7  -7   23.18    2.19
   9   7   7   27.26    2.53
   9   7   7   24.68    2.23
  11  -7   7    0.77    0.50
 -11  -7  -7    0.01    0.33
 -11   7  -7    0.15    0.35
  11   7   7    0.02    0.30
  11   7   7    0.01    0.42
  13  -7   7   25.08    3.25
 -13  -7  -7   39.88    2.89
  13   7   7   29.79    3.24
 -13   7  -7   35.09    2.87
  13   7   7   30.36    2.91
 -15  -7  -7    2.39    0.57
  15  -7   7    1.69    0.70
  15   7   7    2.18    0.68
 -15   7  -7    2.51    0.60
  15   7   7    2.99    0.61
  17  -7   7    7.52    1.26
  17   7   7    6.92    1.17
 -17   7  -7    6.41    1.02
  17   7   7    7.18    0.96
 -19  -7  -7    0.48    0.37
  19  -7   7    0.10    0.56
  19   7   7    0.40    0.49
 -19   7  -7    0.35    0.45
  21  -7   7    0.77    0.63
 -21  -7  -7    0.87    0.45
  21   7   7    1.45    0.63
 -21   7  -7    0.40    0.48
  23  -7   7    2.87    0.81
 -23  -7  -7    0.46    0.44
 -23   7  -7    1.86    0.57
  23   7   7    0.59    0.56
  25  -7   7    1.86    0.77
 -25  -7  -7    1.21    0.54
  25   7   7    1.20    0.58
 -25   7  -7    0.93    0.54
 -27  -7  -7    3.70    0.77
  27  -7   7    2.73    0.88
  27   7   7    2.33    0.79
 -27   7  -7    3.92    0.77
 -30  -8   7    0.41    0.46
  30  -8  -7    0.78    0.59
  30   8  -7    0.31    0.41
  30   8  -7    0.79    0.55
 -28  -8   7   48.48    4.41
  28  -8  -7   55.20    4.31
 -28   8   7   44.67    4.16
  28   8  -7   45.74    4.77
  28   8  -7   50.54    4.17
  26  -8  -7    6.06    1.04
 -26  -8   7    6.50    1.05
 -26   8   7    6.12    0.94
  26   8  -7    9.56    1.08
  26   8  -7    7.46    1.20
  24  -8  -7   73.63    6.09
 -24  -8   7   67.58    6.32
  24   8  -7   71.68    6.89
 -24   8   7   72.73    5.98
  24   8  -7   74.17    5.99
  22  -8  -7   24.31    2.33
 -22  -8   7   26.66    2.43
 -22   8   7   22.37    2.22
  22   8  -7   24.10    2.59
  22   8  -7   25.78    2.27
 -20  -8   7  120.67    9.20
  20  -8  -7   99.67    8.71
  20   8  -7  104.74    8.66
 -20   8   7  100.74    8.64
 -18  -8   7   20.03    2.33
  18  -8  -7   24.45    2.10
 -18  -8   7   19.09    2.16
 -18   8   7   22.46    2.00
  18   8  -7   22.27    2.02
  16  -8  -7   57.68    5.80
 -16  -8   7   68.08    6.12
 -16  -8   7   74.87    6.71
  16   8  -7   74.73    5.80
 -16   8   7   75.11    5.80
  14  -8  -7   21.84    2.38
 -14  -8   7   29.36    2.85
 -14  -8   7   29.46    2.60
 -14   8   7   27.39    2.38
  14   8  -7   28.22    2.41
 -12  -8   7   43.27    4.05
  12  -8  -7   37.47    3.47
 -12  -8   7   40.57    3.66
  12   8  -7   39.99    3.44
 -12   8   7   41.43    3.44
 -10  -8   7   23.64    2.48
  10  -8  -7   23.42    2.09
 -10  -8   7   19.92    2.17
  10   8  -7   27.05    2.09
 -10   8   7   21.45    2.05
  -8  -8   7  119.88   10.23
   8  -8  -7  108.02    8.86
  -8  -8   7  109.52    9.36
   8   8  -7  110.11    8.84
  -8   8   7  109.29    9.28
  -8   8   7   99.23    8.82
  -6  -8   7   36.13    3.76
   6  -8  -7   39.49    3.22
   6   8  -7   36.39    3.18
  -6   8   7   39.48    3.35
  -6   8   7   35.99    3.18
  -4  -8   7   54.41    5.22
   4  -8  -7   53.84    4.44
   4   8  -7   53.07    4.43
   4   8  -7   58.77    4.47
  -4   8   7   48.19    4.41
  -4   8   7   53.27    4.64
   2  -8  -7   65.32    4.94
  -2  -8   7   73.77    5.84
   2   8  -7   55.64    4.95
  -2   8   7   54.97    4.90
  -2   8   7   57.36    5.17
   2   8  -7   55.96    4.91
   0  -8  -7   76.30    6.17
   0  -8   7   93.10    7.28
   0   8  -7   72.58    6.16
   0   8   7   76.30    6.49
   0   8  -7   68.11    6.19
   0   8   7   71.88    6.17
   2  -8   7  164.19   13.16
  -2  -8  -7  137.96   11.31
  -2   8  -7  142.31   11.32
   2   8   7  135.11   11.33
  -2   8  -7  140.43   11.38
   2   8   7  129.68   11.89
   4  -8   7   54.56    5.25
   4   8   7   55.98    4.67
   4   8   7   46.77    5.05
  -4   8  -7   49.74    4.48
  -4   8  -7   58.75    4.43
   4   8   7   53.67    4.41
   6  -8   7  115.69   11.59
   6   8   7  118.34    9.95
   6   8   7  141.11   11.52
   6   8   7  124.36   10.00
  -6   8  -7  122.65    9.98
   6   8   7  121.27   10.52
  -6   8  -7  124.67   10.08
   8   8   7   35.01    3.38
   8   8   7   39.74    3.59
  -8   8  -7   41.90    3.38
   8   8   7   46.59    4.01
   8   8   7   41.22    3.36
  -8   8  -7   38.38    3.48
  10  -8   7   95.63    9.70
 -10   8  -7  102.12    8.45
  10   8   7  109.98    8.83
  10   8   7  105.64    9.65
  10   8   7  101.03    8.33
  12  -8   7    6.77    1.21
 -12  -8  -7    7.00    0.94
  12   8   7    6.37    0.94
  12   8   7    7.27    1.17
 -12   8  -7    7.02    0.98
  14  -8   7   85.15    7.70
  14   8   7   74.36    7.59
 -14   8  -7   78.58    6.64
  14   8   7   82.16    6.92
  16  -8   7   12.36    1.85
 -16   8  -7   13.90    1.60
  16   8   7   13.99    1.45
  16   8   7   14.36    1.86
 -18  -8  -7   49.54    4.65
  18  -8   7   55.66    5.30
 -18   8  -7   57.90    4.52
  18   8   7   48.19    5.15
 -20  -8  -7    2.77    0.65
  20  -8   7    3.23    0.90
 -20   8  -7    3.42    0.72
  20   8   7    2.42    0.79
 -22  -8  -7   36.42    2.95
  22  -8   7   23.93    3.17
  22   8   7   30.14    3.20
 -22   8  -7   30.54    2.77
  24  -8   7    1.26    0.67
 -24  -8  -7    0.00    0.43
  24   8   7    0.22    0.55
 -24   8  -7    0.85    0.49
 -26  -8  -7   45.17    4.49
  26   8   7   49.72    4.96
 -26   8  -7   53.90    4.30
  29  -9  -7   24.84    2.47
 -29  -9   7   23.62    2.54
 -29   9   7   27.12    2.38
  29   9  -7   26.24    2.37
  29   9  -7   25.21    2.73
 -27  -9   7   87.66    7.53
  27  -9  -7   89.94    7.22
  27   9  -7   82.04    8.12
  27   9  -7   87.46    7.09
 -27   9   7   82.20    7.09
  25  -9  -7   20.86    2.13
 -25  -9   7   23.20    2.20
 -25   9   7   20.95    2.01
  25   9  -7   20.17    1.99
 -23  -9   7  111.02    9.13
  23  -9  -7  110.98    8.70
 -23  -9   7  106.28    9.89
 -23   9   7   98.66    8.57
  23   9  -7   99.74    8.57
  21  -9  -7   37.96    3.06
 -21  -9   7   28.85    3.38
  21   9  -7   36.47    2.96
 -21   9   7   31.52    2.93
  19  -9  -7  153.68   12.01
 -19  -9   7  139.51   12.58
 -19  -9   7  129.20   13.65
 -19   9   7  166.79   11.94
  19   9  -7  146.81   11.92
 -17  -9   7   19.03    2.00
  17  -9  -7   20.66    1.94
 -17  -9   7   18.94    2.21
 -17   9   7   19.27    1.87
  17   9  -7   21.21    1.88
 -15  -9   7  245.80   22.62
 -15   9   7  286.48   21.49
  15   9  -7  272.21   21.51
 -13  -9   7    1.82    0.66
  13  -9  -7    1.64    0.54
  13   9  -7    2.99    0.55
 -13   9   7    2.08    0.50
 -11  -9   7  277.34   24.82
  11  -9  -7  274.71   21.67
 -11   9   7  289.08   21.65
  11   9  -7  242.11   21.62
  -9  -9   7   10.48    1.42
   9  -9  -7   11.15    1.09
   9   9  -7    9.70    1.12
  -9   9   7    7.59    1.06
   7  -9  -7  278.28   22.26
   7   9  -7  277.77   22.23
  -7   9   7  277.85   22.22
  -5  -9   7    0.25    0.47
   5  -9  -7    0.84    0.36
   5   9  -7    1.17    0.38
  -5   9   7    0.91    0.34
  -3  -9   7  311.05   26.58
   3   9  -7  250.89   23.10
   3   9  -7  282.63   23.11
  -3   9   7  317.03   23.12
  -1  -9   7   33.63    3.58
   1  -9  -7   35.23    3.01
   1   9  -7   34.42    2.98
  -1   9   7   33.79    3.13
  -1   9   7   37.25    3.03
   1   9  -7   36.28    3.05
   1  -9   7  193.50   17.53
  -1  -9  -7  189.18   15.19
  -1   9  -7  189.11   15.24
   1   9   7  189.18   15.19
   1   9   7  173.26   15.95
  -1   9  -7  202.71   15.21
   3  -9   7   11.52    1.66
   3   9   7   11.91    1.16
  -3   9  -7   10.99    1.28
  -3   9  -7   12.74    1.16
   3   9   7    8.72    1.20
   5  -9   7  322.91   28.15
  -5   9  -7  300.71   24.48
   5   9   7  300.74   24.44
   5   9   7  317.54   25.73
   5   9   7  281.93   27.98
   5   9   7  317.68   24.50
   7  -9   7    5.09    1.06
  -7   9  -7    4.28    0.79
  -7   9  -7    5.64    0.73
   7   9   7    4.97    0.93
   7   9   7    4.42    0.75
   7   9   7    5.48    0.74
   7   9   7    6.18    0.71
   9  -9   7  100.22    9.23
   9   9   7   95.19    7.82
  -9   9  -7   96.57    7.84
   9   9   7  104.72    7.89
  -9   9  -7   83.49    7.92
   9   9   7   98.26    8.30
   9   9   7   99.18    9.09
 -11  -9  -7   15.52    1.98
  11  -9   7   24.87    2.50
  11   9   7   18.62    2.32
  11   9   7   23.08    2.10
 -11   9  -7   29.80    2.16
  13  -9   7  141.41   13.17
 -13   9  -7  137.91   11.43
  13   9   7  152.73   11.96
  13   9   7  128.91   13.04
  15  -9   7   28.22    2.91
 -15   9  -7   21.46    2.39
  15   9   7   30.47    2.86
 -17  -9  -7  177.53   14.60
  17  -9   7  159.91   15.94
  17   9   7  169.57   15.94
 -17   9  -7  178.64   13.92
 -19  -9  -7   35.63    3.40
  19  -9   7   32.99    3.83
 -19   9  -7   41.03    3.31
  19   9   7   38.51    3.85
  21  -9   7   69.75    7.04
 -21  -9  -7   68.96    6.34
 -21   9  -7   77.64    6.08
 -23  -9  -7   39.49    3.61
  23  -9   7   50.27    4.14
  23   9   7   29.42    3.90
 -23   9  -7   39.27    3.42
  25  -9   7   56.58    5.85
 -25  -9  -7   57.86    5.27
 -25   9  -7   72.86    5.09
  25   9   7   48.61    5.75
 -26 -10   7    2.27    0.76
 -26 -10   7    4.41    0.98
  26 -10  -7    3.87    0.84
  26  10  -7    4.50    0.77
 -26  10   7    5.47    0.81
  24 -10  -7   46.42    4.26
 -24 -10   7   50.50    4.89
  24  10  -7   47.55    4.16
 -24  10   7   51.17    4.20
  22 -10  -7   14.38    1.59
 -22 -10   7   13.35    1.77
  22  10  -7   10.49    1.34
 -22  10   7   13.21    1.45
 -20 -10   7   45.91    4.70
  20 -10  -7   48.05    4.11
 -20  10   7   49.68    4.05
  20  10  -7   45.24    4.01
 -18 -10   7   10.95    1.60
  18 -10  -7   15.15    1.38
 -18  10   7   10.46    1.26
  18  10  -7    9.66    1.24
  16 -10  -7   57.78    5.14
 -16 -10   7   62.78    5.98
 -16  10   7   64.31    5.12
  16  10  -7   60.47    5.10
  14 -10  -7   37.81    3.43
 -14 -10   7   42.58    4.04
 -14  10   7   42.76    3.41
  14  10  -7   35.32    3.38
 -12 -10   7   81.10    8.10
  12 -10  -7   86.44    7.04
 -12  10   7   84.89    7.00
  12  10  -7   88.18    7.01
 -10 -10   7   46.78    4.26
  10 -10  -7   37.77    3.58
 -10  10   7   45.92    3.59
  10  10  -7   38.98    3.55
  -8 -10   7   75.09    7.39
   8 -10  -7   77.73    6.35
   8  10  -7   75.52    6.32
  -8  10   7   78.57    6.32
   6 -10  -7   60.10    4.75
  -6 -10   7   53.61    5.51
   6  10  -7   57.58    4.72
  -6  10   7   54.88    4.72
  -4 -10   7   61.25    5.13
   4 -10  -7   43.81    4.25
   4  10  -7   55.65    4.28
  -4  10   7   47.79    4.25
   2 -10  -7   74.15    5.97
  -2 -10   7   70.94    7.00
   2  10  -7   70.84    5.99
  -2  10   7   74.09    5.96
   2  10  -7   71.39    5.95
   0 -10   7   25.30    2.48
   0 -10  -7   22.40    1.94
   0  10   7   19.96    1.91
   0  10  -7   19.53    1.99
   0  10  -7   20.54    1.92
   2 -10   7   30.47    3.54
  -2 -10  -7   34.64    2.96
  -2  10  -7   35.68    2.95
  -2  10  -7   40.53    3.06
   2  10   7   31.21    2.94
   4 -10   7   60.68    5.79
  -4  10  -7   60.41    4.88
   4  10   7   53.24    4.88
  -4  10  -7   62.05    4.95
   6 -10   7   45.46    4.72
  -6  10  -7   50.43    3.93
   6  10   7   42.09    3.93
   6  10   7   47.63    4.16
  -6  10  -7   43.41    4.00
   6  10   7   51.01    3.93
   8 -10   7    3.80    0.92
   8  10   7    2.31    0.70
  -8  10  -7    2.39    0.61
   8  10   7    3.63    0.62
   8  10   7    3.29    0.66
   8  10   7    3.94    0.58
  -8  10  -7    2.22    0.52
  10 -10   7   38.06    4.19
  10  10   7   42.00    4.14
  10  10   7   41.24    3.53
  10  10   7   40.94    3.73
  10  10   7   45.10    3.54
 -10  10  -7   39.52    3.59
  12 -10   7    7.64    1.37
 -12  10  -7    9.11    1.11
  12  10   7    6.58    1.01
  12  10   7    7.59    1.26
  14 -10   7   69.39    7.04
 -14 -10  -7   74.16    6.36
  14  10   7   74.47    6.99
 -14  10  -7   72.00    6.07
  16 -10   7   13.79    1.88
 -16 -10  -7   11.06    1.39
  16  10   7    8.98    1.54
 -16  10  -7   12.99    1.40
  18 -10   7   55.21    5.64
 -18 -10  -7   55.45    5.05
 -18  10  -7   62.47    4.86
  18  10   7   53.51    5.55
 -20 -10  -7    2.76    0.67
  20 -10   7    3.18    0.97
  20  10   7    3.58    0.91
 -20  10  -7    2.52    0.69
  22 -10   7   39.67    4.04
 -22 -10  -7   37.15    3.56
 -22  10  -7   42.82    3.41
  22  10   7   33.39    3.89
 -24 -10  -7    0.41    0.47
  24 -10   7    0.67    0.66
  24  10   7    0.21    0.54
 -24  10  -7    0.04    0.41
  25 -11  -7    1.51    0.59
 -25 -11   7    1.89    0.70
 -25  11   7    0.92    0.46
  25  11  -7    1.20    0.48
  23 -11  -7    2.07    0.62
 -23 -11   7    1.91    0.74
  23  11  -7    2.43    0.57
 -23  11   7    2.95    0.60
 -21 -11   7    3.85    0.94
  21 -11  -7    4.97    0.83
  21  11  -7    3.43    0.68
 -21  11   7    3.65    0.70
  19 -11  -7   20.19    1.92
 -19 -11   7   17.40    2.14
 -19  11   7   19.75    1.81
  19  11  -7   17.96    1.78
 -17 -11   7    1.07    0.70
  17 -11  -7    2.70    0.62
 -17  11   7    2.49    0.57
  17  11  -7    2.62    0.57
 -15 -11   7    5.52    1.05
  15 -11  -7    3.13    0.71
 -15  11   7    4.66    0.71
  15  11  -7    3.20    0.66
  13 -11  -7    0.92    0.44
 -13 -11   7    0.84    0.52
  13  11  -7    0.58    0.40
 -13  11   7    0.67    0.39
 -11 -11   7    7.59    1.28
  11 -11  -7    6.16    0.92
  11  11  -7    8.17    0.95
 -11  11   7    5.48    0.85
   9 -11  -7    0.81    0.39
  -9 -11   7    0.40    0.59
   9  11  -7    0.55    0.34
  -9  11   7    0.40    0.36
  -7 -11   7    9.16    1.49
   7 -11  -7   10.46    1.19
   7  11  -7   10.41    1.16
  -7  11   7    9.29    1.16
   5 -11  -7    0.01    0.31
  -5 -11   7    0.75    0.59
  -5  11   7    0.04    0.30
   5  11  -7    0.46    0.37
   3 -11  -7   19.30    1.68
  -3 -11   7   18.87    2.11
   3  11  -7   18.94    1.66
  -3  11   7   13.68    1.59
   1 -11  -7    1.29    0.42
  -1 -11   7    1.33    0.66
   1  11  -7    1.02    0.41
  -1  11   7    1.19    0.42
  -1 -11  -7    7.39    0.94
   1 -11   7    8.91    1.42
   1  11   7    7.60    0.96
  -1  11  -7    9.20    0.99
  -1  11  -7    7.04    1.04
   3 -11   7    0.88    0.64
   3  11   7    1.10    0.40
  -3  11  -7    0.67    0.42
  -3  11  -7    1.05    0.38
   5 -11   7    6.44    1.18
   5  11   7    3.93    0.70
  -5  11  -7    4.44    0.78
  -5  11  -7    4.38    0.68
   7 -11   7    0.36    0.54
  -7  11  -7    1.90    0.50
   7  11   7    1.81    0.47
  -7  11  -7    2.15    0.54
   7  11   7    2.52    0.50
   9 -11   7    5.66    1.10
   9  11   7    3.65    0.68
  -9  11  -7    3.58    0.64
  -9  11  -7    4.02    0.76
   9  11   7    4.30    0.66
  11 -11   7    0.15    0.54
  11  11   7    0.76    0.56
 -11  11  -7    0.62    0.44
 -13 -11  -7    1.82    0.62
  13 -11   7    2.92    0.91
  13  11   7    2.25    0.78
 -13  11  -7    2.88    0.66
  15 -11   7    3.66    0.94
 -15 -11  -7    2.27    0.63
  15  11   7    3.33    0.85
 -15  11  -7    3.08    0.67
  17 -11   7    4.94    1.16
 -17 -11  -7    7.19    1.05
  17  11   7    6.78    1.23
 -17  11  -7    7.19    1.03
  19 -11   7    0.71    0.64
 -19 -11  -7   -0.06    0.40
 -19  11  -7    0.92    0.47
  19  11   7    0.29    0.64
  21 -11   7    4.75    1.05
 -21 -11  -7    3.62    0.83
  21  11   7    3.57    0.95
 -21  11  -7    3.51    0.74
 -22 -12   7   13.00    1.90
  22 -12  -7   15.84    1.77
 -22  12   7   14.50    1.54
  22  12  -7   15.73    1.52
  20 -12  -7  104.73    8.85
 -20 -12   7  113.32   10.19
 -20  12   7  107.27    8.78
  20  12  -7  104.64    8.76
 -18 -12   7   48.08    4.89
  18 -12  -7   45.47    4.18
  18  12  -7   48.31    4.12
 -18  12   7   52.63    4.17
  16 -12  -7  128.81    9.39
  16  12  -7  103.53    9.28
 -16  12   7  112.21    9.32
  14 -12  -7   25.49    2.35
 -14 -12   7   27.31    2.84
 -14  12   7   27.96    2.35
  14  12  -7   22.54    2.27
 -12 -12   7   68.20    6.44
  12 -12  -7   63.63    5.50
 -12  12   7   66.86    5.48
  12  12  -7   64.56    5.46
  10 -12  -7   41.65    3.64
 -10 -12   7   39.29    4.27
 -10  12   7   43.86    3.62
  10  12  -7   42.55    3.58
  -8 -12   7  106.06    8.92
   8 -12  -7   96.26    7.67
  -8  12   7   80.20    7.61
   8  12  -7   93.70    7.62
  -6 -12   7   50.67    5.11
   6  12  -7   51.89    4.30
  -6  12   7   50.44    4.29
  -4 -12   7   83.71    8.25
   4 -12  -7   97.69    7.11
  -4  12   7   81.51    7.05
   4  12  -7   81.81    7.05
   2 -12  -7   57.23    5.13
  -2 -12   7   54.98    6.05
  -2  12   7   64.03    5.15
   2  12  -7   68.93    5.14
   0 -12   7   37.34    3.64
   0 -12  -7   36.05    3.01
   0  12   7   29.52    2.97
   0  12  -7   35.74    2.98
  -2 -12  -7   72.83    5.60
   2 -12   7   65.70    6.58
  -2  12  -7   67.98    5.65
   2  12   7   60.53    5.57
  -2  12  -7   69.32    5.57
   4 -12   7   29.83    2.95
  -4  12  -7   26.58    2.41
  -4  12  -7   26.97    2.32
   4  12   7   22.05    2.32
   6 -12   7  112.25   11.53
   6  12   7  113.88    9.94
  -6  12  -7  123.98    9.94
  -6  12  -7  139.87   10.04
   8 -12   7   34.41    3.73
  -8  12  -7   33.97    3.14
  -8  12  -7   33.33    3.04
   8  12   7   39.14    3.06
  10 -12   7   79.70    7.68
 -10  12  -7   78.71    6.61
  12 -12   7   20.75    2.38
 -12  12  -7   18.32    1.91
  14 -12   7   91.37    8.94
 -14  12  -7   94.17    7.70
  16 -12   7   13.76    2.02
  16  12   7   14.24    1.93
 -16  12  -7   14.39    1.63
  18 -12   7   85.48    8.24
 -18  12  -7   91.11    7.11
  18  12   7   79.20    8.18
  20 -12   7    8.38    1.54
  20  12   7   10.19    1.57
  19 -13  -7  118.23    9.93
  19  13  -7  121.28    9.85
 -19  13   7  123.23    9.87
 -17 -13   7    3.61    0.99
  17 -13  -7    6.21    0.89
 -17  13   7    5.87    0.86
  17  13  -7    4.46    0.76
 -15 -13   7   67.43    6.49
  15 -13  -7   73.21    5.62
  15  13  -7   59.98    5.47
 -15  13   7   65.66    5.52
  13 -13  -7    9.60    1.23
 -13 -13   7    8.94    1.55
  13  13  -7   11.66    1.26
 -13  13   7   10.93    1.25
 -11 -13   7   82.83    7.98
  11 -13  -7   80.53    6.86
  11  13  -7   83.68    6.82
 -11  13   7   83.78    6.83
  -9 -13   7    0.86    0.59
   9 -13  -7    0.90    0.44
  -9  13   7    1.22    0.47
   9  13  -7    1.08    0.46
   7 -13  -7  135.25   11.35
  -7 -13   7  153.00   13.18
   7  13  -7  140.97   11.34
  -7  13   7  133.57   11.32
   5 -13  -7    0.62    0.43
  -5 -13   7    1.40    0.72
  -5  13   7    2.24    0.54
   5  13  -7    2.59    0.55
   3 -13  -7  161.98   12.97
  -3 -13   7  166.20   15.02
  -3  13   7  156.59   12.95
   3  13  -7  157.97   12.94
   1 -13  -7    0.07    0.35
  -1 -13   7    0.21    0.56
   1  13  -7   -0.24    0.37
  -1  13   7   -0.10    0.32
   1 -13   7  119.51   10.21
  -1 -13  -7   97.67    8.71
  -1  13  -7   95.83    8.69
   1  13   7  119.54    8.76
   3 -13   7    2.51    0.88
  -3 -13  -7    4.44    0.68
   3  13   7    4.18    0.73
  -3  13  -7    5.34    0.73
  -3  13  -7    3.24    0.71
   5 -13   7  114.98   11.55
  -5  13  -7  123.04   10.00
  -5  13  -7  126.63    9.92
   7 -13   7    4.88    1.13
  -7  13  -7    5.70    0.93
  -7  13  -7    6.16    0.82
   9 -13   7  103.44    9.98
  -9  13  -7   99.13    8.59
   9  13   7  109.81    8.52
  11 -13   7    4.93    1.12
 -11  13  -7    6.05    0.94
  13 -13   7   69.90    6.94
 -13  13  -7   70.98    5.93
  15 -13   7   22.59    2.56
 -15  13  -7   21.82    2.15
 -17  13  -7   61.87    5.26
  16 -14  -7   30.06    2.68
 -16 -14   7   27.45    3.14
  16  14  -7   27.31    2.59
 -16  14   7   31.58    2.66
 -14 -14   7   13.72    1.87
  14 -14  -7   10.43    1.33
 -14  14   7   11.87    1.33
  14  14  -7   10.14    1.26
 -12 -14   7    5.20    1.11
  12 -14  -7    5.70    0.88
  12  14  -7    6.46    0.87
  10 -14  -7    4.21    0.74
 -10 -14   7    2.56    0.90
  10  14  -7    3.97    0.69
 -10  14   7    4.17    0.71
   8 -14  -7    9.20    1.32
  -8 -14   7    9.46    1.71
   8  14  -7   14.51    1.31
  -8  14   7   13.29    1.30
   6 -14  -7   30.05    2.57
  -6 -14   7   26.38    3.08
  -6  14   7   27.54    2.53
  -4 -14   7    5.34    1.15
   4 -14  -7    5.56    0.84
  -4  14   7    5.07    0.81
   4  14  -7    6.12    0.85
  -2 -14   7    6.40    1.30
   2 -14  -7    7.54    1.03
  -2  14   7    8.11    1.04
   2  14  -7    8.22    1.00
   0 -14   7    0.74    0.58
   0 -14  -7    1.33    0.49
   0  14  -7    0.94    0.44
   0  14   7    1.91    0.50
  -2 -14  -7    8.49    1.13
   2 -14   7    9.78    1.64
   2  14   7    8.14    1.14
  -2  14  -7   11.02    1.16
   4 -14   7    1.26    0.72
  -4 -14  -7    0.56    0.38
  -4  14  -7   -0.02    0.35
   6 -14   7    2.56    0.92
  -6 -14  -7    5.12    0.79
  -6  14  -7    5.98    0.81
  -6  14  -7    5.79    0.92
   8 -14   7   14.54    2.13
  -8  14  -7   15.15    1.58
  -8  14  -7   14.06    1.48
  10 -14   7    8.33    1.44
  12 -14   7    3.56    1.02
 -12  14  -7    3.40    0.72
 -11  15   7   38.69    3.46
   9 -15  -7    1.95    0.57
  -9 -15   7    1.71    0.84
   9  15  -7    1.46    0.49
  -9  15   7    1.15    0.45
   7 -15  -7   31.18    3.11
   7  15  -7   39.75    3.12
  -7  15   7   35.10    3.08
  -5 -15   7    0.95    0.70
   5 -15  -7    0.23    0.38
  -5  15   7    0.82    0.43
   5  15  -7    0.40    0.38
   3 -15  -7   57.82    4.15
  -3 -15   7   45.89    4.88
  -3  15   7   40.99    4.05
   1 -15  -7    1.88    0.51
  -1 -15   7    1.23    0.73
   1  15  -7    1.73    0.48
  -1  15   7    0.81    0.45
   1 -15   7   37.80    4.19
  -1 -15  -7   38.94    3.48
  -1  15  -7   40.99    3.46
   1  15   7   41.94    3.53
   3 -15   7    1.19    0.71
  -3 -15  -7    2.25    0.60
  -3  15  -7    3.34    0.60
   5 -15   7   38.30    4.17
  -5 -15  -7   41.26    3.46
  -5  15  -7   39.46    3.43
   7 -15   7    2.31    0.92
  -7 -15  -7    3.54    0.67
  -7  15  -7    4.21    0.70
 -34   0   8  107.25    9.24
  34   0  -8  105.17    8.79
 -32   0   8   16.69    1.77
  32   0  -8   14.40    1.79
  30   0  -8  128.72   10.02
 -30   0   8  114.87   10.48
 -28   0   8   17.05    1.81
  28   0  -8   16.78    1.74
 -26   0   8  292.69   23.76
  26   0  -8  270.25   22.60
 -24   0   8   21.06    2.31
  24   0  -8   26.74    2.26
 -22   0   8  341.10   26.82
  22   0  -8  296.53   25.51
  20   0  -8   32.89    2.71
 -20   0   8   27.41    2.79
  18   0  -8  252.32   19.86
 -18   0   8  241.94   20.84
 -16   0   8    2.97    0.59
  16   0  -8    2.90    0.59
 -16   0   8    2.82    0.44
 -14   0   8  409.87   31.02
  14   0  -8  369.10   35.38
  14   0  -8  391.98   31.15
 -12   0   8   19.96    1.77
  12   0  -8   23.55    1.92
 -12   0   8   19.82    2.00
 -12   0   8   19.53    1.97
  10   0  -8  756.93   66.91
 -10   0   8  868.05   70.27
 -10   0   8  899.94   76.18
  -8   0   8  100.66    9.24
   8   0  -8  103.66    8.20
  -8   0   8  102.73    8.11
  -8   0   8   96.00    8.61
   6   0  -8  818.92   65.24
  -6   0   8  805.60   74.28
  -6   0   8  839.28   68.52
   4   0  -8  136.23   10.10
  -4   0   8  134.59   11.44
   4   0  -8  112.67   10.06
  -4   0   8  115.92   10.60
  -2   0   8  497.76   46.68
   2   0  -8  488.72   40.97
   2   0  -8  542.11   40.98
  -2   0   8  533.90   43.06
   0   0   8    2.59    0.49
   0   0  -8    3.23    0.47
   0   0  -8    3.82    0.55
   0   0   8    1.58    0.45
  -2   0  -8  914.10   69.99
   2   0   8  882.57   79.84
  -2   0  -8  848.11   70.00
  -4   0  -8  600.17   48.56
  -4   0  -8  646.08   48.49
   4   0   8  610.37   55.40
   4   0   8  585.60   50.97
   6   0   8    7.80    1.20
  -6   0  -8   11.20    1.07
   6   0   8    9.96    1.02
   8   0   8  118.44   10.82
  -8   0  -8  119.16    9.47
   8   0   8  112.61    9.89
 -10   0  -8  274.36   21.24
  10   0   8  272.37   24.28
  10   0   8  250.04   22.25
  12   0   8   69.68    6.82
  12   0   8   74.91    6.22
 -12   0  -8   71.12    5.97
  14   0   8  330.63   27.32
  14   0   8  316.11   29.77
 -14   0  -8  330.14   26.06
  16   0   8   42.20    3.84
 -16   0  -8   38.65    3.69
  16   0   8   50.94    4.38
  18   0   8   56.69    6.75
 -18   0  -8   76.54    5.95
  18   0   8   79.45    6.19
  20   0   8   70.73    6.37
  20   0   8   84.05    7.10
 -20   0  -8   67.42    6.11
 -22   0  -8  138.01   10.95
  22   0   8  104.82   11.95
 -22   0  -8  141.64   10.52
 -24   0  -8   88.90    8.12
  24   0   8  112.88    9.40
 -24   0  -8   95.40    8.47
  26   0   8  100.92    8.76
 -26   0  -8   84.58    7.93
 -26   0  -8   90.39    7.73
  28   0   8   56.06    6.47
 -28   0  -8   78.03    5.98
 -30   0  -8    7.42    1.14
  30   0   8    8.37    1.40
 -35  -1   8   33.75    3.21
 -35   1   8   32.97    3.23
  33  -1  -8    7.76    1.24
 -33  -1   8    9.06    1.31
 -33   1   8   11.26    1.44
  33   1  -8   10.34    1.32
  31  -1  -8   63.36    5.65
 -31  -1   8   63.20    5.93
 -31   1   8   78.11    5.99
  31   1  -8   62.98    5.63
  29  -1  -8   10.80    1.57
 -29  -1   8   17.43    1.72
  29   1  -8   16.57    1.59
 -29   1   8   13.53    1.70
 -27  -1   8   51.94    4.82
  27  -1  -8   53.96    4.63
  27   1  -8   56.16    4.62
 -27   1   8   52.72    4.83
  25  -1  -8   57.28    4.72
 -25  -1   8   54.77    4.95
  25   1  -8   54.36    4.70
 -25   1   8   53.92    4.93
  23  -1  -8   46.90    3.95
 -23  -1   8   49.47    4.16
  23   1  -8   43.87    3.92
 -23   1   8   42.19    4.12
  21  -1  -8   46.10    3.56
 -21  -1   8   38.05    3.68
 -21   1   8   33.67    3.66
  21   1  -8   46.33    3.56
  19  -1  -8   41.05    4.12
 -19  -1   8   53.80    4.39
  19   1  -8   47.81    4.15
 -19   1   8   53.22    4.38
 -17  -1   8   81.75    7.29
  17  -1  -8   80.43    6.94
 -17   1   8   83.84    6.82
 -17   1   8   92.80    7.29
  17   1  -8   82.74    7.80
  15  -1  -8   85.58    6.73
 -15  -1   8   83.47    7.05
 -15   1   8   85.87    6.59
  15   1  -8   80.25    7.53
 -15   1   8   74.06    7.03
  15   1  -8   79.15    6.71
 -13  -1   8   52.64    4.09
  13  -1  -8   57.09    4.26
 -13  -1   8   48.49    4.42
 -13   1   8   47.79    4.12
  13   1  -8   47.13    4.21
  13   1  -8   55.78    4.71
 -13   1   8   42.04    4.40
  11  -1  -8  136.94   10.07
 -11  -1   8  125.29   11.36
 -11  -1   8  121.63   10.54
 -11   1   8  121.95    9.95
  11   1  -8  118.97    9.95
 -11   1   8  120.77   10.55
  -9  -1   8   52.31    5.06
   9  -1  -8   58.72    4.83
  -9  -1   8   55.35    5.42
   9   1  -8   57.66    4.77
   9   1  -8   68.25    4.87
  -9   1   8   58.28    5.09
  -9   1   8   59.39    4.76
  -7  -1   8   17.03    1.60
   7  -1  -8   14.70    1.50
  -7  -1   8   16.34    1.65
   7   1  -8   17.74    1.48
  -7   1   8   15.82    1.43
  -7   1   8   15.18    1.59
   7   1  -8   16.80    1.52
  -5  -1   8   45.35    4.52
   5  -1  -8   45.09    4.29
  -5  -1   8   61.61    4.89
   5   1  -8   54.70    4.31
  -5   1   8   56.63    4.26
  -5   1   8   47.89    4.52
   3  -1  -8   20.24    1.82
  -3  -1   8   19.71    2.05
  -3  -1   8   19.73    1.92
  -3   1   8   20.79    1.77
  -3   1   8   20.94    1.96
   3   1  -8   20.81    1.83
   3   1  -8   22.26    1.83
  -3   1   8   19.96    1.91
  -1  -1   8   78.83    7.46
   1  -1  -8   82.56    7.11
   1  -1  -8  102.72    7.12
  -1  -1   8   91.86    8.12
   1   1  -8   89.51    7.10
   1   1  -8   74.55    7.10
  -1   1   8   94.04    8.05
   1  -1   8  103.12    9.14
   1  -1   8  109.78    9.96
  -1  -1  -8  115.94    8.68
  -1  -1  -8   98.20    8.71
   1   1   8  106.22    9.15
  -1   1  -8  102.21    8.66
   1   1   8  119.80    9.92
  -1   1  -8  107.63    8.73
  -3  -1  -8  255.05   19.66
  -3  -1  -8  251.61   19.58
   3  -1   8  258.88   20.62
   3  -1   8  240.10   22.42
  -3   1  -8  248.98   19.66
   3   1   8  213.45   22.37
  -3   1  -8  247.26   19.56
   3   1   8  250.95   20.62
   5  -1   8   14.73    1.60
   5  -1   8   15.08    1.39
  -5  -1  -8   17.83    1.42
  -5   1  -8   12.67    1.37
   5   1   8   12.79    1.54
   5   1   8   13.66    1.39
  -7  -1  -8  130.92   10.34
   7  -1   8  119.43   11.80
   7  -1   8  123.51   10.79
   7   1   8  131.78   10.82
   7   1   8  131.00   11.78
  -7   1  -8  129.26   10.34
   9  -1   8   11.00    1.36
  -9  -1  -8   12.38    1.22
   9  -1   8   15.03    1.21
   9   1   8    8.51    1.40
   9   1   8   11.19    1.18
  -9   1  -8   10.03    1.24
 -11  -1  -8  153.30   11.59
  11  -1   8  151.68   13.30
  11  -1   8  136.81   12.10
  11   1   8  141.66   12.12
 -11   1  -8  151.00   11.60
  11   1   8  125.87   13.23
 -13  -1  -8   48.80    3.87
  13  -1   8   54.88    4.52
 -13   1  -8   48.45    3.87
  13   1   8   32.41    4.34
 -15  -1  -8  148.37   10.31
  15  -1   8  129.21   11.80
  15  -1   8  110.78   10.72
  15   1   8  119.58   11.75
 -15   1  -8  129.61   10.29
  15   1   8  123.83   10.73
 -17  -1  -8    0.86    0.46
  17  -1   8    0.53    0.40
  17  -1   8    1.30    0.58
 -17   1  -8    1.43    0.49
  17   1   8    0.78    0.52
  17   1   8    0.91    0.37
 -19  -1  -8   79.12    6.36
  19  -1   8   75.67    6.59
  19  -1   8   76.37    7.33
 -19   1  -8   69.67    6.33
  19   1   8   77.30    7.33
  19   1   8   79.43    6.62
  21  -1   8    0.88    0.60
 -21  -1  -8    0.69    0.46
 -21   1  -8    0.35    0.39
  21   1   8    1.24    0.63
 -21   1  -8    1.16    0.48
 -23  -1  -8   66.45    6.19
  23  -1   8   77.06    7.17
 -23  -1  -8   75.21    6.48
 -23   1  -8   75.83    6.48
 -23   1  -8   76.75    6.24
  23   1   8   73.86    7.14
  25  -1   8    0.23    0.54
 -25  -1  -8    0.35    0.40
 -25   1  -8    0.00    0.47
  25   1   8   -0.04    0.53
 -25   1  -8    0.04    0.36
  27  -1   8   26.39    3.05
 -27  -1  -8   25.24    2.67
 -27   1  -8   29.22    2.76
 -27   1  -8   30.19    2.69
  27   1   8   33.23    3.18
  29  -1   8   -0.10    0.53
 -29  -1  -8    0.63    0.51
  29   1   8    1.01    0.66
 -29   1  -8    0.09    0.43
  31  -1   8   27.76    3.08
 -31  -1  -8   26.37    2.73
 -31   1  -8   29.83    2.80
  31   1   8   28.43    3.05
  34  -2  -8   10.10    1.33
 -34  -2   8    7.13    1.23
 -34   2   8   10.34    1.37
  34   2  -8    9.10    1.24
  32  -2  -8    1.37    0.60
 -32  -2   8    1.75    0.59
 -32   2   8    1.72    0.65
  32   2  -8    1.90    0.60
 -30  -2   8    1.67    0.57
  30  -2  -8    1.13    0.57
 -30   2   8    1.69    0.60
  30   2  -8    0.98    0.53
  28  -2  -8    4.17    0.83
 -28  -2   8    3.75    0.76
  28   2  -8    4.07    0.77
 -28   2   8    2.64    0.74
 -26  -2   8    6.04    0.95
  26  -2  -8    5.74    0.94
 -26   2   8    5.34    0.97
  26   2  -8    6.99    0.98
 -24  -2   8    7.07    0.98
  24  -2  -8    5.92    0.94
  24   2  -8    5.45    0.88
 -24   2   8    6.33    0.99
 -22  -2   8    4.84    0.81
  22  -2  -8    4.01    0.76
  22   2  -8    4.21    0.80
 -22   2   8    3.93    0.76
  22   2  -8    3.84    0.75
 -20  -2   8   -0.26    0.34
  20  -2  -8   -0.01    0.37
  20   2  -8    0.11    0.35
 -20   2   8   -0.32    0.34
  20   2  -8    0.43    0.38
 -20   2   8   -0.02    0.25
 -18  -2   8    0.67    0.44
  18  -2  -8    1.43    0.48
  18   2  -8    0.74    0.42
 -18   2   8    1.32    0.35
 -18   2   8    1.53    0.50
  18   2  -8    1.16    0.45
  16  -2  -8    0.74    0.41
 -16  -2   8    0.16    0.38
  16   2  -8    0.75    0.38
  16   2  -8    1.60    0.44
 -16   2   8    0.77    0.42
 -16   2   8    1.41    0.33
  14  -2  -8   13.35    1.37
 -14  -2   8   12.04    1.38
  14   2  -8   12.34    1.33
  14   2  -8   14.57    1.44
 -14   2   8   11.86    1.39
 -14   2   8   15.13    1.25
 -12  -2   8    6.14    0.89
  12  -2  -8    6.95    0.88
 -12  -2   8    4.86    0.82
  12   2  -8    7.28    0.76
 -12   2   8    6.88    0.93
 -12   2   8    6.77    0.77
  12   2  -8    6.11    0.85
 -10  -2   8    8.14    1.00
 -10  -2   8    7.28    1.02
  10  -2  -8   10.15    1.02
  10   2  -8    8.34    0.89
 -10   2   8    9.50    0.88
  10   2  -8    7.62    0.99
 -10   2   8    9.67    1.04
   8  -2  -8    3.40    0.58
  -8  -2   8    3.46    0.60
  -8  -2   8    1.80    0.50
  -8   2   8    2.81    0.47
  -8   2   8    2.01    0.52
   8   2  -8    3.79    0.56
   8   2  -8    3.33    0.49
  -6  -2   8   93.23    8.40
  -6  -2   8  109.66    9.13
   6  -2  -8   93.83    7.99
  -6   2   8   96.29    8.41
   6   2  -8   89.60    7.98
   6   2  -8  108.03    7.98
   4  -2  -8   26.40    2.28
  -4  -2   8   24.21    2.38
  -4  -2   8   27.81    2.61
  -4   2   8   24.63    2.22
  -4   2   8   26.28    2.40
   4   2  -8   25.16    2.25
   4   2  -8   28.98    2.28
   2  -2  -8   48.14    4.12
  -2  -2   8   49.37    4.34
   2   2  -8   49.65    4.11
  -2   2   8   48.40    4.34
   2   2  -8   48.65    4.14
  -2   2   8   53.19    4.59
   0  -2  -8    2.53    0.44
   0  -2   8    2.27    0.47
   0  -2   8    2.59    0.57
   0   2  -8    2.73    0.50
   0   2   8    2.26    0.42
   0   2   8    1.81    0.45
   0   2  -8    2.60    0.42
  -2  -2  -8   15.43    1.39
   2  -2   8   16.37    1.44
  -2  -2  -8   14.99    1.33
   2  -2   8   13.45    1.59
  -2   2  -8   15.19    1.30
  -2   2  -8   13.35    1.40
   2   2   8   15.38    1.45
   2   2   8   13.15    1.50
  -4  -2  -8    3.30    0.57
   4  -2   8    2.86    0.63
   4  -2   8    2.88    0.52
  -4  -2  -8    3.28    0.45
   4   2   8    3.93    0.63
   4   2   8    3.42    0.55
  -4   2  -8    2.67    0.55
  -4   2  -8    3.62    0.43
   6  -2   8    8.28    0.86
  -6  -2  -8    8.80    0.96
   6  -2   8    9.04    1.16
   6   2   8    8.20    0.88
  -6   2  -8    6.62    0.90
   6   2   8    7.25    1.02
  -6   2  -8    6.84    0.70
   8  -2   8    6.86    1.08
   8  -2   8    5.72    0.81
  -8  -2  -8    6.50    0.85
  -8   2  -8    6.49    0.88
   8   2   8    6.90    0.83
   8   2   8    6.93    0.99
  10  -2   8    0.82    0.49
 -10  -2  -8    1.25    0.42
  10  -2   8    0.72    0.34
  10   2   8    1.37    0.40
 -10   2  -8    0.35    0.35
  10   2   8    1.33    0.50
  12  -2   8    0.70    0.34
 -12  -2  -8    0.96    0.45
  12  -2   8    1.22    0.55
  12   2   8    0.45    0.43
 -12   2  -8    0.45    0.40
  12   2   8    1.11    0.38
  14  -2   8    2.53    0.52
 -14  -2  -8    2.64    0.58
  14  -2   8    1.92    0.69
  14   2   8    1.73    0.49
 -14   2  -8    2.18    0.55
  14   2   8    1.96    0.67
  16  -2   8    2.50    0.76
  16  -2   8    2.09    0.49
 -16  -2  -8    3.06    0.63
  16   2   8    2.28    0.69
  16   2   8    1.78    0.49
 -16   2  -8    2.54    0.58
  18  -2   8    2.88    0.81
 -18  -2  -8    2.23    0.61
  18  -2   8    2.48    0.57
 -18   2  -8    3.48    0.70
  18   2   8    2.59    0.59
  18   2   8    3.03    0.77
 -20  -2  -8    8.49    1.13
  20  -2   8    8.99    1.36
 -20   2  -8    9.14    1.16
  20   2   8    7.38    1.32
  20   2   8    8.09    1.10
  22  -2   8    2.95    0.82
 -22  -2  -8    3.10    0.75
 -22  -2  -8    3.77    0.67
 -22   2  -8    3.30    0.69
  22   2   8    3.56    0.92
 -22   2  -8    3.01    0.71
 -24  -2  -8    4.78    0.82
  24  -2   8    6.05    1.13
  24   2   8    4.89    1.05
 -24   2  -8    4.79    0.86
 -24   2  -8    4.96    0.89
 -26  -2  -8   12.44    1.47
  26  -2   8   10.96    1.64
  26   2   8   14.00    1.82
 -26   2  -8   10.38    1.39
 -26   2  -8    9.87    1.39
 -28  -2  -8    8.81    1.23
  28  -2   8   10.69    1.59
 -28   2  -8    7.93    1.20
 -28   2  -8    9.69    1.30
  28   2   8    9.18    1.48
  30  -2   8    4.15    1.06
 -30  -2  -8    5.26    0.88
  30   2   8    4.19    1.03
  33  -3  -8   29.45    2.96
 -33  -3   8   36.52    3.12
  33   3  -8   31.36    2.95
 -33   3   8   31.30    3.12
 -31  -3   8   71.30    5.79
  31  -3  -8   71.11    5.54
 -31   3   8   56.57    5.75
  31   3  -8   60.45    5.45
  29  -3  -8   22.07    2.17
 -29  -3   8   19.77    2.19
 -29   3   8   18.66    2.23
  29   3  -8   28.13    2.17
  27  -3  -8  100.42    8.72
 -27  -3   8  116.61    9.19
  27   3  -8  104.16    8.70
 -27   3   8  102.67    9.17
 -25  -3   8   63.30    5.25
  25  -3  -8   55.94    5.00
  25   3  -8   61.48    4.98
 -25   3   8   54.20    5.20
 -23  -3   8  122.23   10.47
  23  -3  -8  116.98    9.98
  23   3  -8  117.55    9.94
 -23   3   8  111.17   10.45
  23   3  -8  142.53   11.37
 -21  -3   8  158.25   11.39
  21  -3  -8  125.29   10.80
  21   3  -8  124.88   10.78
 -21   3   8  127.81   11.34
  21   3  -8  130.99   12.27
 -21   3   8  130.56   10.70
 -19  -3   8   48.80    5.01
  19  -3  -8   69.59    4.87
 -19   3   8   57.10    5.05
  19   3  -8   57.82    4.79
 -19   3   8   56.03    4.70
  19   3  -8   54.38    5.39
 -17  -3   8   91.79    7.74
  17  -3  -8   81.99    7.34
  17   3  -8   88.67    7.34
 -17   3   8   87.19    7.25
  17   3  -8   97.50    8.34
  15  -3  -8  109.20    9.82
 -15  -3   8  130.95   10.35
 -15   3   8  121.99    9.73
  15   3  -8  130.37    9.84
 -15   3   8  112.63   10.30
 -13  -3   8  116.24    9.99
  13   3  -8  109.05    9.50
 -13   3   8  125.21    9.43
  11  -3  -8  161.33   12.40
 -11  -3   8  133.50   12.98
 -11  -3   8  161.83   14.09
 -11   3   8  153.18   12.30
  11   3  -8  153.93   12.38
 -11   3   8  154.38   13.01
  11   3  -8  156.62   12.29
  -9  -3   8  181.71   15.30
   9  -3  -8  192.83   14.58
  -9  -3   8  185.79   16.60
  -9   3   8  201.93   15.35
  -9   3   8  154.59   14.48
   9   3  -8  180.53   14.56
   9   3  -8  175.98   14.49
  -7  -3   8  174.93   17.58
   7  -3  -8  186.69   15.42
  -7  -3   8  200.76   16.21
  -7   3   8  200.32   16.21
  -7   3   8  188.99   15.36
   7   3  -8  181.11   15.40
   7   3  -8  212.70   15.38
   5  -3  -8  192.77   13.94
  -5  -3   8  168.70   14.62
   5   3  -8  167.26   13.89
   5   3  -8  171.52   13.91
  -5   3   8  166.10   13.87
  -5   3   8  175.33   14.62
  -3  -3   8  170.01   14.52
  -3  -3   8  181.79   15.82
   3  -3  -8  174.52   13.81
   3   3  -8  177.16   13.80
  -3   3   8  172.56   13.78
  -3   3   8  164.52   14.50
   3   3  -8  165.22   13.80
  -1  -3   8  152.10   13.92
  -1  -3   8  159.47   12.75
   1  -3  -8  153.07   12.14
   1   3  -8  144.16   12.16
  -1   3   8  154.02   12.12
  -1   3   8  148.25   13.74
   1   3  -8  151.19   12.12
  -1   3   8  147.37   12.76
  -1  -3  -8   59.98    4.93
   1  -3   8   66.18    5.22
  -1   3  -8   50.73    4.89
   1   3   8   66.37    5.21
   1   3   8   56.51    5.58
  -1   3  -8   66.25    5.00
  -3  -3  -8  325.08   25.21
  -3  -3  -8  309.60   25.24
   3  -3   8  312.60   28.86
   3  -3   8  313.29   26.49
  -3   3  -8  308.44   25.26
   3   3   8  337.28   28.77
  -3   3  -8  314.70   25.18
   3   3   8  310.39   26.51
  -5  -3  -8   20.86    1.74
   5  -3   8   20.93    1.86
  -5  -3  -8   19.67    1.82
   5  -3   8   20.47    2.16
   5   3   8   20.57    2.06
   5   3   8   20.49    1.90
  -5   3  -8   18.69    1.70
  -5   3  -8   19.92    1.86
   7  -3   8  273.27   22.43
   7  -3   8  278.44   24.50
  -7  -3  -8  278.89   21.42
   7   3   8  241.12   24.39
  -9  -3  -8   24.92    2.31
   9  -3   8   25.69    2.35
   9  -3   8   27.64    2.70
   9   3   8   26.52    2.65
   9   3   8   26.71    2.40
  -9   3  -8   24.40    2.33
 -11  -3  -8  214.13   18.07
  11  -3   8  218.68   20.69
  11  -3   8  213.61   18.91
  11   3   8  252.12   18.96
  11   3   8  227.01   20.64
 -11   3  -8  225.35   18.09
 -13  -3  -8   12.55    1.32
  13  -3   8   11.50    1.64
  13  -3   8   12.79    1.27
  13   3   8   13.21    1.53
  13   3   8   12.27    1.28
 -13   3  -8   10.68    1.35
  15  -3   8  179.82   17.60
 -15  -3  -8  160.75   15.33
  15  -3   8  221.99   16.11
  15   3   8  180.61   17.57
 -15   3  -8  204.96   15.41
  15   3   8  194.99   16.10
  17  -3   8    0.83    0.60
  17  -3   8    0.26    0.37
 -17  -3  -8    0.02    0.38
 -17   3  -8    0.61    0.44
  17   3   8    0.32    0.49
  17   3   8    0.59    0.40
 -19  -3  -8  172.35   14.35
  19  -3   8  183.22   16.48
 -19   3  -8  176.82   14.35
  19   3   8  177.48   15.01
 -21  -3  -8    0.19    0.45
  21  -3   8    0.16    0.53
 -21   3  -8   -0.23    0.39
  21   3   8    0.86    0.60
 -21   3  -8    0.72    0.42
 -23  -3  -8   98.08    8.02
 -23   3  -8   85.09    8.01
 -23   3  -8   95.84    7.69
  23   3   8   91.51    8.80
  25  -3   8   -0.48    0.52
 -25  -3  -8   -0.13    0.37
 -25   3  -8    0.05    0.41
 -25   3  -8   -0.05    0.42
  25   3   8    0.20    0.50
 -27  -3  -8  101.89   10.00
  27  -3   8  120.05   11.04
 -27   3  -8  126.01    9.64
  27   3   8  122.55   11.07
  29  -3   8    6.21    1.19
 -29  -3  -8    5.27    0.95
 -29   3  -8    6.44    1.02
  29   3   8    6.60    1.23
  34  -4  -8   90.06    8.57
 -34  -4   8  116.97    9.15
  34   4  -8  105.88    8.57
 -32  -4   8   12.29    1.55
  32  -4  -8   12.29    1.55
  32   4  -8   12.36    1.45
 -32   4   8    9.44    1.47
 -30  -4   8  114.57    8.84
  30  -4  -8   83.67    8.34
 -30   4   8   94.92    8.82
  30   4  -8  113.75    8.38
 -28  -4   8   20.99    2.09
  28  -4  -8   18.20    2.00
  28   4  -8   19.92    1.97
 -28   4   8   21.45    2.14
  26  -4  -8  166.92   15.14
 -26  -4   8  190.26   15.92
 -26   4   8  185.22   15.95
  26   4  -8  207.01   17.31
  26   4  -8  187.06   15.13
 -24  -4   8   23.39    2.19
  24  -4  -8   19.08    2.05
 -24   4   8   19.84    2.18
  24   4  -8   20.86    2.02
  24   4  -8   23.58    2.34
  22  -4  -8  231.10   20.46
 -22  -4   8  226.84   21.45
  22   4  -8  273.40   23.32
  22   4  -8  263.83   20.45
 -22   4   8  254.14   20.37
 -22   4   8  279.20   21.53
  20  -4  -8   13.20    1.45
 -20  -4   8   14.67    1.51
 -20   4   8   11.12    1.56
 -20   4   8   14.43    1.36
  20   4  -8   14.42    1.42
  20   4  -8   15.23    1.62
  18  -4  -8  186.84   15.58
 -18  -4   8  163.73   16.33
 -18   4   8  200.88   15.50
 -18   4   8  204.41   16.37
  18   4  -8  202.26   15.57
  18   4  -8  200.81   17.72
  16  -4  -8    7.65    1.01
 -16  -4   8    6.04    0.96
 -16   4   8    7.03    1.02
  16   4  -8    8.60    1.07
 -16   4   8    7.40    0.87
  16   4  -8    7.69    0.96
  14  -4  -8  330.56   27.90
 -14  -4   8  343.65   31.78
 -14  -4   8  357.48   29.31
 -14   4   8  350.32   29.30
 -14   4   8  367.31   27.82
  14   4  -8  344.85   27.88
  12  -4  -8    7.65    1.00
 -12  -4   8    9.49    1.09
 -12  -4   8    8.96    1.17
 -12   4   8    9.23    1.09
  12   4  -8    7.29    0.97
 -12   4   8    8.70    0.88
  10  -4  -8  410.66   33.51
 -10  -4   8  437.51   35.21
 -10  -4   8  405.95   38.21
  10   4  -8  437.56   33.51
 -10   4   8  400.28   35.18
 -10   4   8  429.61   33.43
  -8  -4   8   61.04    4.80
   8  -4  -8   53.68    4.56
  -8  -4   8   60.18    5.23
  -8   4   8   46.42    4.77
   8   4  -8   58.47    4.51
   8   4  -8   46.08    4.53
  -8   4   8   58.28    4.53
  -6  -4   8  425.28   35.59
   6  -4  -8  432.76   33.90
  -6  -4   8  415.40   38.68
  -6   4   8  424.24   33.83
  -6   4   8  441.19   35.60
   6   4  -8  413.74   33.84
  -4  -4   8   27.89    2.74
   4  -4  -8   24.82    2.34
  -4  -4   8   30.21    2.49
   4   4  -8   24.38    2.33
   4   4  -8   28.30    2.34
  -4   4   8   27.12    2.32
  -2  -4   8  412.87   36.81
   2  -4  -8  406.76   35.05
  -2  -4   8  486.15   40.09
   2   4  -8  437.55   35.06
   2   4  -8  451.52   35.05
  -2   4   8  478.78   35.03
  -2   4   8  412.11   36.82
   0  -4  -8   90.95    6.97
   0  -4   8   86.47    8.08
   0  -4   8   81.46    7.31
   0   4  -8   72.93    6.98
   0   4   8   91.14    7.89
   0   4  -8   90.16    6.96
   0   4   8   86.52    6.96
   2  -4   8  366.77   29.27
  -2  -4  -8  335.32   27.86
   2  -4   8  311.55   31.87
   2   4   8  359.17   29.30
  -2   4  -8  366.81   27.84
  -2   4  -8  369.72   27.93
   2   4   8  352.02   27.86
   2   4   8  336.59   31.76
   4  -4   8   25.68    2.66
   4  -4   8   26.64    2.31
  -4  -4  -8   26.77    2.16
  -4   4  -8   28.18    2.29
   4   4   8   22.66    2.49
   4   4   8   25.43    2.34
  -4   4  -8   23.69    2.14
   6  -4   8  355.52   32.73
  -6  -4  -8  359.32   28.53
   6  -4   8  351.21   29.99
  -6  -4  -8  385.02   28.61
  -6   4  -8  347.22   28.50
  -6   4  -8  353.83   28.63
   6   4   8  359.51   30.04
  -8  -4  -8   44.55    3.74
   8  -4   8   38.04    3.83
   8  -4   8   41.25    4.32
  -8   4  -8   46.13    3.77
   8   4   8   47.32    4.30
   8   4   8   49.85    3.92
  10  -4   8  200.59   15.75
  10  -4   8  181.90   17.24
 -10  -4  -8  184.09   15.04
  10   4   8  182.73   15.77
 -10   4  -8  180.10   15.05
  10   4   8  190.80   17.18
 -12  -4  -8   65.04    5.58
  12  -4   8   75.43    6.52
  12  -4   8   68.83    5.79
  12   4   8   64.84    5.81
  12   4   8   63.53    6.39
 -12   4  -8   66.42    5.60
  14  -4   8  169.98   16.05
  14  -4   8  169.58   14.62
 -14  -4  -8  170.77   13.98
  14   4   8  174.26   14.65
  14   4   8  176.25   16.02
 -14   4  -8  178.79   14.02
  16  -4   8   99.92    8.67
 -16  -4  -8  101.34    8.32
  16  -4   8   97.76    9.57
 -16   4  -8  100.02    8.31
  16   4   8  107.23    9.56
 -18  -4  -8  122.68   10.56
  18  -4   8  122.44   12.12
 -18   4  -8  136.41   10.59
  18   4   8  123.45   11.05
  18   4   8  144.20   12.14
 -20  -4  -8  137.72   11.42
  20  -4   8  138.33   13.10
 -20   4  -8  143.32   11.41
  20   4   8  139.25   13.08
  20   4   8  140.76   11.92
  22  -4   8   20.21    2.51
 -22  -4  -8   23.94    2.21
 -22   4  -8   27.36    2.25
  22   4   8   19.63    2.50
 -24  -4  -8   53.44    4.64
 -24   4  -8   51.63    4.47
  24   4   8   50.02    5.15
 -26  -4  -8   35.75    3.36
  26  -4   8   38.14    3.82
 -26   4  -8   36.68    3.25
  26   4   8   33.89    3.71
 -28  -4  -8  108.88    9.26
  28  -4   8   98.38   10.14
  28   4   8  111.87   10.17
 -28   4  -8  108.62    8.85
  30  -4   8   18.40    2.16
 -30  -4  -8   17.01    1.86
  30   4   8   17.23    2.27
 -30   4  -8   17.40    1.86
  33  -5  -8    2.58    0.78
 -33  -5   8    3.40    0.78
  33   5  -8    3.69    0.76
  31  -5  -8   18.10    2.05
 -31  -5   8   21.78    2.14
  31   5  -8   21.05    1.98
 -29  -5   8    2.19    0.69
  29  -5  -8    2.94    0.72
 -29   5   8    4.01    0.86
  29   5  -8    2.50    0.65
  27  -5  -8    4.45    0.89
 -27  -5   8    5.61    0.95
  27   5  -8    6.51    0.92
 -27   5   8    5.31    1.01
  27   5  -8    6.14    1.07
 -25  -5   8    1.63    0.62
  25  -5  -8    2.53    0.68
  25   5  -8    2.96    0.64
  25   5  -8    4.07    0.81
 -25   5   8    3.10    0.75
  23  -5  -8   17.90    1.82
 -23  -5   8   18.91    1.90
  23   5  -8   18.06    1.77
  23   5  -8   17.75    2.00
 -23   5   8   17.05    1.69
 -23   5   8   18.80    1.89
  21  -5  -8   19.99    1.90
 -21  -5   8   17.61    1.95
  21   5  -8   21.44    1.87
  21   5  -8   18.73    2.08
 -21   5   8   17.72    1.97
 -21   5   8   20.63    1.80
 -19  -5   8    3.53    0.76
  19  -5  -8    4.38    0.80
  19   5  -8    4.84    0.86
  19   5  -8    5.14    0.77
 -19   5   8    6.80    0.78
 -19   5   8    5.48    0.87
  17  -5  -8    6.88    0.96
 -17  -5   8    5.25    0.94
 -17   5   8    6.78    0.87
 -17   5   8    7.77    1.05
  17   5  -8    7.95    0.96
  17   5  -8    8.28    1.08
 -15  -5   8   14.03    1.67
  15  -5  -8   15.94    1.52
 -15  -5   8   15.74    1.60
  15   5  -8   14.89    1.47
 -15   5   8   16.02    1.58
 -15   5   8   14.48    1.42
 -13  -5   8   28.82    2.65
 -13  -5   8   32.72    2.91
  13  -5  -8   32.24    2.54
  13   5  -8   29.52    2.50
 -13   5   8   24.24    2.44
 -13   5   8   24.33    2.64
 -11  -5   8   61.86    5.90
 -11  -5   8   51.18    5.38
  11  -5  -8   67.11    5.18
 -11   5   8   67.25    5.46
  11   5  -8   64.91    5.16
 -11   5   8   62.27    5.10
  -9  -5   8   20.07    1.99
   9  -5  -8   21.20    1.91
  -9  -5   8   24.52    2.23
   9   5  -8   19.31    1.87
  -9   5   8   20.43    1.84
  -9   5   8   20.51    2.01
  -7  -5   8    8.51    1.04
  -7  -5   8    7.01    1.14
   7  -5  -8    8.55    0.99
   7   5  -8    9.06    0.98
  -7   5   8    9.03    0.89
  -7   5   8    7.89    1.01
   7   5  -8    8.89    0.95
   5  -5  -8    4.24    0.67
  -5  -5   8    5.46    0.77
  -5  -5   8    5.63    0.94
   5   5  -8    5.87    0.72
  -5   5   8    5.36    0.76
   5   5  -8    5.43    0.71
  -5   5   8    6.09    0.71
  -3  -5   8   41.49    3.33
  -3  -5   8   29.42    3.64
   3  -5  -8   34.57    3.14
  -3   5   8   31.53    3.12
   3   5  -8   41.12    3.14
   3   5  -8   44.86    3.18
  -3   5   8   38.46    3.32
  -1  -5   8  104.74    7.59
  -1  -5   8   82.39    8.32
   1  -5  -8   88.16    7.20
   1   5  -8   84.42    7.18
  -1   5   8   86.31    7.58
   1   5  -8   85.80    7.23
  -1   5   8   89.05    7.20
   1  -5   8    3.24    0.53
   1  -5   8    2.61    0.68
  -1  -5  -8    2.84    0.47
  -1   5  -8    1.88    0.50
   1   5   8    3.51    0.55
   1   5   8    2.30    0.46
  -1   5  -8    2.37    0.44
   1   5   8    3.59    0.52
   3  -5   8   52.69    4.70
  -3  -5  -8   46.71    3.95
   3  -5   8   45.62    4.15
  -3   5  -8   51.91    3.95
   3   5   8   45.00    3.97
   3   5   8   49.46    4.21
   3   5   8   44.88    4.52
  -3   5  -8   48.84    4.05
   5  -5   8   29.92    2.89
   5  -5   8   23.68    2.42
  -5  -5  -8   24.99    2.30
  -5   5  -8   28.62    2.30
   5   5   8   29.01    2.35
   5   5   8   28.02    2.51
   5   5   8   28.54    2.72
  -5   5  -8   26.72    2.43
  -7  -5  -8    6.64    0.70
   7  -5   8    6.93    0.82
  -7  -5  -8    6.03    0.84
   7  -5   8    7.13    1.16
  -7   5  -8    7.77    0.93
   7   5   8    4.24    0.90
  -7   5  -8    6.56    0.72
   7   5   8    8.02    0.91
   9  -5   8    9.00    0.97
  -9  -5  -8    9.01    1.07
   9  -5   8    8.64    1.37
   9   5   8    9.65    1.12
   9   5   8    8.09    1.22
  -9   5  -8    9.07    1.13
  11  -5   8    2.24    0.72
  11  -5   8    1.66    0.43
 -11  -5  -8    2.00    0.50
  11   5   8    2.12    0.59
 -11   5  -8    1.91    0.57
  11   5   8    1.37    0.45
 -13  -5  -8    1.01    0.46
  13  -5   8    0.28    0.49
  13   5   8    0.58    0.48
  13   5   8    0.48    0.35
 -13   5  -8    0.72    0.44
 -15  -5  -8   34.19    2.62
  15  -5   8   27.94    3.02
  15   5   8   25.83    2.93
 -15   5  -8   22.90    2.54
  15   5   8   31.02    2.65
  17  -5   8    0.45    0.48
 -17  -5  -8    0.00    0.38
  17   5   8    0.31    0.49
  17   5   8   -0.02    0.33
 -17   5  -8    0.36    0.40
  19  -5   8    7.28    1.31
 -19   5  -8    6.88    1.07
  19   5   8    9.37    1.15
  19   5   8    9.30    1.40
  21  -5   8    5.20    1.16
 -21  -5  -8    5.99    0.94
 -21   5  -8    6.38    0.98
  21   5   8    8.58    1.30
  23  -5   8    8.31    1.43
 -23  -5  -8   11.24    1.28
  23   5   8    9.71    1.45
 -23   5  -8    7.34    1.15
 -25  -5  -8    0.53    0.44
  25  -5   8    0.34    0.56
  25   5   8    0.19    0.54
 -25   5  -8    0.27    0.45
  27  -5   8   37.09    4.00
 -27  -5  -8   41.96    3.61
  27   5   8   36.19    3.97
  29  -5   8    0.01    0.51
 -29  -5  -8   -0.04    0.40
 -29   5  -8   -0.18    0.46
  29   5   8    0.07    0.56
 -32  -6   8    6.82    1.10
  32  -6  -8    7.48    1.18
  32   6  -8    6.49    1.00
 -30  -6   8   51.42    4.64
  30  -6  -8   43.54    4.43
  30   6  -8   50.32    4.39
  30   6  -8   60.57    5.13
  28  -6  -8    1.22    0.55
 -28  -6   8    0.54    0.46
  28   6  -8    0.78    0.41
  28   6  -8    0.37    0.55
 -26  -6   8   22.87    2.38
  26  -6  -8   24.81    2.33
  26   6  -8   23.82    2.56
  26   6  -8   23.91    2.22
  24  -6  -8    0.25    0.43
 -24  -6   8    0.84    0.47
 -24   6   8    0.26    0.37
  24   6  -8    0.09    0.45
  24   6  -8    0.60    0.42
  22  -6  -8   60.78    5.18
 -22  -6   8   58.29    5.40
  22   6  -8   62.74    5.85
 -22   6   8   58.93    5.08
  22   6  -8   66.11    5.13
 -22   6   8   59.08    5.45
 -20  -6   8    9.68    1.27
  20  -6  -8   10.74    1.28
  20   6  -8   10.06    1.16
  20   6  -8    9.53    1.33
 -20   6   8    9.95    1.14
 -20   6   8    8.82    1.25
 -18  -6   8   69.78    6.50
 -18  -6   8   75.90    7.06
  18  -6  -8   86.95    6.24
  18   6  -8   68.70    6.12
 -18   6   8   75.09    6.11
 -18   6   8   71.62    6.49
  16  -6  -8    2.97    0.62
 -16  -6   8    2.34    0.60
 -16  -6   8    3.01    0.71
 -16   6   8    2.71    0.62
 -16   6   8    2.35    0.49
  16   6  -8    2.63    0.55
 -14  -6   8   33.48    2.96
  14  -6  -8   28.84    2.78
 -14  -6   8   30.00    3.19
  14   6  -8   35.32    2.79
 -14   6   8   32.30    2.93
 -14   6   8   30.57    2.72
 -12  -6   8   39.12    4.08
  12  -6  -8   51.40    3.62
 -12  -6   8   40.10    3.72
 -12   6   8   39.89    3.51
  12   6  -8   40.12    3.53
 -12   6   8   41.15    3.74
  10  -6  -8  101.79    8.50
 -10  -6   8  107.39    9.76
 -10  -6   8  110.59    8.96
 -10   6   8  103.33    8.45
 -10   6   8   99.97    8.91
  10   6  -8  103.72    8.48
   8  -6  -8    4.82    0.69
  -8  -6   8    5.49    0.76
  -8  -6   8    6.08    0.97
  -8   6   8    6.44    0.82
  -8   6   8    4.44    0.66
   8   6  -8    4.14    0.68
  -6  -6   8   44.75    4.82
  -6  -6   8   50.60    4.38
   6  -6  -8   51.39    4.18
  -6   6   8   51.74    4.14
   6   6  -8   49.93    4.14
   6   6  -8   50.14    4.16
  -6   6   8   49.88    4.38
  -4  -6   8    0.34    0.33
   4  -6  -8    0.15    0.27
  -4  -6   8   -0.05    0.38
  -4   6   8    0.26    0.28
   4   6  -8    0.12    0.29
  -4   6   8    0.42    0.33
   4   6  -8    0.01    0.31
  -2  -6   8   81.34    7.45
   2  -6  -8   78.49    6.40
  -2  -6   8   74.48    6.70
   2   6  -8   79.67    6.38
   2   6  -8   76.10    6.42
  -2   6   8   79.25    6.74
  -2   6   8   79.91    6.39
   0  -6   8   10.53    0.98
   0  -6  -8    9.17    0.93
   0  -6   8    7.00    1.22
   0   6   8    7.38    0.99
   0   6  -8    9.16    0.93
   0   6   8    9.19    0.93
   0   6  -8    8.59    1.05
   2  -6   8   70.04    6.13
  -2  -6  -8   74.07    5.86
  -2   6  -8   77.30    5.87
   2   6   8   69.34    5.86
   2   6   8   76.65    6.21
   2   6   8   67.04    6.66
  -2   6  -8   68.67    5.92
  -4  -6  -8   62.56    4.99
   4  -6   8   57.94    5.87
   4   6   8   61.76    5.28
  -4   6  -8   66.93    5.09
   4   6   8   55.70    4.99
  -4   6  -8   59.96    4.96
   4   6   8   61.14    5.73
   6  -6   8   43.74    4.58
  -6  -6  -8   46.21    3.82
   6   6   8   45.23    3.85
   6   6   8   44.53    4.44
   6   6   8   53.45    4.11
  -6   6  -8   45.38    3.95
  -6   6  -8   45.14    3.82
  -8  -6  -8   32.30    2.29
   8  -6   8   21.93    2.64
   8   6   8   22.47    2.54
   8   6   8   24.01    2.32
  -8   6  -8   24.06    2.27
  10  -6   8   86.59    6.78
 -10  -6  -8   55.71    5.71
  10   6   8   75.39    6.61
  10   6   8   55.24    5.97
 -10   6  -8   85.05    5.84
  12  -6   8   12.65    1.73
 -12  -6  -8   12.48    1.39
 -12   6  -8   11.00    1.37
  12   6   8   12.47    1.61
  12   6   8   11.41    1.27
 -14  -6  -8   53.71    4.47
 -14   6  -8   62.82    4.52
  14   6   8   43.11    5.06
  14   6   8   52.10    4.63
 -16  -6  -8   15.00    1.71
  16  -6   8   18.83    2.07
 -16   6  -8   18.50    1.76
  16   6   8   16.89    1.98
  16   6   8   16.78    1.73
  18  -6   8   16.21    2.11
  18   6   8   14.88    1.61
 -18   6  -8   15.73    1.62
  18   6   8   16.03    1.90
  20  -6   8    4.07    0.98
  20   6   8    5.22    1.01
 -20   6  -8    3.69    0.75
 -22  -6  -8   37.03    3.88
  22  -6   8   48.60    4.51
 -22   6  -8   49.72    3.83
  22   6   8   40.41    4.34
 -24  -6  -8   16.15    1.82
  24  -6   8   18.81    2.21
  24   6   8   18.50    2.13
 -24   6  -8   17.51    1.81
  26  -6   8   10.38    1.85
 -26  -6  -8   15.26    1.60
 -26   6  -8   16.42    1.65
  26   6   8   16.41    2.07
  28  -6   8    9.96    1.68
 -28  -6  -8    9.50    1.38
  28   6   8   12.22    1.72
 -28   6  -8   14.79    1.54
 -31  -7   8   82.42    7.15
  31  -7  -8   77.26    6.85
  31   7  -8   83.45    6.77
 -29  -7   8   25.59    2.52
  29  -7  -8   23.85    2.45
  29   7  -8   25.87    2.76
  29   7  -8   26.21    2.37
 -27  -7   8   84.62    7.37
  27  -7  -8   81.46    7.05
 -27   7   8   86.12    7.02
  25  -7  -8   40.22    3.19
 -25  -7   8   40.81    3.31
 -25   7   8   31.75    3.02
  25   7  -8   30.03    3.49
  25   7  -8   33.14    3.04
  23  -7  -8  145.00   11.09
 -23  -7   8  112.73   11.55
  23   7  -8  137.53   12.56
  23   7  -8  153.18   11.02
 -23   7   8  129.78   10.96
 -21  -7   8   62.80    5.62
  21  -7  -8   78.09    5.44
  21   7  -8   62.93    5.31
 -21   7   8   54.53    5.26
  19  -7  -8  159.76   12.91
 -19  -7   8  175.05   13.59
 -19  -7   8  151.88   14.69
  19   7  -8  153.73   12.84
 -19   7   8  155.98   12.82
 -17  -7   8  104.81    9.78
  17  -7  -8  105.84    8.57
 -17  -7   8  105.15    9.01
 -17   7   8  106.87    8.50
 -17   7   8  102.77    8.99
  17   7  -8  101.01    8.51
 -15  -7   8  119.35   11.27
  15  -7  -8  125.24    9.88
 -15  -7   8  126.72   10.37
  15   7  -8  118.77    9.81
 -15   7   8  117.54    9.79
 -15   7   8  118.87   10.35
 -13  -7   8  120.83   10.93
  13  -7  -8  121.80    9.56
 -13  -7   8  127.15   10.04
 -13   7   8  104.07    9.46
 -13   7   8  114.52   10.00
  13   7  -8  116.23    9.50
 -11  -7   8  185.71   17.78
 -11  -7   8  218.51   16.36
 -11   7   8  190.02   16.30
 -11   7   8  179.74   15.49
  11   7  -8  193.19   15.53
  -9  -7   8  294.67   23.57
  -9  -7   8  238.17   21.59
   9  -7  -8  252.20   20.57
  -9   7   8  249.98   20.52
   9   7  -8  252.81   20.55
  -9   7   8  256.29   21.59
  -7  -7   8  131.68   11.18
   7  -7  -8  131.96   10.63
  -7  -7   8  131.51   12.23
  -7   7   8  128.56   10.60
  -7   7   8  128.93   11.15
   7   7  -8  135.80   10.62
  -5  -7   8  283.99   25.58
   5  -7  -8  298.10   24.39
  -5  -7   8  302.69   27.92
  -5   7   8  336.00   24.36
   5   7  -8  291.51   24.35
   5   7  -8  275.56   24.35
  -5   7   8  350.96   25.64
  -3  -7   8   78.30    6.79
   3  -7  -8   72.67    5.82
  -3  -7   8   78.30    6.11
  -3   7   8   62.69    5.78
   3   7  -8   63.19    5.77
  -3   7   8   70.35    6.09
   3   7  -8   72.47    5.83
  -1  -7   8  249.75   23.41
   1  -7  -8  253.88   20.41
   1   7  -8  261.29   20.43
   1   7  -8  266.11   20.40
  -1   7   8  226.88   20.37
  -1   7   8  273.30   21.44
  -1  -7  -8   37.08    2.99
   1  -7   8   31.51    3.54
   1   7   8   34.79    2.99
  -1   7  -8   34.31    2.97
   1   7   8   35.17    3.14
  -1   7  -8   37.57    3.06
  -3  -7  -8  246.59   18.12
  -3   7  -8  242.57   18.10
  -3   7  -8  217.29   18.15
   3   7   8  203.57   18.08
   3   7   8  221.33   19.04
  -5  -7  -8   13.78    1.22
   5  -7   8   11.81    1.75
   5   7   8   13.22    1.44
  -5   7  -8   12.70    1.33
   5   7   8   12.12    1.25
   5   7   8   10.81    1.31
  -5   7  -8   13.66    1.24
  -7  -7  -8  156.78   13.29
   7  -7   8  160.14   15.37
   7   7   8  171.69   14.03
   7   7   8  163.66   13.31
   7   7   8  176.99   15.29
  -9  -7  -8   10.23    1.16
   9  -7   8    9.13    1.47
  -9   7  -8    8.41    1.16
   9   7   8    8.95    1.32
   9   7   8   10.69    1.11
 -11  -7  -8  170.40   16.01
  11   7   8  212.21   16.82
 -11   7  -8  201.50   16.06
  11   7   8  213.57   18.36
  13  -7   8    9.34    1.39
 -13  -7  -8    8.74    1.12
  13   7   8    7.25    1.21
 -13   7  -8    7.69    1.08
  13   7   8    8.73    1.08
 -15  -7  -8  185.86   15.19
  15  -7   8  207.13   17.46
 -15   7  -8  190.52   15.19
  15   7   8  176.68   17.34
  15   7   8  181.84   15.89
  17  -7   8    3.74    0.99
  17   7   8    4.80    0.97
  17   7   8    5.68    0.82
 -17   7  -8    5.54    0.87
  19  -7   8  123.71   12.07
  19   7   8  132.73   12.04
 -21  -7  -8    3.73    0.70
  21  -7   8    0.94    0.67
  21   7   8    3.93    0.89
 -21   7  -8    2.74    0.67
 -23  -7  -8  133.68   11.33
  23  -7   8  146.46   12.54
  23   7   8  126.36   12.38
 -23   7  -8  124.59   10.81
  25  -7   8    0.43    0.62
 -25  -7  -8    0.50    0.45
 -25   7  -8    0.52    0.51
  25   7   8    0.23    0.53
 -27  -7  -8  108.98    9.02
 -27   7  -8   98.84    8.56
 -30  -8   8   57.55    5.21
  30  -8  -8   54.98    5.01
  30   8  -8   59.32    5.66
  30   8  -8   59.56    4.92
 -28  -8   8   12.88    1.66
  28  -8  -8   11.91    1.60
 -28   8   8   16.50    1.57
  28   8  -8   12.50    1.49
  28   8  -8   14.01    1.81
  26  -8  -8   72.95    5.84
 -26  -8   8   67.91    6.08
 -26   8   8   66.66    5.72
  26   8  -8   67.09    5.73
 -24  -8   8    5.89    0.95
  24  -8  -8    5.65    0.96
 -24  -8   8    4.09    0.96
  24   8  -8    7.12    0.91
 -24   8   8    4.51    0.77
 -22  -8   8  121.74   10.65
  22  -8  -8  118.08    9.33
 -22  -8   8   91.69    9.71
 -22   8   8  112.99    9.23
  22   8  -8  123.87    9.28
  20  -8  -8    4.40    0.77
 -20  -8   8    2.85    0.75
 -20  -8   8    2.67    0.71
 -20   8   8    3.56    0.63
  20   8  -8    2.55    0.59
  18  -8  -8  147.59   12.66
 -18  -8   8  179.66   14.52
 -18  -8   8  155.82   13.32
 -18   8   8  152.87   12.60
  18   8  -8  147.26   12.61
 -16  -8   8    0.44    0.40
 -16  -8   8    0.60    0.51
  16  -8  -8   -0.32    0.36
  16   8  -8    0.13    0.35
 -16   8   8    0.09    0.30
 -14  -8   8  151.49   13.13
  14  -8  -8  153.35   12.49
 -14  -8   8  162.29   14.30
 -14   8   8  160.33   12.44
  14   8  -8  144.17   12.43
  12  -8  -8    0.68    0.39
 -12  -8   8    0.62    0.43
 -12  -8   8    1.17    0.55
 -12   8   8    0.96    0.37
  12   8  -8    1.35    0.42
  10  -8  -8  122.21   10.43
 -10  -8   8  130.04   10.96
 -10  -8   8  106.95   11.92
  10   8  -8  146.49   10.41
 -10   8   8  134.00   10.41
 -10   8   8  129.77   10.93
   8  -8  -8    8.75    1.07
  -8  -8   8    9.52    1.38
  -8   8   8    9.23    0.97
   8   8  -8   10.24    1.09
  -8   8   8    8.08    1.09
  -6  -8   8  215.32   18.53
   6  -8  -8  186.64   16.13
   6   8  -8  176.19   16.09
  -6   8   8  219.15   16.11
  -6   8   8  209.90   16.94
  -4  -8   8   15.84    1.96
   4  -8  -8   17.40    1.60
   4   8  -8   16.79    1.60
  -4   8   8   18.04    1.58
  -4   8   8   15.76    1.65
   4   8  -8   17.44    1.62
   2  -8  -8  154.41   11.19
  -2  -8   8  133.95   12.88
   2   8  -8  141.59   11.20
  -2   8   8  142.29   11.16
  -2   8   8  138.28   11.72
   2   8  -8  120.21   11.14
   0  -8   8   26.23    2.76
   0  -8  -8   20.83    2.23
   0   8   8   25.83    2.38
   0   8   8   27.43    2.28
   0   8  -8   25.69    2.31
   0   8  -8   28.22    2.24
   2  -8   8  166.44   16.31
  -2  -8  -8  182.57   14.15
  -2   8  -8  172.34   14.19
   2   8   8  170.40   14.13
   2   8   8  182.85   14.86
  -2   8  -8  179.96   14.14
   4  -8   8   17.03    1.75
  -4  -8  -8   13.68    1.29
   4   8   8   13.73    1.32
   4   8   8   13.24    1.37
  -4   8  -8    9.97    1.38
  -4   8  -8   13.09    1.30
  -6  -8  -8  130.77   11.52
   6  -8   8  153.81   13.38
   6   8   8  132.44   12.13
  -6   8  -8  150.71   11.52
  -6   8  -8  142.98   11.62
   6   8   8  151.44   13.26
   8  -8   8   16.94    2.24
  -8  -8  -8   20.19    1.80
   8   8   8   20.87    1.84
  -8   8  -8   20.28    1.93
   8   8   8   18.53    1.92
   8   8   8   23.42    2.21
 -10  -8  -8   81.05    7.68
  10  -8   8  101.48    8.99
  10   8   8   95.93    8.07
 -10   8  -8  102.64    7.76
  10   8   8   91.06    8.84
 -12  -8  -8   62.83    4.46
  12  -8   8   53.64    5.17
  12   8   8   42.59    5.00
 -12   8  -8   51.31    4.40
  12   8   8   49.38    4.55
  14  -8   8   51.22    5.43
 -14  -8  -8   57.69    4.71
  14   8   8   56.95    5.37
  14   8   8   61.90    4.89
 -14   8  -8   46.47    4.65
  16  -8   8   45.68    5.56
  16   8   8   66.58    5.66
  16   8   8   68.46    5.12
 -16   8  -8   49.85    4.83
  18  -8   8   39.13    3.81
  18   8   8   30.00    3.64
 -18   8  -8   38.94    3.22
  20  -8   8   28.98    3.29
 -20  -8  -8   29.13    2.85
  20   8   8   32.07    3.24
 -20   8  -8   31.52    2.79
 -22  -8  -8   48.63    3.86
  22  -8   8   31.22    4.17
 -22   8  -8   44.70    3.69
  22   8   8   41.96    4.25
 -24  -8  -8   29.93    3.08
  24  -8   8   34.68    3.58
 -24   8  -8   35.30    3.00
  24   8   8   32.17    3.47
  26  -8   8   12.79    1.72
 -26  -8  -8    9.60    1.29
  26   8   8    6.80    1.38
 -27  -9   8    1.88    0.67
  27  -9  -8    1.46    0.62
 -27  -9   8    2.09    0.70
  27   9  -8    1.29    0.48
 -27   9   8    2.21    0.56
 -25  -9   8    1.25    0.63
 -25  -9   8    1.31    0.59
  25  -9  -8    1.59    0.60
 -25   9   8    0.72    0.46
  25   9  -8    0.60    0.41
 -23  -9   8    2.95    0.76
  23  -9  -8    2.80    0.69
 -23  -9   8    3.71    0.87
 -23   9   8    3.04    0.64
  23   9  -8    3.28    0.65
 -21  -9   8    0.14    0.44
 -21  -9   8   -0.19    0.41
  21  -9  -8    0.02    0.41
  21   9  -8    0.25    0.37
 -21   9   8    0.23    0.37
  19  -9  -8    0.42    0.43
 -19  -9   8    0.44    0.47
 -19  -9   8    0.80    0.55
 -19   9   8   -0.01    0.35
  19   9  -8    0.55    0.38
 -17  -9   8    6.89    1.17
  17  -9  -8    5.75    0.88
 -17  -9   8    6.35    1.01
  17   9  -8    4.17    0.76
 -17   9   8    6.67    0.86
  15  -9  -8    0.15    0.35
 -15  -9   8   -0.03    0.45
  15   9  -8    0.44    0.35
 -15   9   8   -0.09    0.30
 -13  -9   8    0.59    0.54
  13  -9  -8    0.33    0.36
 -13   9   8    1.30    0.41
  13   9  -8    1.25    0.43
 -11  -9   8    0.24    0.39
  11  -9  -8    0.48    0.38
  11   9  -8    0.16    0.30
 -11   9   8    0.02    0.29
  -9  -9   8   16.53    2.17
   9  -9  -8   20.65    1.86
   9   9  -8   22.78    1.86
  -9   9   8   18.76    1.82
  -7  -9   8    0.57    0.52
   7  -9  -8    1.22    0.42
  -7   9   8    0.94    0.36
   7   9  -8    0.16    0.36
   5  -9  -8   18.88    1.82
  -5  -9   8   17.87    2.18
  -5   9   8   19.80    1.81
   5   9  -8   21.49    1.82
  -3  -9   8    1.26    0.60
   3  -9  -8    1.55    0.44
   3   9  -8    1.87    0.45
  -3   9   8    1.36    0.43
   3   9  -8    1.26    0.45
  -3   9   8    2.02    0.46
   1  -9  -8   16.67    1.55
  -1  -9   8   16.28    1.92
  -1   9   8   13.86    1.59
   1   9  -8   15.83    1.61
  -1   9   8   16.15    1.51
   1   9  -8   18.43    1.55
   1  -9   8    2.16    0.67
  -1  -9  -8    1.30    0.41
  -1   9  -8    2.05    0.48
   1   9   8    1.36    0.45
   1   9   8    1.55    0.42
  -1   9  -8    2.20    0.56
   3  -9   8    6.26    1.19
  -3  -9  -8    6.81    0.86
  -3   9  -8    6.76    0.84
   3   9   8    7.44    0.89
  -3   9  -8    6.30    0.95
   3   9   8    7.14    0.94
  -5  -9  -8    6.77    0.83
   5  -9   8    4.66    1.09
   5   9   8    6.20    0.90
   5   9   8    5.71    0.82
  -5   9  -8    7.38    0.97
  -5   9  -8    7.92    0.85
   7  -9   8    1.87    0.68
  -7  -9  -8    2.28    0.47
  -7   9  -8    2.96    0.55
   7   9   8    2.78    0.55
   7   9   8    2.82    0.57
  -7   9  -8    2.72    0.62
   9  -9   8    0.12    0.46
   9   9   8   -0.37    0.40
  -9   9  -8   -0.06    0.38
   9   9   8    0.01    0.34
 -11  -9  -8   13.10    1.47
  11  -9   8   12.51    1.83
  11   9   8   10.46    1.63
 -11   9  -8   12.21    1.47
  11   9   8   13.78    1.38
  13  -9   8    0.98    0.58
 -13   9  -8    0.94    0.51
  13   9   8    1.13    0.61
  13   9   8    0.59    0.44
  15  -9   8    0.23    0.51
 -15   9  -8    0.74    0.45
  15   9   8    0.88    0.58
  15   9   8    0.48    0.42
  17  -9   8    0.10    0.55
 -17  -9  -8    0.04    0.36
  17   9   8    0.20    0.54
 -17   9  -8    0.29    0.44
 -19  -9  -8    0.38    0.43
  19  -9   8    1.20    0.75
  19   9   8    1.01    0.64
 -19   9  -8    0.52    0.48
 -21  -9  -8    0.03    0.40
  21  -9   8   -0.05    0.54
 -21   9  -8   -0.02    0.40
  21   9   8   -0.24    0.49
 -23  -9  -8    0.98    0.50
  23  -9   8    0.36    0.54
  23   9   8    1.88    0.73
 -23   9  -8    0.75    0.51
 -25  -9  -8   -0.06    0.44
  25  -9   8   -0.39    0.55
  25   9   8    0.30    0.59
 -25   9  -8    0.04    0.41
  26 -10  -8   45.20    4.09
 -26 -10   8   45.37    4.63
 -26  10   8   46.34    3.98
  26  10  -8   48.00    3.98
  24 -10  -8   -0.12    0.41
 -24 -10   8    0.25    0.50
  24  10  -8    0.52    0.39
 -24  10   8    0.39    0.39
  22 -10  -8   53.71    4.70
 -22 -10   8   49.35    5.34
  22  10  -8   58.46    4.61
 -22  10   8   55.84    4.62
  20 -10  -8   -0.08    0.39
 -20 -10   8   -0.23    0.50
  20  10  -8    0.07    0.35
 -20  10   8    0.23    0.38
 -18 -10   8  112.24   10.49
 -18  10   8  115.11    9.10
  18  10  -8  107.39    9.08
  16 -10  -8    0.58    0.43
 -16 -10   8    0.88    0.62
 -16  10   8    0.73    0.39
  16  10  -8    0.58    0.40
  14 -10  -8  115.92    9.17
 -14 -10   8   89.29   10.48
  14  10  -8  127.77    9.16
 -14  10   8  114.38    9.14
  12 -10  -8    5.45    0.80
 -12 -10   8    3.37    0.88
 -12  10   8    3.01    0.62
  12  10  -8    3.95    0.70
  10 -10  -8   90.39    7.63
 -10  10   8   94.90    7.62
  10  10  -8   93.50    7.61
   8 -10  -8    0.33    0.36
  -8 -10   8    0.36    0.53
   8  10  -8    0.26    0.36
  -8  10   8    0.32    0.32
  -6 -10   8  109.39   10.16
   6 -10  -8  111.66    8.78
  -6  10   8  105.66    8.73
   6  10  -8  103.82    8.73
  -4 -10   8    0.88    0.59
   4 -10  -8    0.38    0.34
  -4  10   8    0.53    0.34
   4  10  -8    0.86    0.38
  -2 -10   8   80.90    7.72
   2 -10  -8   74.10    6.59
  -2  10   8   80.79    6.59
   2  10  -8   85.07    6.59
   0 -10   8    6.62    1.34
   0 -10  -8   11.02    1.06
   0  10   8   11.77    1.07
   0  10  -8    8.75    1.07
   0  10  -8    8.26    1.12
   2 -10   8   71.45    7.07
  -2 -10  -8   75.95    6.03
  -2  10  -8   74.51    6.08
  -2  10  -8   71.66    6.02
   2  10   8   71.61    6.02
  -4 -10  -8    7.75    1.00
   4 -10   8    8.12    1.40
  -4  10  -8    9.19    1.01
   4  10   8    8.70    1.02
  -4  10  -8    8.03    1.07
   4  10   8    7.79    1.05
  -6 -10  -8  178.28   13.92
   6  10   8  167.09   14.63
  -6  10  -8  170.87   13.91
  -6  10  -8  175.26   13.99
   8 -10   8   20.89    2.46
   8  10   8   22.33    1.96
   8  10   8   22.19    2.07
  -8  10  -8   18.30    1.99
  10 -10   8   58.15    6.43
 -10  10  -8   71.85    5.62
  10  10   8   68.94    5.84
  12 -10   8   16.53    2.26
  12  10   8   17.01    1.74
 -12  10  -8   18.02    1.76
  12  10   8   16.07    2.01
  14 -10   8   57.23    6.13
 -14  10  -8   68.63    5.36
  14  10   8   69.60    6.18
  14  10   8   58.14    5.51
  16 -10   8   43.81    4.88
 -16 -10  -8   58.29    4.42
  16  10   8   53.78    4.89
 -16  10  -8   39.98    4.16
 -18 -10  -8   55.44    4.86
  18 -10   8   59.14    5.49
  18  10   8   50.80    5.32
 -18  10  -8   51.95    4.63
  20 -10   8   27.11    3.49
 -20 -10  -8   35.45    3.16
  20  10   8   33.44    3.50
 -20  10  -8   36.15    3.02
 -22 -10  -8   15.67    1.79
  22  10   8   15.82    2.18
 -22  10  -8   19.00    1.80
 -25 -11   8   31.35    3.28
  25 -11  -8   31.89    2.85
  25  11  -8   30.44    2.75
 -25  11   8   29.01    2.73
 -23 -11   8   84.77    7.97
  23 -11  -8   74.68    6.92
 -23  11   8   83.12    6.85
  23  11  -8   88.22    6.87
 -21 -11   8   43.71    4.34
  21 -11  -8   37.79    3.74
 -21  11   8   45.80    3.71
  21  11  -8   43.91    3.70
 -19 -11   8   91.51    8.42
  19 -11  -8   70.22    7.25
 -19  11   8   93.81    7.25
  19  11  -8   96.57    7.25
  17 -11  -8   48.69    4.23
 -17 -11   8   46.31    4.89
  17  11  -8   48.87    4.16
 -17  11   8   51.61    4.18
  15 -11  -8   82.59    6.74
 -15 -11   8   87.99    7.83
 -15  11   8   87.60    6.72
  15  11  -8   69.49    6.66
 -13 -11   8   72.86    6.70
  13 -11  -8   71.28    5.77
  13  11  -8   61.60    5.67
 -13  11   8   70.19    5.69
  11 -11  -8   49.08    4.18
 -11 -11   8   49.98    4.95
 -11  11   8   50.32    4.18
  11  11  -8   47.37    4.15
  -9 -11   8  103.13    9.32
   9 -11  -8  107.88    8.05
  -9  11   8   96.47    7.98
   9  11  -8   86.47    7.95
   7 -11  -8   51.48    4.75
  -7 -11   8   57.65    5.62
   7  11  -8   51.73    4.71
  -7  11   8   66.84    4.77
  -5 -11   8  157.00   12.78
   5 -11  -8  121.86   10.99
  -5  11   8  133.06   10.98
   3 -11  -8   54.10    4.78
  -3 -11   8   59.00    5.67
   3  11  -8   58.12    4.77
  -3  11   8   57.92    4.79
  -1 -11   8  167.13   16.01
   1 -11  -8  176.90   13.89
   1  11  -8  177.91   13.87
  -1  11   8  165.68   13.85
  -1 -11  -8   46.85    3.70
   1 -11   8   38.22    4.34
  -1  11  -8   45.16    3.66
  -1  11  -8   38.03    3.72
   1  11   8   46.26    3.70
  -3 -11  -8  165.47   13.70
  -3  11  -8  155.55   13.66
   3  11   8  179.73   13.70
  -3  11  -8  179.86   13.76
   5 -11   8   18.34    2.47
  -5 -11  -8   22.93    2.03
  -5  11  -8   19.65    2.03
   5  11   8   26.10    2.08
  -5  11  -8   24.23    2.16
  -7 -11  -8  145.11   10.93
   7 -11   8  144.28   12.71
  -7  11  -8  112.84   10.88
  -7  11  -8  156.91   11.02
   7  11   8  121.72   10.90
   9 -11   8   16.12    2.07
   9  11   8   12.45    1.35
  -9  11  -8   12.25    1.47
 -11  11  -8  130.75   10.72
  11  11   8  132.21   11.35
  13 -11   8    1.12    0.73
 -13  11  -8    1.43    0.53
  15 -11   8  107.10   10.68
 -15 -11  -8  112.38    9.73
 -15  11  -8  118.69    9.30
 -17 -11  -8    1.21    0.51
  17 -11   8    0.88    0.62
  17  11   8    1.15    0.68
 -17  11  -8    1.92    0.58
 -19 -11  -8   81.68    7.25
  19  11   8   83.62    7.98
 -21 -11  -8    0.49    0.47
  21 -11   8    0.21    0.58
  21  11   8    1.91    0.80
 -21  11  -8    0.53    0.47
  22 -12  -8   15.96    1.74
 -22 -12   8   17.84    2.08
  22  12  -8   16.54    1.66
 -22  12   8   16.13    1.65
  20 -12  -8    3.17    0.71
 -20 -12   8    2.23    0.79
 -20  12   8    3.95    0.69
  20  12  -8    3.89    0.68
  18 -12  -8   46.18    4.15
 -18  12   8   46.77    4.09
  18  12  -8   50.19    4.09
  16 -12  -8    0.51    0.43
 -16 -12   8    0.24    0.54
  16  12  -8    0.24    0.38
 -16  12   8    0.23    0.37
 -14 -12   8   56.98    5.86
  14 -12  -8   59.77    5.06
 -14  12   8   61.54    4.99
  14  12  -8   59.28    4.99
  12 -12  -8    0.08    0.37
 -12 -12   8    0.00    0.45
 -12  12   8   -0.20    0.34
  12  12  -8    0.82    0.38
 -10 -12   8   25.16    2.80
  10 -12  -8   25.86    2.34
 -10  12   8   25.37    2.30
  10  12  -8   24.85    2.29
   8 -12  -8    2.87    0.64
  -8 -12   8    2.50    0.78
  -8  12   8    2.62    0.53
   8  12  -8    2.83    0.58
  -6 -12   8   36.26    3.94
   6 -12  -8   30.35    3.27
  -6  12   8   47.49    3.32
   6  12  -8   38.56    3.29
  -4 -12   8    5.95    1.17
   4 -12  -8    5.69    0.88
  -4  12   8    6.97    0.89
   4  12  -8    6.91    0.88
   2 -12  -8   39.88    3.57
  -2 -12   8   42.99    4.30
  -2  12   8   41.40    3.57
   2  12  -8   42.60    3.57
   0 -12   8    6.40    1.33
   0 -12  -8   11.43    1.17
   0  12  -8    8.75    1.07
   0  12   8    9.65    1.09
  -2 -12  -8   18.66    1.76
   2 -12   8   18.79    2.25
  -2  12  -8   17.96    1.72
   2  12   8   17.72    1.76
  -2  12  -8   18.37    1.82
  -4 -12  -8    2.20    0.53
   4 -12   8    2.24    0.83
  -4  12  -8    1.19    0.45
   4  12   8    0.76    0.44
  -4  12  -8    1.04    0.53
  -6 -12  -8   37.13    2.91
   6 -12   8   37.30    3.62
  -6  12  -8   33.98    2.98
   6  12   8   26.40    2.86
   8 -12   8    9.59    1.72
  -8  12  -8   14.80    1.52
 -10  12  -8   25.58    2.40
  12 -12   8    5.49    1.26
 -12  12  -8    8.33    1.09
  14 -12   8   12.38    1.96
 -14  12  -8   16.34    1.60
  16 -12   8    2.88    0.90
 -16  12  -8    2.28    0.63
  18 -12   8    4.86    1.17
 -18  12  -8   10.04    1.15
  19 -13  -8    5.37    0.94
 -19 -13   8    6.14    1.21
  19  13  -8    4.34    0.80
 -19  13   8    8.47    1.01
 -17 -13   8    8.32    1.39
  17 -13  -8    5.52    0.94
 -17  13   8    6.55    0.94
  17  13  -8    6.02    0.89
 -15 -13   8   13.12    1.97
  15 -13  -8   14.91    1.55
  15  13  -8   14.43    1.49
 -15  13   8   15.80    1.54
  13 -13  -8   12.71    1.66
 -13 -13   8   18.03    2.25
  13  13  -8   15.17    1.56
 -13  13   8   18.05    1.62
 -11 -13   8   17.55    2.40
  11 -13  -8   23.37    2.06
 -11  13   8   21.22    1.99
  11  13  -8   22.45    2.02
  -9 -13   8    8.26    1.72
   9 -13  -8   12.29    1.46
  -9  13   8   13.25    1.34
   9  13  -8   15.27    1.36
   7 -13  -8    9.81    1.23
  -7 -13   8    8.04    1.53
  -7  13   8   10.70    1.20
   7  13  -8   11.71    1.24
   5 -13  -8    6.33    0.96
  -5 -13   8    8.90    1.41
   5  13  -8    8.59    0.98
  -5  13   8    4.95    0.84
  -3 -13   8    0.53    0.66
   3 -13  -8    1.78    0.51
   3  13  -8    0.72    0.41
  -3  13   8    1.47    0.45
  -1 -13   8   26.36    2.98
   1 -13  -8   28.45    2.46
   1  13  -8   26.61    2.41
  -1  13   8   25.80    2.42
   1 -13   8    2.04    0.85
  -1 -13  -8    3.76    0.66
   1  13   8    3.51    0.65
  -1  13  -8    3.40    0.62
  -3 -13  -8   25.53    2.30
   3 -13   8   26.42    2.88
  -3  13  -8   24.25    2.27
   3  13   8   24.58    2.29
   5 -13   8    1.20    0.68
  -5 -13  -8    1.13    0.49
  -5  13  -8    1.60    0.55
   5  13   8    1.03    0.47
  -5  13  -8    0.88    0.47
   7 -13   8   11.71    1.88
  -7 -13  -8   14.85    1.39
  -7  13  -8   11.55    1.49
   9 -13   8   -0.64    0.51
  -9  13  -8    0.82    0.49
  11 -13   8   13.00    1.75
 -11  13  -8    8.72    1.25
  13 -13   8    0.22    0.59
 -13  13  -8    0.09    0.43
  15 -13   8   31.40    3.49
 -15  13  -8   33.18    2.95
 -14 -14   8  106.95   10.19
 -14  14   8  108.70    8.77
  14  14  -8  105.45    8.74
  12 -14  -8    0.29    0.41
 -12 -14   8    0.75    0.64
  12  14  -8    0.48    0.40
 -12  14   8    0.35    0.37
  10 -14  -8  131.51   10.58
 -10 -14   8  126.97   12.22
 -10  14   8  132.83   10.54
  10  14  -8  126.47   10.53
   8 -14  -8    1.00    0.46
  -8 -14   8    0.51    0.63
   8  14  -8    0.94    0.45
  -8  14   8    0.49    0.38
  -6 -14   8   87.20    8.53
   6 -14  -8   90.07    7.33
   6  14  -8   87.90    7.25
   4 -14  -8    1.55    0.50
  -4 -14   8    2.26    0.85
   4  14  -8    1.37    0.48
  -4  14   8    1.28    0.45
   2 -14  -8   94.17    9.06
  -2 -14   8  109.10   10.56
   2  14  -8  114.46    9.05
  -2  14   8  127.35    9.11
   0 -14  -8    9.74    1.43
   0 -14   8   15.44    2.05
   0  14   8   15.24    1.50
   0  14  -8   17.09    1.49
  -2 -14  -8   74.44    6.34
   2 -14   8   72.44    7.43
   2  14   8   73.67    6.34
  -2  14  -8   83.74    6.34
  -4 -14  -8   13.61    1.48
   4 -14   8   10.80    1.79
  -4  14  -8   12.71    1.39
   6 -14   8   57.46    6.19
  -6 -14  -8   58.63    5.30
  -6  14  -8   65.07    5.25
  -6  14  -8   70.91    5.38
   8 -14   8   20.62    2.49
  -8  14  -8   21.66    2.11
  10 -14   8   34.63    3.70
  -7 -15   8   30.83    3.38
   7 -15  -8   25.64    2.75
   7  15  -8   31.97    2.72
  -7  15   8   34.75    2.78
  -5 -15   8   62.29    6.22
   5 -15  -8   62.08    5.29
   5  15  -8   63.39    5.23
  -3 -15   8   24.49    3.01
   3 -15  -8   26.12    2.47
  -3  15   8   29.81    2.48
  -1 -15   8   45.52    4.46
   1 -15  -8   36.80    3.64
   1  15  -8   42.77    3.63
  -1  15   8   45.68    3.71
   1 -15   8   11.29    1.71
  -1 -15  -8   10.48    1.28
  -1  15  -8   10.58    1.21
   1  15   8    9.00    1.24
   3 -15   8   31.11    3.47
  -3 -15  -8   31.16    2.83
  -3  15  -8   32.40    2.80
  34   0  -9   -0.74    0.37
 -34   0   9    0.61    0.52
 -32   0   9    0.17    0.46
  32   0  -9    0.17    0.44
 -30   0   9    0.11    0.48
  30   0  -9   -0.06    0.41
 -28   0   9    0.38    0.45
  28   0  -9    0.36    0.46
 -26   0   9   -0.13    0.39
  26   0  -9    0.22    0.41
 -24   0   9    0.82    0.47
  24   0  -9   -0.23    0.37
 -22   0   9    0.01    0.38
  22   0  -9    0.43    0.40
  20   0  -9    0.10    0.38
 -20   0   9   -0.43    0.33
 -18   0   9    0.08    0.37
  18   0  -9    0.33    0.39
  16   0  -9    0.04    0.33
 -16   0   9    0.18    0.23
 -16   0   9   -0.24    0.33
  14   0  -9    0.03    0.32
 -14   0   9   -0.03    0.21
 -14   0   9    0.08    0.35
 -12   0   9    0.00    0.33
  12   0  -9    0.28    0.31
 -12   0   9   -0.16    0.20
 -10   0   9    0.00    0.33
  10   0  -9    0.02    0.28
 -10   0   9   -0.10    0.19
   8   0  -9    0.07    0.27
  -8   0   9    0.12    0.21
  -8   0   9   -0.17    0.27
  -6   0   9    0.16    0.22
   6   0  -9   -0.23    0.25
   6   0  -9    0.29    0.29
  -6   0   9    0.03    0.31
  -4   0   9    0.03    0.23
   4   0  -9   -0.34    0.24
   4   0  -9   -0.03    0.27
  -4   0   9    0.09    0.30
   2   0  -9   -0.01    0.28
  -2   0   9   -0.12    0.22
   2   0  -9   -0.14    0.26
  -2   0   9   -0.15    0.26
   0   0   9   -0.15    0.24
   0   0  -9   -0.19    0.29
   0   0   9    0.10    0.28
   0   0  -9    0.16    0.27
  -2   0  -9   -0.39    0.27
   2   0   9    0.03    0.26
  -2   0  -9   -0.14    0.23
   2   0   9    0.15    0.29
   4   0   9   -0.24    0.30
  -4   0  -9   -0.16    0.30
  -4   0  -9    0.21    0.21
   4   0   9   -0.14    0.27
   6   0   9   -0.07    0.34
   6   0   9   -0.02    0.26
  -6   0  -9    0.11    0.32
  -8   0  -9   -0.17    0.31
   8   0   9    0.09    0.28
   8   0   9   -0.18    0.33
 -10   0  -9   -0.13    0.31
  10   0   9    0.09    0.39
  10   0   9    0.14    0.30
 -12   0  -9   -0.06    0.32
  12   0   9   -0.25    0.34
  12   0   9    0.32    0.31
  14   0   9    0.10    0.30
  14   0   9   -0.19    0.36
 -14   0  -9    0.07    0.39
  16   0   9   -0.41    0.29
 -16   0  -9   -0.16    0.36
  16   0   9   -0.11    0.47
 -18   0  -9    0.29    0.40
  18   0   9    0.10    0.35
  18   0   9    0.09    0.51
  20   0   9    0.00    0.34
  20   0   9    0.14    0.50
 -20   0  -9    0.15    0.43
 -22   0  -9   -0.07    0.42
  22   0   9    0.12    0.53
 -24   0  -9   -0.20    0.37
 -24   0  -9    0.30    0.47
  24   0   9    0.02    0.56
 -26   0  -9    0.03    0.48
  26   0   9    0.16    0.52
 -26   0  -9    0.04    0.39
  28   0   9    0.57    0.60
 -28   0  -9   -0.18    0.41
  30   0   9    0.43    0.61
 -30   0  -9    0.03    0.41
 -33  -1   9   63.83    6.89
  33  -1  -9   82.83    6.64
 -33   1   9   83.03    6.97
  33   1  -9   86.94    6.65
  31  -1  -9    1.27    0.58
 -31  -1   9    2.05    0.62
  31   1  -9    2.28    0.64
 -31   1   9    1.87    0.63
 -29  -1   9   93.28    7.08
  29  -1  -9   74.06    6.68
 -29   1   9   76.82    7.02
  29   1  -9   76.74    6.67
  27  -1  -9    0.97    0.51
 -27  -1   9    0.51    0.46
 -27   1   9    0.29    0.45
  27   1  -9    1.00    0.47
  25  -1  -9  134.28   11.45
 -25  -1   9  134.22   12.03
  25   1  -9  136.15   11.45
 -25   1   9  158.15   12.07
 -23  -1   9    6.83    1.08
  23  -1  -9    7.30    1.05
 -23   1   9    6.62    1.05
  23   1  -9    8.06    1.05
  21  -1  -9  108.26    8.38
 -21  -1   9  109.43    8.81
 -21   1   9  106.98    8.79
  21   1  -9   84.18    8.31
 -19  -1   9    3.82    0.73
  19  -1  -9    3.80    0.70
 -19   1   9    4.26    0.76
  19   1  -9    5.33    0.79
  17  -1  -9  184.49   14.76
 -17  -1   9  173.78   15.46
  17   1  -9  183.46   14.75
 -17   1   9  178.85   15.49
 -17   1   9  192.49   14.64
  15  -1  -9   14.04    1.62
 -15  -1   9   17.43    1.71
 -15   1   9   18.92    1.52
  15   1  -9   18.26    1.65
 -15   1   9   14.17    1.66
 -13  -1   9  184.00   17.42
  13  -1  -9  217.80   15.41
 -13  -1   9  192.90   16.15
 -13   1   9  180.54   16.14
 -13   1   9  198.43   15.27
  13   1  -9  181.61   15.27
  13   1  -9  183.67   15.37
 -11  -1   9    6.49    1.01
  11  -1  -9   10.43    1.09
 -11  -1   9    9.16    0.98
  11   1  -9    7.79    1.00
 -11   1   9    8.19    0.85
 -11   1   9    8.11    1.06
  11   1  -9    9.42    0.97
  -9  -1   9  355.19   33.78
  -9  -1   9  383.33   31.20
   9  -1  -9  360.88   29.71
   9   1  -9  373.76   29.71
  -9   1   9  313.99   29.59
  -9   1   9  410.72   31.21
   9   1  -9  412.77   29.66
   7  -1  -9   61.99    5.32
  -7  -1   9   60.61    5.59
  -7  -1   9   63.52    6.01
  -7   1   9   63.76    5.25
   7   1  -9   62.39    5.32
   7   1  -9   76.18    5.32
  -7   1   9   63.34    5.61
  -5  -1   9  206.91   20.39
  -5  -1   9  245.60   22.11
   5  -1  -9  238.44   19.43
   5   1  -9  240.60   19.41
  -5   1   9  271.71   20.43
  -5   1   9  231.09   19.36
   5   1  -9  267.43   19.44
  -3  -1   9    3.11    0.59
   3  -1  -9    4.52    0.60
  -3  -1   9    3.66    0.63
   3  -1  -9    5.75    0.66
   3   1  -9    2.58    0.53
  -3   1   9    3.86    0.52
   3   1  -9    4.55    0.62
  -3   1   9    3.42    0.61
  -1  -1   9  187.04   17.34
   1  -1  -9  187.28   15.19
   1  -1  -9  182.40   15.19
  -1   1   9  192.46   17.28
   1   1  -9  188.20   15.18
  -1   1   9  200.63   15.99
  -1  -1  -9   70.13    5.25
   1  -1   9   64.99    6.03
  -1  -1  -9   62.97    5.29
   1  -1   9   60.75    5.53
  -1   1  -9   69.05    5.23
   1   1   9   68.20    5.99
   1   1   9   57.07    5.52
  -1   1  -9   58.98    5.28
   3  -1   9  137.49   11.53
  -3  -1  -9  134.07   10.01
  -3  -1  -9  124.94   10.09
   3  -1   9  112.63   10.55
   3   1   9  123.07   10.57
  -3   1  -9  119.74   10.09
   3   1   9  123.10   11.48
  -3   1  -9  122.79    9.99
   5  -1   9  132.55   12.10
  -5  -1  -9  132.78   10.59
   5  -1   9  135.58   11.08
   5   1   9  125.35   11.07
   5   1   9  127.94   12.04
   7  -1   9   89.81    7.80
   7  -1   9   86.50    7.09
  -7  -1  -9   86.48    6.80
  -7   1  -9   85.00    6.80
   7   1   9   67.38    7.69
   9  -1   9   89.05    7.94
   9  -1   9   95.18    8.76
  -9  -1  -9   96.50    7.64
  -9   1  -9   93.59    7.64
   9   1   9   92.42    7.96
  11  -1   9  174.21   14.92
  11  -1   9  177.90   13.61
 -11  -1  -9  154.05   12.98
  11   1   9  153.37   13.59
 -11   1  -9  154.47   12.99
  11   1   9  151.24   14.85
  13  -1   9   81.92    7.68
  13  -1   9   96.74    8.53
 -13  -1  -9   90.28    7.39
 -13   1  -9   91.83    7.40
  13   1   9   90.77    7.71
  13   1   9   88.75    8.48
  15  -1   9   32.17    2.84
 -15  -1  -9   29.75    2.75
  15  -1   9   31.99    3.22
  15   1   9   27.59    3.16
 -15   1  -9   30.78    2.78
  15   1   9   32.71    2.85
 -17  -1  -9   56.98    4.44
  17  -1   9   51.98    4.56
  17  -1   9   43.29    5.02
 -17   1  -9   51.40    4.41
  17   1   9   51.52    5.08
  17   1   9   54.19    4.57
  19  -1   9   39.97    3.40
  19  -1   9   38.45    3.81
 -19  -1  -9   35.95    3.26
 -19   1  -9   36.27    3.25
  19   1   9   37.96    3.35
  19   1   9   31.23    3.73
  21  -1   9  107.04    9.10
  21  -1   9   99.92    8.18
 -21  -1  -9   98.20    7.88
 -21   1  -9   80.73    7.83
  21   1   9   91.91    9.02
  21   1   9   93.60    8.19
 -23  -1  -9   15.25    1.62
 -23  -1  -9   15.83    1.78
  23  -1   9   15.96    2.09
  23   1   9   12.44    1.97
 -23   1  -9   16.22    1.66
 -23   1  -9   19.34    1.78
  25  -1   9   37.66    4.97
 -25  -1  -9   54.51    4.58
  25   1   9   51.76    5.10
 -25   1  -9   62.53    4.50
 -25   1  -9   50.14    4.58
 -27  -1  -9   14.24    1.76
  27  -1   9   14.00    2.06
 -27   1  -9   13.56    1.72
 -27   1  -9   17.72    1.73
  27   1   9   16.35    2.12
 -29  -1  -9   56.85    4.58
  29  -1   9   45.76    4.98
  29   1   9   37.43    4.92
 -29   1  -9   62.69    4.65
  34  -2  -9   62.60    5.45
 -34  -2   9   64.01    5.69
  34   2  -9   69.87    5.44
 -34   2   9   58.38    5.69
 -32  -2   9   33.97    3.26
  32  -2  -9   31.00    3.12
  32   2  -9   34.39    3.11
 -32   2   9   38.41    3.31
 -30  -2   9   82.00    6.99
  30  -2  -9   76.75    6.67
 -30   2   9   82.43    6.99
  30   2  -9   76.43    6.62
  28  -2  -9   67.32    6.17
 -28  -2   9   70.23    6.49
 -28   2   9   82.50    6.54
  28   2  -9   75.36    6.20
 -26  -2   9   94.65    7.83
 -26   2   9   87.18    7.81
  26   2  -9   87.18    7.42
 -24  -2   9  162.61   15.15
  24  -2  -9  196.70   14.48
  24   2  -9  155.89   14.41
 -24   2   9  202.10   15.23
 -22  -2   9  142.22   12.20
  22  -2  -9  141.64   11.62
  22   2  -9  144.40   11.62
  20  -2  -9  160.38   13.16
 -20  -2   9  152.50   13.80
 -20   2   9  152.50   13.81
  20   2  -9  184.87   13.19
 -18  -2   9  124.62   10.03
  18  -2  -9  134.40    9.58
 -18   2   9  119.22    9.42
  18   2  -9   92.37    9.47
 -16  -2   9  214.72   18.15
  16  -2  -9  218.37   17.32
 -16   2   9  193.29   18.14
 -16   2   9  224.24   17.20
  16   2  -9  224.66   17.32
 -14  -2   9  137.52   11.73
  14  -2  -9  163.47   11.22
 -14  -2   9  118.11   12.63
 -14   2   9  143.97   11.06
  14   2  -9  133.92   11.16
 -14   2   9  132.83   11.73
  12  -2  -9  316.07   24.21
 -12  -2   9  326.30   27.53
 -12   2   9  296.34   24.08
  12   2  -9  268.06   24.07
  12   2  -9  302.43   24.19
 -12   2   9  307.59   25.40
 -10  -2   9   31.43    3.35
 -10  -2   9   33.60    3.15
  10  -2  -9   34.17    3.01
 -10   2   9   36.91    3.18
 -10   2   9   37.37    2.93
  10   2  -9   35.05    2.94
  10   2  -9   34.87    3.00
  -8  -2   9  432.46   39.08
   8  -2  -9  366.53   34.27
  -8  -2   9  417.00   36.01
   8   2  -9  486.47   34.26
  -8   2   9  398.47   36.01
  -8   2   9  417.52   34.21
   8   2  -9  495.72   34.33
  -6  -2   9    9.41    1.10
   6  -2  -9    8.92    1.04
  -6  -2   9    9.10    1.10
  -6   2   9    8.25    0.90
   6   2  -9    9.14    0.97
  -6   2   9    9.54    1.04
   6   2  -9    8.48    1.02
   4  -2  -9  384.56   31.88
  -4  -2   9  385.46   36.36
  -4  -2   9  369.60   33.47
   4   2  -9  441.60   31.88
  -4   2   9  371.72   33.47
   4   2  -9  447.66   31.88
  -2  -2   9   23.21    2.34
  -2  -2   9   21.89    2.12
   2  -2  -9   22.68    2.03
  -2   2   9   23.82    2.15
   2   2  -9   22.22    2.01
  -2   2   9   23.69    2.00
  -2   2   9   23.45    2.20
   2   2  -9   22.38    2.05
   0  -2   9  366.55   32.06
   0  -2   9  381.77   34.86
   0  -2  -9  397.89   30.53
   0  -2  -9  385.84   30.52
   0   2   9  373.52   32.06
   0   2  -9  412.54   30.50
   0   2   9  370.23   34.74
   0   2  -9  376.16   30.54
   2  -2   9   64.95    5.41
  -2  -2  -9   73.36    5.19
  -2  -2  -9   57.46    5.10
   2  -2   9   62.11    5.93
  -2   2  -9   60.67    5.08
  -2   2  -9   61.25    5.18
   2   2   9   63.21    5.41
   2   2   9   59.26    5.82
   4  -2   9  230.98   20.81
   4  -2   9  235.33   19.09
  -4  -2  -9  197.58   18.18
  -4  -2  -9  217.77   18.12
   4   2   9  234.82   19.09
  -4   2  -9  229.36   18.10
   4   2   9  230.71   20.73
  -4   2  -9  241.80   18.23
  -6  -2  -9   17.29    1.96
   6  -2   9   23.80    2.04
   6  -2   9   20.59    2.28
  -6   2  -9   22.98    2.02
   6   2   9   22.56    2.25
   6   2   9   24.04    2.08
  -8  -2  -9  265.05   20.84
   8  -2   9  258.22   23.82
   8  -2   9  214.75   21.81
   8   2   9  306.70   23.81
  -8   2  -9  261.50   20.85
   8   2   9  259.03   21.85
 -10  -2  -9    1.12    0.43
  10  -2   9    0.79    0.37
  10  -2   9    1.22    0.54
 -10   2  -9    1.63    0.47
  10   2   9    0.99    0.41
  10   2   9    1.73    0.57
  12  -2   9  359.51   29.89
 -12  -2  -9  387.71   28.54
  12  -2   9  360.71   32.60
 -12   2  -9  371.01   28.53
  12   2   9  305.65   32.52
  14  -2   9    3.24    0.80
 -14  -2  -9    2.03    0.56
  14  -2   9    1.86    0.47
 -14   2  -9    2.45    0.58
  14   2   9    0.80    0.58
  14   2   9    2.21    0.52
  16  -2   9  264.40   24.81
 -16  -2  -9  261.56   21.68
  16  -2   9  258.10   22.69
  16   2   9  277.58   22.72
  16   2   9  280.01   24.79
 -16   2  -9  279.03   21.69
 -18  -2  -9   12.33    1.35
  18  -2   9   12.07    1.57
  18  -2   9    9.39    1.21
  18   2   9    8.12    1.16
 -18   2  -9    8.84    1.22
  18   2   9   10.94    1.54
 -20  -2  -9  208.21   17.20
  20  -2   9  215.81   18.02
  20  -2   9  215.91   19.69
  20   2   9  218.87   18.01
 -20   2  -9  215.86   17.20
  20   2   9  203.34   19.67
 -22  -2  -9   15.53    1.62
  22  -2   9   12.86    1.95
 -22   2  -9   14.04    1.58
  22   2   9   16.95    2.10
 -22   2  -9   15.58    1.72
  24  -2   9   89.20    9.77
 -24   2  -9  124.67    9.01
  24   2   9   92.82    9.77
 -24   2  -9  107.30    8.57
 -26  -2  -9   10.72    1.49
  26  -2   9    8.68    1.63
 -26   2  -9   15.46    1.51
  26   2   9   11.75    1.82
 -26   2  -9   17.65    1.56
 -28  -2  -9   85.12    6.37
  28  -2   9   77.35    7.05
 -28   2  -9   67.42    6.08
 -28   2  -9   65.56    6.35
  28   2   9   64.58    6.93
  30  -2   9   10.17    1.57
 -30  -2  -9    7.30    1.18
  30   2   9    9.64    1.54
 -33  -3   9   20.68    2.21
  33  -3  -9   21.20    2.15
 -33   3   9   22.39    2.26
  33   3  -9   20.71    2.12
  31  -3  -9    1.00    0.53
 -31  -3   9    0.36    0.44
  31   3  -9    0.73    0.48
 -31   3   9    1.27    0.60
 -29  -3   9   11.60    1.65
  29  -3  -9   16.45    1.62
 -29   3   9   16.69    1.73
  29   3  -9   13.32    1.61
  27  -3  -9    1.00    0.51
 -27  -3   9    1.18    0.53
  27   3  -9    1.27    0.51
 -27   3   9    1.28    0.59
 -25  -3   9   59.04    5.30
  25  -3  -9   58.63    5.04
  25   3  -9   60.32    5.03
 -25   3   9   59.13    5.33
 -23  -3   9    2.00    0.61
  23  -3  -9    3.83    0.74
  23   3  -9    3.20    0.66
 -23   3   9    2.64    0.66
  21  -3  -9   45.59    3.73
 -21  -3   9   47.74    3.89
  21   3  -9   43.91    3.69
 -21   3   9   33.29    3.83
 -21   3   9   42.96    3.56
  19  -3  -9    1.62    0.52
 -19  -3   9    1.92    0.55
 -19   3   9    1.66    0.52
 -19   3   9    2.30    0.44
  19   3  -9    2.53    0.55
  19   3  -9    1.36    0.51
  17  -3  -9   36.65    2.82
 -17  -3   9   29.71    2.88
  17   3  -9   30.60    3.06
  17   3  -9   30.37    2.74
 -17   3   9   29.96    2.90
 -17   3   9   30.16    2.65
 -15  -3   9    0.89    0.42
 -15  -3   9    0.90    0.39
  15  -3  -9    0.47    0.38
  15   3  -9   -0.09    0.33
 -15   3   9    0.50    0.31
 -15   3   9    0.29    0.39
 -13  -3   9  175.40   16.78
  13  -3  -9  178.00   14.74
 -13  -3   9  181.15   15.49
 -13   3   9  186.21   15.49
 -13   3   9  190.04   14.66
  13   3  -9  186.52   14.74
  11  -3  -9   22.61    2.07
 -11  -3   9   23.42    2.32
 -11  -3   9   20.24    2.14
  11   3  -9   22.43    1.98
  11   3  -9   23.41    2.06
 -11   3   9   21.58    1.97
 -11   3   9   25.56    2.21
  -9  -3   9  187.16   16.24
  -9  -3   9  193.67   15.00
   9  -3  -9  173.39   14.26
  -9   3   9  164.07   14.17
   9   3  -9  178.26   14.19
   9   3  -9  167.90   14.23
  -7  -3   9    9.13    1.26
   7  -3  -9    9.79    1.06
  -7  -3   9   10.18    1.10
  -7   3   9    9.16    1.16
   7   3  -9   10.46    1.03
  -7   3   9    9.65    0.98
   7   3  -9   10.48    1.05
  -5  -3   9   77.82    6.62
   5  -3  -9   76.18    6.29
  -5  -3   9   80.35    7.22
  -5   3   9   74.74    6.60
   5   3  -9   78.31    6.29
  -5   3   9   74.93    6.24
   5   3  -9   76.00    6.27
   3  -3  -9   43.62    3.61
  -3  -3   9   45.51    3.82
  -3  -3   9   35.97    4.12
   3   3  -9   43.47    3.63
   3   3  -9   44.50    3.60
  -3   3   9   37.66    3.56
  -3   3   9   52.38    3.84
  -1  -3   9   29.40    2.79
   1  -3  -9   31.63    2.66
  -1  -3   9   30.45    3.11
   1   3  -9   35.80    2.72
  -1   3   9   31.91    2.65
   1   3  -9   29.60    2.63
  -1   3   9   29.74    2.80
   1  -3   9  104.78    9.12
   1  -3   9  103.98    9.99
  -1  -3  -9  110.88    8.68
  -1   3  -9  106.21    8.72
   1   3   9  108.47    9.85
  -1   3  -9  108.80    8.64
   3  -3   9  104.88    9.31
  -3  -3  -9   97.37    8.04
  -3  -3  -9   98.78    8.09
  -3   3  -9   93.36    8.00
   3   3   9   99.62    8.48
  -3   3  -9   97.60    8.12
   3   3   9  106.72    9.20
   5  -3   9   41.85    3.39
  -5  -3  -9   41.96    3.19
   5  -3   9   33.52    3.77
  -5   3  -9   39.51    3.30
   5   3   9   36.08    3.39
   5   3   9   35.15    3.69
  -5   3  -9   38.14    3.14
   7  -3   9   54.29    5.41
   7  -3   9   56.84    4.86
  -7  -3  -9   58.80    4.70
   7   3   9   51.73    4.88
   7   3   9   52.51    5.31
  -7   3  -9   62.55    4.72
   9  -3   9   29.44    2.72
  -9  -3  -9   30.52    2.67
   9  -3   9   34.65    3.17
   9   3   9   26.57    3.01
   9   3   9   30.41    2.75
  -9   3  -9   30.96    2.69
 -11  -3  -9   31.32    2.82
  11  -3   9   30.84    2.88
  11  -3   9   34.82    3.32
 -11   3  -9   29.79    2.82
  11   3   9   33.94    3.25
  13  -3   9    6.18    1.13
  13  -3   9    8.94    1.00
 -13  -3  -9    6.84    0.97
 -13   3  -9    7.55    0.99
  13   3   9    6.11    1.10
  13   3   9    6.92    0.96
  15  -3   9   14.35    1.81
 -15  -3  -9    8.67    1.36
  15  -3   9   15.57    1.41
  15   3   9   14.46    1.40
 -15   3  -9   11.12    1.43
  15   3   9   14.26    1.83
  17  -3   9   10.87    1.67
  17  -3   9   11.68    1.40
 -17  -3  -9   12.26    1.45
  17   3   9   13.27    1.70
  17   3   9   11.91    1.31
 -17   3  -9   12.53    1.44
 -19  -3  -9    5.37    0.90
  19  -3   9    4.65    0.83
  19  -3   9    6.66    1.21
  19   3   9    5.79    0.89
 -19   3  -9    4.28    0.84
  19   3   9    4.73    1.03
 -21  -3  -9   21.50    2.33
  21  -3   9   25.13    2.72
  21   3   9   28.78    2.80
  21   3   9   24.01    2.37
 -21   3  -9   23.65    2.37
 -21   3  -9   26.12    2.37
  23  -3   9    0.91    0.66
 -23  -3  -9    0.69    0.42
 -23   3  -9    0.43    0.48
 -23   3  -9    1.22    0.52
  23   3   9    0.69    0.58
 -25  -3  -9   34.17    3.17
  25  -3   9   35.82    3.65
 -25   3  -9   31.78    3.08
  25   3   9   34.44    3.60
 -27  -3  -9    5.96    0.97
  27  -3   9    8.31    1.38
 -27   3  -9    5.50    1.01
  27   3   9    7.28    1.29
  29  -3   9   42.08    3.52
 -29  -3  -9   27.74    2.98
 -29   3  -9   28.82    2.91
  29   3   9   31.43    3.39
  32  -4  -9    9.89    1.34
 -32  -4   9   11.95    1.45
  32   4  -9    7.90    1.19
 -32   4   9    9.73    1.42
 -30  -4   9    4.31    0.84
  30  -4  -9    2.94    0.74
  30   4  -9    4.37    0.83
 -30   4   9    6.28    1.03
  28  -4  -9   11.51    1.39
 -28  -4   9   10.77    1.39
 -28   4   9   10.18    1.43
  28   4  -9    8.96    1.27
 -26  -4   9   13.33    1.67
  26  -4  -9   14.13    1.66
 -26   4   9   15.42    1.79
  26   4  -9   14.27    1.61
 -24  -4   9    2.72    0.67
  24  -4  -9    2.89    0.68
  24   4  -9    2.80    0.61
 -24   4   9    2.28    0.67
  22  -4  -9    7.00    1.02
 -22  -4   9    7.92    1.07
  22   4  -9    7.21    0.95
 -22   4   9    6.97    0.86
 -22   4   9    5.61    0.98
  22   4  -9    5.88    1.04
  20  -4  -9    1.28    0.50
 -20  -4   9    0.85    0.45
 -20   4   9    0.96    0.50
  20   4  -9    0.57    0.40
  20   4  -9    1.30    0.53
 -20   4   9    1.08    0.38
 -18  -4   9   92.41    7.59
  18  -4  -9   82.30    7.19
 -18   4   9   86.92    7.10
 -18   4   9   89.92    7.60
  18   4  -9   85.33    7.18
 -16  -4   9   76.17    6.36
  16  -4  -9   73.15    6.06
 -16  -4   9   72.45    6.88
 -16   4   9   69.43    6.34
  16   4  -9   74.75    6.03
 -16   4   9   71.20    5.95
  14  -4  -9   15.79    1.58
 -14  -4   9   15.24    1.74
 -14  -4   9   17.31    1.65
 -14   4   9   17.23    1.64
 -14   4   9   15.59    1.47
  14   4  -9   13.98    1.52
  12  -4  -9   25.16    2.48
 -12  -4   9   30.90    2.66
 -12  -4   9   27.92    2.85
  12   4  -9   31.39    2.50
 -12   4   9   26.24    2.63
 -12   4   9   27.47    2.42
 -10  -4   9   13.93    1.38
 -10  -4   9   12.59    1.46
  10  -4  -9   15.41    1.34
 -10   4   9   11.34    1.22
  10   4  -9   15.43    1.32
 -10   4   9    9.76    1.38
  -8  -4   9   44.89    4.03
   8  -4  -9   44.26    3.83
  -8  -4   9   40.92    4.36
   8   4  -9   41.09    3.79
  -8   4   9   56.52    3.79
   8   4  -9   43.67    3.77
  -6  -4   9    2.26    0.59
   6  -4  -9    1.82    0.44
  -6  -4   9    1.76    0.45
   6   4  -9    1.44    0.42
   6   4  -9    1.94    0.43
  -6   4   9    1.93    0.46
  -6   4   9    1.41    0.38
   4  -4  -9  118.91    9.38
  -4  -4   9  109.52    9.85
  -4  -4   9  115.56   10.77
   4   4  -9  118.71    9.37
  -4   4   9  101.54    9.84
   4   4  -9  133.51    9.40
  -4   4   9  113.57    9.33
   2  -4  -9    9.57    0.98
  -2  -4   9    9.75    1.03
  -2  -4   9    6.83    1.20
  -2   4   9    9.43    0.95
   2   4  -9    9.49    0.96
   2   4  -9    9.84    1.08
  -2   4   9    8.64    1.09
   0  -4   9   22.66    2.13
   0  -4  -9   24.17    2.03
   0  -4   9   22.04    2.41
   0   4  -9   20.49    2.06
   0   4   9   25.82    2.03
   0   4  -9   22.11    1.98
   2  -4   9    4.39    0.86
  -2  -4  -9    5.04    0.64
   2  -4   9    5.05    0.69
  -2   4  -9    3.45    0.66
  -2   4  -9    4.90    0.60
   2   4   9    4.88    0.64
   2   4   9    4.04    0.67
   2   4   9    4.19    0.68
   4  -4   9   28.26    2.60
  -4  -4  -9   29.08    2.52
  -4  -4  -9   32.54    2.47
   4  -4   9   28.31    2.97
  -4   4  -9   27.79    2.42
  -4   4  -9   29.01    2.57
   4   4   9   27.09    2.83
  -6  -4  -9    0.86    0.37
   6  -4   9    0.50    0.43
   6  -4   9    0.43    0.29
   6   4   9    0.42    0.37
   6   4   9    0.81    0.36
  -6   4  -9    0.33    0.38
   8  -4   9   73.40    6.83
   8  -4   9   72.09    6.15
  -8  -4  -9   79.92    5.94
   8   4   9   60.26    6.71
  -8   4  -9   69.22    5.93
   8   4   9   74.49    6.18
 -10  -4  -9    9.39    1.17
  10  -4   9    9.27    1.41
  10  -4   9   10.74    1.11
  10   4   9   11.75    1.16
 -10   4  -9    9.37    1.19
  10   4   9    9.54    1.39
  12  -4   9   56.05    4.47
  12  -4   9   46.79    5.00
 -12  -4  -9   47.09    4.31
 -12   4  -9   56.51    4.36
  12   4   9   47.33    4.47
  14  -4   9    2.80    0.80
  14  -4   9    4.90    0.71
 -14  -4  -9    4.68    0.78
  14   4   9    3.13    0.64
  14   4   9    4.33    0.89
 -14   4  -9    3.52    0.70
  16  -4   9    6.38    0.98
 -16  -4  -9    7.65    1.05
  16  -4   9    7.29    1.25
  16   4   9    7.71    1.25
  16   4   9    7.02    1.01
 -16   4  -9    8.16    1.07
 -18  -4  -9    0.16    0.46
  18  -4   9   -0.37    0.40
  18   4   9    0.09    0.37
  18   4   9   -0.01    0.48
 -18   4  -9   -0.32    0.40
 -20  -4  -9   10.95    1.56
  20  -4   9   12.87    1.97
  20   4   9   13.63    1.94
  20   4   9   17.28    1.59
 -20   4  -9   17.19    1.61
  22  -4   9   17.82    2.12
  22   4   9   17.47    2.08
 -22   4  -9   16.26    1.75
 -24  -4  -9    9.62    1.24
  24  -4   9    8.31    1.44
 -24   4  -9    7.57    1.16
  24   4   9   10.05    1.53
 -26  -4  -9    0.09    0.40
  26  -4   9   -0.39    0.46
 -26   4  -9    0.17    0.42
  26   4   9    0.04    0.51
  28  -4   9   15.42    1.98
 -28  -4  -9   11.31    1.52
  28   4   9   11.46    1.82
 -28   4  -9   15.17    1.65
  31  -5  -9    0.33    0.52
 -31  -5   9    1.42    0.55
  31   5  -9   -0.62    0.38
 -29  -5   9  118.39   10.81
  29  -5  -9  129.83   10.36
 -29   5   9  137.51   10.90
  29   5  -9  118.82   10.27
  27  -5  -9    0.44    0.49
 -27  -5   9    0.83    0.49
 -27   5   9    0.67    0.54
  27   5  -9   -0.07    0.39
 -25  -5   9  131.72   10.52
  25  -5  -9  114.07    9.98
  25   5  -9  112.44   11.33
 -25   5   9  121.30   10.53
  25   5  -9  130.54    9.97
 -23  -5   9    0.16    0.39
  23  -5  -9    0.29    0.43
  23   5  -9    1.35    0.59
  23   5  -9    0.20    0.39
 -23   5   9    0.74    0.51
 -23   5   9   -0.01    0.35
 -21  -5   9  170.11   14.23
 -21   5   9  167.33   14.24
  21   5  -9  164.06   15.38
  21   5  -9  166.24   13.51
 -21   5   9  167.25   13.45
 -19  -5   9    0.72    0.42
  19  -5  -9    0.05    0.39
 -19  -5   9   -0.06    0.39
  19   5  -9    0.34    0.38
 -19   5   9   -0.02    0.38
 -19   5   9    0.29    0.31
 -17  -5   9  284.85   24.74
 -17  -5   9  279.73   22.79
  17  -5  -9  279.33   21.71
  17   5  -9  233.66   21.63
 -17   5   9  268.07   21.59
 -17   5   9  277.93   22.78
  15  -5  -9    5.36    0.80
 -15  -5   9    5.00    0.89
 -15  -5   9    4.73    0.82
 -15   5   9    5.09    0.69
  15   5  -9    4.98    0.75
 -15   5   9    4.80    0.83
  13  -5  -9  262.72   21.99
 -13  -5   9  266.92   25.07
 -13  -5   9  271.82   23.09
  13   5  -9  262.50   21.96
 -13   5   9  300.81   21.91
 -13   5   9  279.96   23.09
 -11  -5   9   38.26    3.44
 -11  -5   9   32.65    3.12
  11  -5  -9   31.19    2.95
 -11   5   9   34.21    2.90
 -11   5   9   34.57    3.14
  11   5  -9   34.85    2.96
  -9  -5   9  205.37   16.67
   9  -5  -9  185.81   15.85
  -9  -5   9  201.04   18.12
  -9   5   9  194.19   15.79
  -9   5   9  196.74   16.65
   9   5  -9  200.85   15.85
  -7  -5   9   44.33    4.87
   7  -5  -9   53.55    4.29
  -7  -5   9   53.22    4.50
   7   5  -9   47.98    4.23
  -7   5   9   53.59    4.22
   7   5  -9   52.10    4.24
  -7   5   9   51.48    4.49
   5  -5  -9  346.91   27.96
  -5  -5   9  363.56   29.38
  -5  -5   9  339.40   31.93
  -5   5   9  345.70   29.36
  -5   5   9  363.48   27.91
   5   5  -9  350.37   27.93
   5   5  -9  342.40   27.93
  -3  -5   9   96.05    9.12
   3  -5  -9  100.00    7.91
  -3  -5   9   98.01    8.31
   3   5  -9   94.86    7.92
   3   5  -9   96.75    7.88
  -3   5   9   92.79    8.31
  -3   5   9  102.06    7.89
  -1  -5   9  204.97   18.82
   1  -5  -9  239.52   16.41
  -1  -5   9  191.88   17.19
   1   5  -9  207.95   16.37
   1   5  -9  195.49   16.41
  -1   5   9  192.09   16.35
  -1   5   9  200.45   17.22
  -1  -5  -9   87.62    6.80
   1  -5   9   89.89    7.13
   1  -5   9   80.61    7.88
   1   5   9   83.07    7.15
  -1   5  -9   75.36    6.75
  -1   5  -9   82.71    6.84
   1   5   9   84.15    6.78
   3  -5   9  176.44   13.84
   3  -5   9  134.92   15.13
  -3  -5  -9  151.24   13.16
   3   5   9  189.31   13.90
  -3   5  -9  157.78   13.23
  -3   5  -9  165.58   13.16
   3   5   9  172.35   13.19
  -5  -5  -9  104.21    8.21
   5  -5   9  102.48    8.57
  -5  -5  -9   95.30    8.13
   5  -5   9   93.39    9.45
  -5   5  -9   90.60    8.10
   5   5   9   99.58    8.62
   5   5   9  104.22    9.35
  -5   5  -9  121.16    8.30
   7  -5   9  114.84    9.87
   7  -5   9  120.36   10.92
  -7  -5  -9  107.89    9.44
   7   5   9  111.78    9.89
   7   5   9  120.09   10.77
  -7   5  -9  124.17    9.50
   9  -5   9   94.54    8.12
   9  -5   9   85.05    8.94
  -9  -5  -9   95.51    7.81
   9   5   9   94.06    8.16
  -9   5  -9  106.52    7.85
   9   5   9   96.11    8.93
  11  -5   9  130.42   12.25
 -11  -5  -9  147.17   10.68
  11   5   9  119.39   12.13
 -11   5  -9  126.32   10.66
  11   5   9  131.74   11.15
 -13  -5  -9  102.99    9.39
  13  -5   9  127.09   10.88
  13   5   9  120.53   10.78
  13   5   9  110.93    9.82
 -13   5  -9  116.79    9.42
 -15  -5  -9   88.62    7.01
  15  -5   9   86.70    8.09
  15   5   9   85.96    7.29
 -15   5  -9   96.31    7.05
  15   5   9   66.54    7.93
 -17  -5  -9  112.70    8.72
  17  -5   9  129.14   10.11
 -17   5  -9  112.68    8.70
  17   5   9   96.29    9.05
  17   5   9   84.37    9.86
 -19  -5  -9   36.08    3.46
  19  -5   9   36.93    3.99
  19   5   9   37.79    3.53
  19   5   9   39.75    3.98
 -19   5  -9   44.63    3.49
  21  -5   9   73.47    6.96
 -21   5  -9   69.00    5.99
  21   5   9   71.27    6.91
 -23  -5  -9   19.80    2.51
  23  -5   9   30.55    3.04
  23   5   9   33.03    2.98
 -23   5  -9   27.96    2.52
 -25  -5  -9   78.87    6.79
 -25   5  -9   77.93    6.51
  25   5   9   75.29    7.51
  27  -5   9   12.37    1.83
 -27  -5  -9   11.11    1.44
 -27   5  -9   11.47    1.42
  27   5   9   11.15    1.71
 -32  -6   9   46.05    4.50
  32  -6  -9   47.87    4.33
  32   6  -9   54.03    4.28
  30  -6  -9   84.04    7.11
 -30  -6   9   90.44    7.46
  30   6  -9   80.24    7.01
  28  -6  -9   56.26    4.85
 -28  -6   9   59.37    5.07
  28   6  -9   53.17    4.76
 -26  -6   9   67.22    5.74
  26  -6  -9   68.43    5.50
  26   6  -9   61.11    5.38
  26   6  -9   61.22    6.19
 -24  -6   9  117.62    9.71
  24  -6  -9  109.23    9.23
  24   6  -9  110.88   10.48
  24   6  -9  107.19    9.15
 -24   6   9  110.24    9.71
 -24   6   9  118.08    9.14
 -22  -6   9   78.51    6.77
  22  -6  -9   70.35    6.42
 -22   6   9   76.80    6.78
  22   6  -9   73.64    6.38
 -22   6   9   85.63    6.37
 -20  -6   9  159.95   12.86
  20  -6  -9  150.23   12.24
 -20  -6   9  139.57   13.92
 -20   6   9  160.81   12.16
  20   6  -9  142.63   12.18
 -20   6   9  149.71   12.84
 -18  -6   9   45.30    4.97
  18  -6  -9   50.53    4.40
 -18  -6   9   56.14    4.66
 -18   6   9   48.21    4.61
  18   6  -9   52.47    4.36
 -18   6   9   57.02    4.36
  16  -6  -9  111.51    8.71
 -16  -6   9  110.52    9.15
 -16  -6   9  106.14    9.93
 -16   6   9   94.33    8.60
  16   6  -9  108.14    8.65
 -16   6   9  108.05    9.14
 -14  -6   9   61.57    4.95
 -14  -6   9   61.81    5.39
  14  -6  -9   61.25    4.71
 -14   6   9   56.59    4.60
  14   6  -9   48.41    4.62
 -14   6   9   46.60    4.88
  12  -6  -9  121.38    9.54
 -12  -6   9  116.66   10.91
 -12  -6   9  125.80   10.04
 -12   6   9  111.90    9.99
 -12   6   9  113.21    9.45
  12   6  -9  113.87    9.49
 -10  -6   9   12.66    1.58
 -10  -6   9   11.60    1.24
  10  -6  -9    7.80    1.17
  10   6  -9   12.52    1.18
 -10   6   9   11.11    1.25
 -10   6   9   11.81    1.14
  -8  -6   9  114.87   11.62
   8  -6  -9  135.84   10.17
  -8  -6   9  121.22   10.67
  -8   6   9  126.00   10.11
  -8   6   9  134.28   10.67
   8   6  -9  118.72   10.12
  -6  -6   9   44.69    3.82
   6  -6  -9   34.55    3.60
  -6  -6   9   45.27    4.27
  -6   6   9   48.60    3.84
   6   6  -9   50.45    3.65
  -6   6   9   40.64    3.59
   6   6  -9   39.29    3.62
  -4  -6   9  156.68   13.86
  -4  -6   9  146.62   12.64
   4  -6  -9  169.55   12.05
  -4   6   9  136.49   11.99
  -4   6   9  139.40   12.61
   4   6  -9  148.97   12.01
   4   6  -9  148.73   12.03
   2  -6  -9   13.91    1.53
  -2  -6   9   16.60    1.90
  -2  -6   9   14.48    1.59
  -2   6   9   17.80    1.67
  -2   6   9   17.74    1.54
   2   6  -9   19.96    1.55
   2   6  -9   16.08    1.58
   0  -6   9  232.33   22.26
   0  -6  -9  237.18   19.39
   0  -6   9  241.51   20.35
   0   6   9  240.64   19.37
   0   6   9  243.91   20.37
   0   6  -9  257.30   19.38
   2  -6   9    6.76    0.85
   2  -6   9    6.53    1.15
  -2  -6  -9    7.94    0.86
   2   6   9    7.18    0.93
  -2   6  -9    6.45    0.91
   2   6   9    5.36    0.78
  -2   6  -9    6.91    0.80
  -4  -6  -9  283.39   21.72
   4  -6   9  251.60   24.91
  -4   6  -9  245.76   21.76
  -4   6  -9  284.49   21.70
   4   6   9  290.08   21.72
   6  -6   9    4.15    0.85
  -6  -6  -9    2.68    0.51
  -6   6  -9    3.08    0.63
   6   6   9    3.01    0.68
   6   6   9    3.19    0.60
   8  -6   9  186.92   17.66
   8   6   9  188.92   16.11
   8   6   9  196.20   17.53
 -10  -6  -9    0.77    0.39
  10  -6   9    0.48    0.53
  10   6   9    0.28    0.46
  10   6   9    0.07    0.32
 -10   6  -9    0.13    0.39
 -12  -6  -9  208.80   16.78
  12  -6   9  206.05   19.24
  12   6   9  198.99   19.15
  12   6   9  217.45   17.57
  14  -6   9    0.82    0.61
 -14  -6  -9    0.13    0.40
 -14   6  -9    1.36    0.50
  14   6   9    0.64    0.54
  14   6   9    0.83    0.43
 -16  -6  -9  174.29   16.03
  16  -6   9  210.42   18.45
  16   6   9  203.31   18.38
 -16   6  -9  207.98   16.07
  16   6   9  199.97   16.82
  18  -6   9    8.39    1.38
  18   6   9    6.29    1.20
 -18   6  -9    8.08    1.09
  18   6   9    7.38    1.04
  20  -6   9   80.07    7.50
  20   6   9   67.43    7.38
  20   6   9   77.51    6.71
 -20   6  -9   83.90    6.48
 -22  -6  -9    0.34    0.38
  22  -6   9    0.36    0.61
  22   6   9    0.85    0.61
 -22   6  -9    0.32    0.45
  24  -6   9   78.12    6.84
 -24  -6  -9   69.57    6.08
 -24   6  -9   55.50    5.78
  24   6   9   77.46    6.78
 -26  -6  -9   16.06    1.77
  26  -6   9   16.01    2.20
 -26   6  -9   17.02    1.87
  26   6   9   16.67    2.19
 -29  -7   9    0.76    0.52
  29  -7  -9    0.14    0.49
  29   7  -9    0.50    0.44
 -27  -7   9    2.61    0.68
  27  -7  -9    3.02    0.74
  27   7  -9    2.14    0.58
 -25  -7   9    2.56    0.69
 -25  -7   9    4.35    0.91
  25  -7  -9    2.91    0.69
  25   7  -9    2.92    0.64
 -25   7   9    2.29    0.58
 -23  -7   9    0.12    0.46
  23  -7  -9    0.21    0.42
 -23  -7   9    0.02    0.41
  23   7  -9   -0.23    0.35
 -23   7   9   -0.07    0.34
 -21  -7   9    0.41    0.43
 -21  -7   9    0.62    0.51
  21  -7  -9    1.28    0.51
 -21   7   9    0.88    0.40
  21   7  -9    0.65    0.43
 -19  -7   9    0.64    0.45
  19  -7  -9   -0.10    0.35
 -19  -7   9    0.14    0.43
  19   7  -9    0.57    0.40
 -19   7   9    0.05    0.30
 -17  -7   9    4.06    0.90
  17  -7  -9    5.24    0.83
 -17  -7   9    5.13    0.87
 -17   7   9    4.45    0.84
 -17   7   9    5.72    0.77
  17   7  -9    4.16    0.72
  15  -7  -9    4.59    0.77
 -15  -7   9    4.27    0.79
 -15  -7   9    5.24    0.95
 -15   7   9    6.12    0.76
 -15   7   9    4.06    0.81
  15   7  -9    4.30    0.72
 -13  -7   9   19.31    1.94
 -13  -7   9   17.38    2.10
  13  -7  -9   18.65    1.83
 -13   7   9   18.35    1.90
 -13   7   9   19.53    1.74
  13   7  -9   20.48    1.79
 -11  -7   9    0.03    0.41
 -11  -7   9    0.19    0.38
  11  -7  -9   -0.01    0.33
 -11   7   9    0.29    0.38
 -11   7   9    0.20    0.30
  11   7  -9    0.37    0.33
   9  -7  -9   32.85    2.85
  -9  -7   9   36.55    3.05
  -9  -7   9   33.14    3.37
  -9   7   9   30.17    2.80
  -9   7   9   39.84    3.06
   9   7  -9   26.26    2.80
  -7  -7   9    0.35    0.37
   7  -7  -9    0.32    0.31
  -7  -7   9    0.07    0.43
   7   7  -9    0.51    0.33
  -7   7   9    0.87    0.35
  -7   7   9    0.09    0.34
  -5  -7   9    6.47    1.09
  -5  -7   9    5.99    0.86
   5  -7  -9    5.32    0.78
   5   7  -9    7.25    0.81
  -5   7   9    5.19    0.83
   5   7  -9    6.54    0.84
  -5   7   9    5.86    0.77
  -3  -7   9    2.08    0.63
   3  -7  -9    1.89    0.45
   3   7  -9    2.36    0.52
  -3   7   9    1.50    0.46
  -3   7   9    1.14    0.40
   3   7  -9    1.46    0.42
   1  -7  -9    1.80    0.43
  -1  -7   9    1.27    0.59
   1   7  -9    1.55    0.40
  -1   7   9    0.54    0.38
  -1   7   9    0.94    0.36
   1   7  -9    0.96    0.42
  -1  -7  -9   11.16    1.20
   1  -7   9   10.76    1.63
   1   7   9   14.12    1.31
   1   7   9   12.82    1.21
  -1   7  -9   11.53    1.35
  -1   7  -9   11.41    1.19
   3  -7   9    5.98    1.14
  -3  -7  -9    7.96    0.88
  -3   7  -9    7.96    0.85
   3   7   9    5.26    0.81
   3   7   9    7.39    0.94
  -3   7  -9    6.01    0.91
   5  -7   9    7.39    1.27
  -5  -7  -9    7.24    0.88
   5   7   9    6.33    0.94
  -5   7  -9    7.62    1.02
  -5   7  -9    7.57    0.86
   5   7   9    8.38    0.93
   7  -7   9    1.98    0.64
   7   7   9    1.42    0.43
  -7   7  -9    1.28    0.50
   9  -7   9    2.57    0.81
  -9  -7  -9    3.35    0.63
   9   7   9    3.11    0.73
  -9   7  -9    2.83    0.63
   9   7   9    2.84    0.62
 -11  -7  -9    1.36    0.50
  11  -7   9    2.44    0.76
  11   7   9    2.57    0.57
  11   7   9    2.65    0.72
 -11   7  -9    1.99    0.57
  13  -7   9    2.75    0.89
 -13  -7  -9    4.18    0.77
  13   7   9    3.25    0.83
  13   7   9    2.72    0.63
 -13   7  -9    4.49    0.77
 -15  -7  -9    6.32    1.00
  15  -7   9    8.84    1.37
  15   7   9    5.79    1.12
  15   7   9    6.74    1.00
 -15   7  -9    8.33    1.08
  17  -7   9    1.27    0.74
 -17   7  -9    1.39    0.54
  17   7   9    1.67    0.67
  17   7   9    2.13    0.58
  19  -7   9    1.17    0.68
  19   7   9    0.59    0.57
  19   7   9    1.15    0.48
 -19   7  -9    1.22    0.53
 -21  -7  -9    0.81    0.44
  21  -7   9    0.17    0.61
 -21   7  -9    0.74    0.52
  21   7   9    0.69    0.61
 -23  -7  -9    0.24    0.41
  23  -7   9    0.69    0.70
  23   7   9    0.35    0.58
 -23   7  -9    0.04    0.44
 -25  -7  -9    2.91    0.70
  25  -7   9    4.63    1.06
  25   7   9    2.80    0.85
 -25   7  -9    3.01    0.72
 -28  -8   9   24.37    2.36
 -28  -8   9   19.22    2.09
  28  -8  -9   18.68    2.03
  28   8  -9   18.48    1.94
 -26  -8   9   29.23    2.87
  26  -8  -9   24.88    2.50
 -26  -8   9   26.47    2.60
 -26   8   9   25.97    2.39
  26   8  -9   24.32    2.39
 -24  -8   9   18.98    2.30
 -24  -8   9   20.30    2.13
  24  -8  -9   21.75    2.07
  24   8  -9   20.63    1.97
 -24   8   9   20.93    1.95
  22  -8  -9   17.21    1.77
 -22  -8   9   14.84    1.96
 -22  -8   9   20.40    1.88
 -22   8   9   17.11    1.66
  22   8  -9   15.82    1.67
  20  -8  -9   41.09    3.73
 -20  -8   9   40.34    4.26
 -20  -8   9   44.76    3.96
  20   8  -9   44.32    3.68
 -20   8   9   42.76    3.65
 -18  -8   9    8.52    1.50
  18  -8  -9   11.62    1.37
 -18  -8   9   11.47    1.43
 -18   8   9   11.18    1.18
  18   8  -9   12.44    1.32
 -16  -8   9   70.94    7.48
 -16  -8   9   73.68    6.85
  16  -8  -9   80.68    6.55
 -16   8   9   79.55    6.48
  16   8  -9   87.25    6.51
  14  -8  -9   17.86    1.71
 -14  -8   9   15.93    1.95
 -14  -8   9   16.23    1.79
  14   8  -9   18.00    1.68
 -14   8   9   18.04    1.65
 -12  -8   9  141.39   11.72
  12  -8  -9  144.69   11.14
 -12   8   9  118.86   11.03
  12   8  -9  145.63   11.10
  10  -8  -9   33.30    2.94
 -10  -8   9   36.50    3.17
 -10  -8   9   25.99    3.38
 -10   8   9   35.03    3.11
  10   8  -9   36.57    2.95
 -10   8   9   35.01    2.92
  -8  -8   9  115.97   10.81
   8  -8  -9  107.36    9.38
  -8   8   9  112.99    9.84
  -8   8   9  110.70    9.33
   8   8  -9  129.36    9.37
   6  -8  -9   51.28    4.63
  -6  -8   9   57.00    5.43
  -6   8   9   65.89    4.92
  -6   8   9   52.90    4.61
   6   8  -9   52.40    4.61
   4  -8  -9   96.71    7.52
  -4  -8   9   87.57    8.70
   4   8  -9   91.17    7.48
  -4   8   9   93.49    7.89
  -4   8   9   91.66    7.47
   4   8  -9   89.21    7.51
   2  -8  -9   27.78    2.01
  -2  -8   9   24.27    2.44
  -2   8   9   21.99    1.95
   2   8  -9   19.64    1.98
   2   8  -9   21.51    1.94
  -2   8   9   16.27    2.00
   0  -8   9   87.31    7.31
   0  -8  -9   68.12    6.21
   0   8  -9   83.60    6.21
   0   8   9   73.75    6.21
   0   8  -9   71.52    6.26
   0   8   9   73.31    6.55
   2  -8   9    1.11    0.61
  -2  -8  -9    0.47    0.32
  -2   8  -9   -0.07    0.30
   2   8   9   -0.06    0.30
  -2   8  -9    0.18    0.38
   2   8   9    0.25    0.29
  -4  -8  -9   70.36    5.78
   4  -8   9   84.51    6.86
  -4   8  -9   60.15    5.74
  -4   8  -9   69.03    5.85
   4   8   9   75.16    6.12
   4   8   9   68.39    5.78
   6  -8   9    1.42    0.64
  -6  -8  -9    0.91    0.35
  -6   8  -9    0.80    0.37
   6   8   9    0.40    0.33
   6   8   9    0.39    0.38
  -6   8  -9    0.64    0.44
   8  -8   9  102.57    9.94
   8   8   9  108.02    9.01
  -8   8  -9  104.16    8.63
 -10  -8  -9    0.57    0.44
  10  -8   9    0.57    0.55
  10   8   9    0.15    0.37
 -10   8  -9    0.51    0.43
  10   8   9    0.82    0.52
  12  -8   9   68.53    6.76
 -12  -8  -9   68.64    5.87
  12   8   9   67.55    6.09
 -12   8  -9   70.74    5.88
  12   8   9   74.69    6.75
 -14  -8  -9    7.73    1.01
  14  -8   9    5.75    1.16
 -14   8  -9    5.75    0.91
  14   8   9    5.21    1.06
  14   8   9    4.74    0.86
  16  -8   9   39.06    4.30
  16   8   9   42.05    4.27
 -16   8  -9   43.58    3.71
  16   8   9   43.23    3.83
  18  -8   9    2.22    0.85
  18   8   9    1.61    0.53
  18   8   9    1.79    0.72
 -18   8  -9    1.49    0.54
  20  -8   9   64.44    6.44
 -20  -8  -9   74.83    5.80
 -20   8  -9   59.45    5.53
  20   8   9   62.69    6.38
  22  -8   9    4.52    1.19
 -22  -8  -9    6.11    0.95
 -22   8  -9    7.36    1.03
  22   8   9    5.02    1.10
  24  -8   9   38.18    4.29
 -24  -8  -9   42.18    3.81
 -24   8  -9   46.51    3.70
  24   8   9   37.75    4.22
 -27  -9   9    1.23    0.55
  27  -9  -9    0.69    0.57
 -27  -9   9    0.53    0.57
 -27   9   9    0.18    0.41
  27   9  -9    0.60    0.45
  25  -9  -9  104.78    8.94
 -25  -9   9  123.95    9.44
 -25   9   9  102.22    8.84
  25   9  -9  104.34    8.85
 -23  -9   9    1.22    0.61
 -23  -9   9    1.00    0.60
  23  -9  -9    1.50    0.60
 -23   9   9    1.49    0.49
  23   9  -9    1.17    0.48
  21  -9  -9  152.60   11.61
 -21  -9   9  132.70   13.24
 -21  -9   9  142.44   12.19
 -21   9   9  138.00   11.49
  21   9  -9  143.42   11.51
 -19  -9   9    2.26    0.74
  19  -9  -9    1.19    0.50
 -19  -9   9    1.23    0.56
  19   9  -9    1.80    0.50
 -19   9   9    1.22    0.44
 -17  -9   9  185.57   16.60
  17  -9  -9  183.87   14.49
 -17   9   9  172.65   14.39
  17   9  -9  174.52   14.41
  15  -9  -9   17.45    1.69
 -15  -9   9   18.71    1.97
 -15   9   9   18.81    1.65
  15   9  -9   13.02    1.57
  13  -9  -9  225.01   18.67
 -13  -9   9  229.32   21.36
 -13   9   9  241.29   18.62
  11  -9  -9   31.95    3.07
 -11  -9   9   40.23    3.67
 -11   9   9   35.58    3.04
  11   9  -9   35.60    3.08
   9  -9  -9  144.57   12.71
  -9  -9   9  157.01   14.62
  -9   9   9  160.36   12.65
   9   9  -9  165.75   12.68
  -7  -9   9   32.49    3.64
   7  -9  -9   39.21    3.13
  -7   9   9   38.60    3.08
   7   9  -9   32.39    3.07
   5  -9  -9  165.18   13.92
  -5  -9   9  183.55   16.03
   5   9  -9  181.49   13.90
  -5   9   9  162.35   13.87
  -3  -9   9   72.80    7.11
   3  -9  -9   78.95    6.12
  -3   9   9   66.65    6.05
  -3   9   9   74.14    6.41
   3   9  -9   77.21    6.09
   1  -9  -9  165.44   15.32
  -1  -9   9  220.31   17.72
   1   9  -9  187.77   15.37
  -1   9   9  204.80   16.15
   1   9  -9  186.26   15.31
  -1   9   9  186.64   15.31
  -1  -9  -9   73.77    5.92
   1  -9   9   74.59    6.97
   1   9   9   71.06    5.90
  -1   9  -9   75.59    5.91
   1   9   9   70.52    6.22
  -1   9  -9   65.02    5.95
  -3  -9  -9  145.92   10.50
   3  -9   9  125.53   12.12
   3   9   9  114.68   10.43
   3   9   9  141.92   11.03
  -3   9  -9  116.59   10.50
  -3   9  -9  131.10   10.46
  -5  -9  -9   11.09    1.21
   5  -9   9   10.73    1.68
   5   9   9   11.05    1.23
  -5   9  -9   12.82    1.44
   5   9   9    9.78    1.35
  -5   9  -9   16.88    1.30
   7  -9   9  159.01   14.00
   7   9   9  136.54   12.03
  -7   9  -9  156.62   12.15
   7   9   9  148.31   12.68
  -9  -9  -9   52.50    5.00
  -9   9  -9   63.10    5.08
   9   9   9   63.97    5.27
  11  -9   9   53.74    5.44
 -11  -9  -9   55.75    4.67
 -11   9  -9   54.93    4.67
  11   9   9   54.02    4.85
 -13  -9  -9   88.34    7.28
  13  -9   9   77.51    8.29
 -13   9  -9   93.16    7.23
  13   9   9   87.74    7.53
  15  -9   9   50.10    4.88
 -15   9  -9   48.74    4.18
  15   9   9   52.94    4.32
  15   9   9   40.09    4.76
  17  -9   9   83.24    8.91
  17   9   9   87.51    8.87
  17   9   9   96.95    8.05
 -17   9  -9  103.21    7.75
 -19  -9  -9   50.79    4.29
  19  -9   9   47.00    4.81
  19   9   9   45.43    4.76
 -19   9  -9   45.10    4.12
  21  -9   9   88.67    8.04
 -21  -9  -9   86.97    7.24
 -21   9  -9   88.33    6.92
  21   9   9   67.38    7.87
  23  -9   9   18.95    2.59
 -23  -9  -9   19.20    2.08
 -23   9  -9   19.15    1.99
  23   9   9   23.50    2.46
 -26 -10   9   37.47    3.48
  26 -10  -9   29.78    2.96
  26  10  -9   30.51    2.86
 -24 -10   9   18.15    2.24
  24 -10  -9   18.88    1.96
 -24  10   9   21.17    1.87
  24  10  -9   17.95    1.85
 -22 -10   9   39.05    4.01
  22 -10  -9   37.71    3.49
 -22  10   9   39.70    3.40
  22  10  -9   39.97    3.41
  20 -10  -9   24.56    2.58
 -20 -10   9   32.79    3.11
  20  10  -9   27.73    2.54
 -20  10   9   29.13    2.54
 -18 -10   9    8.80    1.37
  18 -10  -9    7.04    1.04
  18  10  -9    7.81    0.99
 -18  10   9    7.32    0.98
 -16 -10   9   40.51    4.43
  16 -10  -9   53.63    3.91
 -16  10   9   44.57    3.79
  16  10  -9   39.86    3.75
 -14 -10   9   17.40    2.04
  14 -10  -9   14.01    1.64
 -14  10   9   15.59    1.60
  14  10  -9   20.20    1.67
  12 -10  -9   67.39    5.70
  12  10  -9   67.24    5.66
 -12  10   9   70.06    5.65
  10 -10  -9   14.34    1.62
 -10 -10   9   11.00    1.95
  10  10  -9   20.24    1.66
 -10  10   9   19.23    1.62
   8 -10  -9   92.53    6.77
  -8 -10   9   92.30    7.88
   8  10  -9   80.98    6.70
  -8  10   9   66.08    6.66
   6 -10  -9   12.90    1.46
  -6 -10   9   15.31    1.83
  -6  10   9   16.99    1.50
   6  10  -9   14.03    1.45
   4 -10  -9   67.31    6.03
  -4 -10   9   71.73    7.05
  -4  10   9   70.72    6.01
   4  10  -9   80.91    6.00
  -2 -10   9   16.30    2.01
   2 -10  -9   13.68    1.58
  -2  10   9   17.61    1.59
   2  10  -9   18.74    1.61
   0 -10  -9  139.18   11.49
   0  10  -9  157.10   11.48
   0  10   9  138.27   11.48
   0  10  -9  132.76   11.52
  -2 -10  -9    0.64    0.37
   2 -10   9    0.45    0.53
   2  10   9    0.14    0.40
  -2  10  -9    0.56    0.35
  -2  10  -9   -0.03    0.38
   2  10   9    0.73    0.38
  -4 -10  -9   60.92    5.90
   4 -10   9   76.74    7.01
   4  10   9   72.56    6.26
  -4  10  -9   74.86    6.02
  -4  10  -9   73.61    5.92
   4  10   9   74.35    5.93
  -6 -10  -9    0.55    0.35
   6 -10   9    0.43    0.60
  -6  10  -9    0.82    0.49
   6  10   9    0.50    0.37
   6  10   9    1.27    0.47
  -6  10  -9   -0.18    0.34
   8 -10   9   60.33    6.03
   8  10   9   59.89    5.37
  -8  10  -9   68.27    5.20
   8  10   9   56.59    5.06
  10 -10   9    0.90    0.60
 -10 -10  -9    0.23    0.40
 -10  10  -9    0.23    0.44
  10  10   9    0.08    0.36
  12 -10   9   44.34    4.76
 -12  10  -9   49.41    4.10
  12  10   9   46.43    4.24
  14 -10   9    3.56    0.87
 -14  10  -9    2.03    0.66
  14  10   9    2.92    0.67
 -16  10  -9   29.05    2.69
  18 -10   9    2.65    0.93
 -18 -10  -9    2.44    0.66
 -18  10  -9    4.02    0.74
  20 -10   9   42.34    4.28
 -20 -10  -9   38.21    3.76
 -20  10  -9   44.00    3.66
  20  10   9   40.07    4.20
 -22 -10  -9    2.18    0.64
  22 -10   9    1.45    0.79
  22  10   9    1.20    0.68
 -23 -11   9    0.33    0.55
  23 -11  -9   -0.26    0.42
  23  11  -9    0.16    0.40
 -23  11   9   -0.09    0.35
  21 -11  -9    4.28    0.84
 -21 -11   9    5.66    1.09
 -21  11   9    5.21    0.80
  21  11  -9    5.16    0.83
 -19 -11   9    2.51    0.82
  19 -11  -9    2.11    0.63
 -19  11   9    2.83    0.60
  19  11  -9    3.05    0.64
  17 -11  -9   16.05    1.84
 -17 -11   9   20.08    2.06
  17  11  -9   16.09    1.66
 -17  11   9   15.77    1.67
 -15 -11   9    0.02    0.53
  15 -11  -9    0.26    0.39
 -15  11   9   -0.07    0.33
  15  11  -9    0.37    0.37
  13 -11  -9    8.79    1.11
 -13 -11   9    5.91    1.33
  13  11  -9    9.64    1.12
 -13  11   9   10.24    1.11
  11 -11  -9    1.07    0.51
 -11 -11   9    0.85    0.62
 -11  11   9    0.82    0.38
  11  11  -9    1.33    0.46
  -9 -11   9   10.82    1.60
   9 -11  -9    8.31    1.17
  -9  11   9   10.11    1.15
   9  11  -9   11.23    1.22
   7 -11  -9    1.75    0.51
  -7 -11   9    1.52    0.75
   7  11  -9    1.32    0.44
  -7  11   9    2.18    0.48
   5 -11  -9    0.94    0.45
  -5 -11   9    1.04    0.61
  -5  11   9    1.70    0.44
   5  11  -9    1.84    0.49
   3 -11  -9   10.02    1.25
  -3 -11   9    9.90    1.61
  -3  11   9   13.24    1.20
   3  11  -9   10.22    1.23
   1 -11  -9    0.96    0.41
  -1 -11   9   -0.24    0.52
   1  11  -9    0.50    0.38
  -1  11   9    0.92    0.41
  -1 -11  -9    1.31    0.44
   1 -11   9    2.12    0.77
  -1  11  -9    1.87    0.57
   1  11   9    1.27    0.46
  -1  11  -9    1.72    0.48
   3 -11   9    1.85    0.77
  -3 -11  -9    2.47    0.56
   3  11   9    1.45    0.47
  -3  11  -9    3.06    0.57
  -3  11  -9    1.80    0.56
  -5 -11  -9    2.03    0.48
   5 -11   9    1.88    0.79
  -5  11  -9    1.00    0.46
  -5  11  -9    0.71    0.49
   5  11   9    0.78    0.41
   7 -11   9    6.55    1.20
   7  11   9    3.93    0.71
  -7  11  -9    4.90    0.85
   9 -11   9    2.74    0.89
  -9  11  -9    6.26    0.90
  11 -11   9    1.00    0.63
  11  11   9    0.81    0.46
 -11  11  -9    1.29    0.54
  13 -11   9   10.54    1.65
 -13  11  -9    9.86    1.31
  13  11   9   11.34    1.38
  15 -11   9    6.25    1.26
 -15 -11  -9    6.33    1.01
 -15  11  -9    8.39    1.07
  17 -11   9    1.94    0.77
 -17 -11  -9    2.17    0.66
 -17  11  -9    3.62    0.71
 -19 -11  -9    3.48    0.78
  19 -11   9    2.37    0.94
 -19  11  -9    3.25    0.72
  20 -12  -9   48.22    4.22
 -20 -12   9   44.16    4.83
  20  12  -9   50.96    4.15
 -20  12   9   49.59    4.16
 -18 -12   9   38.50    4.65
  18 -12  -9   50.04    4.09
 -18  12   9   46.57    3.99
  18  12  -9   50.49    4.01
 -16 -12   9   68.96    6.69
  16 -12  -9   69.60    5.79
 -16  12   9   67.77    5.72
  16  12  -9   68.24    5.71
  14 -12  -9   29.89    3.27
 -14 -12   9   38.98    3.94
 -14  12   9   43.60    3.28
  14  12  -9   38.68    3.27
  12 -12  -9   76.01    6.03
 -12 -12   9   66.72    6.93
  12  12  -9   68.80    5.92
 -12  12   9   74.40    5.94
 -10 -12   9   24.62    3.39
  10 -12  -9   36.07    2.94
  10  12  -9   31.67    2.87
 -10  12   9   37.29    2.88
  -8 -12   9  100.67    9.81
   8 -12  -9  103.99    8.47
  -8  12   9  106.87    8.42
   8  12  -9  100.16    8.40
  -6 -12   9   11.60    1.85
   6 -12  -9   13.69    1.43
   6  12  -9   13.81    1.40
  -6  12   9   14.03    1.40
  -4 -12   9  113.70   10.15
   4 -12  -9  105.67    8.73
  -4  12   9  106.19    8.70
   4  12  -9  102.49    8.69
  -2 -12   9    4.88    1.08
   2 -12  -9    3.73    0.71
   2  12  -9    3.90    0.69
  -2  12   9    3.98    0.68
   0 -12   9  121.65   11.40
   0 -12  -9  123.15    9.82
   0  12   9  116.53    9.79
   2 -12   9    0.59    0.63
  -2 -12  -9    0.65    0.40
  -2  12  -9    0.66    0.43
   2  12   9    0.48    0.38
   4 -12   9  127.71   12.14
  -4 -12  -9  154.86   10.52
  -4  12  -9  108.39   10.41
  -4  12  -9  133.20   10.53
   4  12   9  123.17   10.45
   6 -12   9   -0.09    0.56
  -6  12  -9    1.32    0.56
   6  12   9    0.67    0.42
   8 -12   9  111.73   11.66
   8  12   9  121.25   10.06
  -8  12  -9  136.61   10.13
  10 -12   9    0.40    0.56
 -10  12  -9   -0.27    0.40
  12 -12   9   74.38    8.17
 -12  12  -9   94.08    7.08
  14 -12   9    1.53    0.75
 -14  12  -9    0.82    0.52
 -16  12  -9   55.44    4.76
  17 -13  -9   82.36    6.98
  17  13  -9   81.35    6.88
 -17  13   9   86.76    6.90
 -15 -13   9    0.24    0.62
  15 -13  -9    1.31    0.49
  15  13  -9    1.08    0.46
 -15  13   9    1.26    0.43
  13 -13  -9   51.85    4.79
 -13 -13   9   55.91    5.62
  13  13  -9   61.79    4.78
  11 -13  -9    3.45    0.71
 -11 -13   9    5.52    1.12
  11  13  -9    4.38    0.73
 -11  13   9    3.39    0.66
  -9 -13   9   54.89    5.50
   9 -13  -9   57.43    4.68
  -9  13   9   57.84    4.63
   9  13  -9   49.69    4.60
   7 -13  -9   19.43    1.76
  -7 -13   9   17.03    2.33
   7  13  -9   16.02    1.68
  -7  13   9   16.83    1.70
   5 -13  -9   86.07    7.10
  -5 -13   9   78.09    8.20
  -5  13   9   89.49    7.07
   5  13  -9   87.06    7.05
   3 -13  -9   17.13    1.61
  -3 -13   9   14.88    2.11
   3  13  -9   15.13    1.52
  -3  13   9   14.33    1.52
   1 -13  -9  110.96    8.10
  -1 -13   9   96.27    9.39
  -1  13   9   95.84    8.03
   1  13  -9   90.44    8.00
  -1 -13  -9   25.82    2.05
   1 -13   9   18.84    2.43
   1  13   9   20.11    1.98
  -1  13  -9   19.67    1.96
  -3 -13  -9   84.08    6.41
   3  13   9   70.35    6.35
  -5 -13  -9   42.71    3.54
   5 -13   9   37.85    4.19
  -5  13  -9   42.31    3.61
  -5  13  -9   33.47    3.49
   5  13   9   47.83    3.58
   7 -13   9   48.47    5.68
  -7  13  -9   65.79    4.94
   9 -13   9   43.20    4.38
  -9  13  -9   41.42    3.71
  11 -13   9   43.38    4.56
 -11  13  -9   44.61    3.88
  13 -13   9   23.58    2.72
 -12 -14   9    6.27    1.25
  12 -14  -9    4.06    0.87
  12  14  -9    7.35    0.95
 -12  14   9    7.37    0.90
  10 -14  -9    3.85    0.72
 -10 -14   9    2.73    0.91
 -10  14   9    3.50    0.67
  10  14  -9    3.55    0.66
  -8 -14   9   13.36    1.96
   8 -14  -9   12.42    1.47
  -8  14   9   12.11    1.43
   8  14  -9   12.74    1.41
  -6 -14   9    2.09    0.88
   6 -14  -9    4.22    0.74
  -6  14   9    2.76    0.61
   6  14  -9    2.67    0.57
  -4 -14   9   19.24    2.44
   4 -14  -9   14.33    1.71
   4  14  -9   18.59    1.72
  -4  14   9   18.99    1.74
   2 -14  -9   -0.06    0.37
  -2 -14   9    0.06    0.62
  -2  14   9   -0.04    0.36
   2  14  -9    0.34    0.39
   0 -14   9    2.17    0.84
   0 -14  -9    1.49    0.52
   0  14   9    2.02    0.55
   0  14  -9    1.43    0.52
   2 -14   9    0.35    0.66
  -2 -14  -9    0.07    0.39
   2  14   9    0.56    0.44
  -2  14  -9   -0.53    0.32
  -4 -14  -9   10.20    1.26
   4 -14   9   10.59    1.67
  -4  14  -9    9.83    1.24
   4  14   9    9.90    1.22
   6 -14   9    0.93    0.74
   8 -14   9   24.29    2.77
  -8  14  -9   23.50    2.30
  34   0 -10    2.37    0.66
 -34   0  10    1.93    0.63
  32   0 -10  131.33   11.08
 -32   0  10  139.25   11.65
 -30   0  10   11.17    1.41
  30   0 -10    8.99    1.27
  28   0 -10  186.32   15.02
 -28   0  10  183.98   15.76
 -26   0  10   12.38    1.48
  26   0 -10   11.03    1.39
 -24   0  10  298.69   27.05
  24   0 -10  344.69   25.80
  22   0 -10   23.35    2.25
 -22   0  10   24.48    2.38
  20   0 -10  220.10   16.43
 -20   0  10  186.91   17.22
 -18   0  10   71.39    6.81
  18   0 -10   86.10    6.53
 -16   0  10  282.09   21.69
  16   0 -10  232.99   20.62
 -14   0  10   28.90    2.61
 -14   0  10   28.40    2.34
  14   0 -10   24.75    2.45
 -12   0  10  296.74   25.08
  12   0 -10  297.62   23.88
 -12   0  10  300.27   23.76
 -10   0  10   39.32    3.76
  10   0 -10   47.54    3.55
  10   0 -10   38.88    3.57
  -8   0  10  280.30   22.57
   8   0 -10  266.36   21.47
   8   0 -10  258.62   21.41
  -6   0  10  175.26   15.51
   6   0 -10  204.67   14.74
   6   0 -10  170.81   14.74
  -4   0  10  249.82   22.64
  -4   0  10  244.64   20.93
   4   0 -10  249.56   19.93
   4   0 -10  251.90   19.92
   2   0 -10  198.28   15.84
  -2   0  10  186.45   18.00
   2   0 -10  212.44   15.83
  -2   0  10  192.94   16.64
   0   0  10  361.24   33.25
   0   0 -10  356.83   29.18
   0   0 -10  379.30   29.16
  -2   0 -10  413.68   31.45
  -2   0 -10  381.87   31.37
   2   0  10  379.69   32.99
   2   0  10  402.61   35.84
   4   0  10   86.43    7.84
  -4   0 -10   96.43    7.52
   4   0  10   92.92    8.56
   6   0  10  213.76   19.47
   6   0  10  228.14   21.24
  -6   0 -10  254.95   18.62
   8   0  10   63.11    6.63
  -8   0 -10   70.71    5.82
   8   0  10   75.93    6.09
  10   0  10  352.88   30.78
 -10   0 -10  315.91   26.92
  10   0  10  342.26   28.25
 -12   0 -10   48.11    3.85
  12   0  10   41.98    4.36
  12   0  10   43.16    3.93
 -14   0 -10  204.05   16.82
  14   0  10  174.76   19.20
  14   0  10  246.04   17.65
  16   0  10    9.16    1.36
  16   0  10    6.55    0.93
 -16   0 -10    5.53    0.94
  18   0  10  121.78   10.86
 -18   0 -10  122.12    9.47
  18   0  10  103.93    9.83
  20   0  10   24.05    2.57
  20   0  10   23.66    2.29
 -20   0 -10   21.27    2.22
  22   0  10  125.38   10.85
 -22   0 -10   99.81    9.37
  22   0  10  118.89    9.80
 -24   0 -10    9.18    1.36
 -24   0 -10   13.84    1.50
  24   0  10   13.18    1.81
  26   0  10   97.13    9.20
 -26   0 -10   95.89    8.05
 -28   0 -10    6.52    1.02
  28   0  10    6.65    1.29
 -33  -1  10    7.34    1.13
  33  -1 -10    6.63    1.07
 -33   1  10    7.92    1.21
  33   1 -10    6.83    1.11
  31  -1 -10   16.03    1.79
 -31  -1  10   17.38    1.88
 -31   1  10   20.88    1.98
  31   1 -10   16.49    1.80
  29  -1 -10   27.37    2.23
 -29  -1  10   19.07    2.21
 -29   1  10   25.97    2.33
  29   1 -10   18.25    2.10
  27  -1 -10   41.22    3.48
 -27  -1  10   41.01    3.64
  27   1 -10   32.63    3.42
 -27   1  10   42.21    3.68
  25  -1 -10   22.93    2.16
 -25  -1  10   23.02    2.28
  25   1 -10   21.50    2.15
 -25   1  10   22.38    2.27
  23  -1 -10   67.53    5.59
 -23  -1  10   68.51    5.85
  23   1 -10   69.98    5.59
 -23   1  10   58.78    5.84
 -21  -1  10   31.04    2.99
  21  -1 -10   35.84    2.89
 -21   1  10   32.31    3.02
  21   1 -10   28.63    2.83
  19  -1 -10  161.79   12.52
 -19  -1  10  157.39   13.16
 -19   1  10  162.66   13.16
  19   1 -10  136.15   12.48
  17  -1 -10   34.92    2.92
 -17  -1  10   31.10    3.03
 -17   1  10   29.49    3.01
 -17   1  10   33.21    2.78
  17   1 -10   35.05    2.92
  15  -1 -10  164.61   13.04
 -15   1  10  168.64   12.93
  15   1 -10  170.88   13.05
 -15   1  10  139.94   13.66
  13  -1 -10   20.47    2.03
 -13  -1  10   21.23    2.12
  13   1 -10   23.66    2.03
  13   1 -10   23.00    1.95
 -13   1  10   21.14    1.91
 -13   1  10   21.76    2.13
 -11  -1  10   72.73    6.69
  11  -1 -10   77.88    6.39
 -11   1  10   87.59    6.31
  11   1 -10   68.33    6.30
  11   1 -10   84.98    6.40
 -11   1  10   72.90    6.69
   9  -1 -10    1.21    0.41
  -9  -1  10    0.63    0.38
  -9   1  10    0.08    0.33
   9   1 -10    0.62    0.33
   9   1 -10    0.84    0.38
  -9   1  10    0.55    0.28
  -7  -1  10   78.00    6.73
   7  -1 -10   71.68    5.94
  -7  -1  10   68.31    6.23
  -7   1  10   72.10    5.87
   7   1 -10   83.86    5.97
  -7   1  10   61.87    6.23
   7   1 -10   69.47    5.91
  -5  -1  10    0.14    0.28
   5  -1 -10    0.47    0.31
  -5  -1  10    0.04    0.32
   5  -1 -10    0.11    0.30
   5   1 -10    0.34    0.31
   5   1 -10    0.08    0.29
  -5   1  10    0.21    0.35
  -3  -1  10  103.41    8.59
   3  -1 -10   81.09    7.51
  -3  -1  10   93.97    7.94
   3  -1 -10   86.13    7.53
  -3   1  10   90.81    7.93
   3   1 -10   98.70    7.56
   3   1 -10   94.77    7.53
  -1  -1  10    3.73    0.71
  -1  -1  10    5.05    0.72
   1  -1 -10    2.95    0.61
   1  -1 -10    4.67    0.65
  -1   1  10    4.17    0.68
   1   1 -10    4.14    0.67
  -1   1  10    5.43    0.71
   1   1 -10    4.23    0.61
  -1  -1 -10   41.28    3.59
  -1  -1 -10   41.99    3.52
   1  -1  10   42.68    4.08
   1  -1  10   44.27    3.75
  -1   1 -10   44.16    3.52
   1   1  10   42.60    4.04
  -1   1 -10   35.30    3.56
   1   1  10   45.62    3.76
  -3  -1 -10    0.18    0.27
   3  -1  10    0.27    0.38
  -3  -1 -10   -0.23    0.27
   3  -1  10    0.27    0.28
   3   1  10   -0.05    0.28
   3   1  10    0.10    0.27
  -3   1 -10    0.11    0.33
  -3   1 -10    0.24    0.23
   5  -1  10  115.16    9.67
   5  -1  10  111.87   10.57
  -5  -1 -10  116.01    9.26
  -5   1 -10  109.67    9.24
   5   1  10  115.35   10.52
   7  -1  10    2.33    0.50
  -7  -1 -10    2.04    0.51
   7  -1  10    2.07    0.62
   7   1  10    3.35    0.68
  -7   1 -10    3.00    0.59
   7   1  10    1.43    0.43
  -9  -1 -10  233.16   18.82
   9  -1  10  241.74   19.73
   9   1  10  233.74   19.71
  -9   1 -10  226.04   18.83
   9   1  10  237.16   21.51
  11  -1  10    1.26    0.44
 -11  -1 -10    1.94    0.53
  11  -1  10    1.53    0.60
  11   1  10    0.81    0.55
 -11   1 -10    2.35    0.58
  11   1  10    2.24    0.51
  13  -1  10  135.51   14.02
  13  -1  10  146.61   12.80
 -13  -1 -10  155.68   12.26
  13   1  10  160.34   12.83
 -13   1 -10  151.49   12.25
  13   1  10  155.76   14.02
 -15  -1 -10    0.49    0.43
  15  -1  10    0.31    0.36
  15  -1  10    0.44    0.44
  15   1  10    0.67    0.39
 -15   1 -10    1.36    0.50
  15   1  10   -0.12    0.43
  17  -1  10   79.07    8.34
 -17  -1 -10   92.68    7.29
  17  -1  10   97.86    7.61
  17   1  10   74.77    8.31
 -17   1 -10  100.95    7.33
  17   1  10   82.36    7.57
 -19  -1 -10    4.25    0.80
  19  -1  10    3.99    0.74
  19  -1  10    4.14    0.97
 -19   1 -10    3.31    0.74
  19   1  10    5.11    1.01
  19   1  10    3.18    0.69
 -21  -1 -10   38.65    3.25
  21  -1  10   35.36    3.30
  21  -1  10   32.50    3.70
 -21   1 -10   37.11    3.23
  21   1  10   34.98    3.71
 -23  -1 -10    7.31    1.08
  23  -1  10    4.88    1.12
 -23   1 -10    8.05    1.12
  23   1  10    7.53    1.30
 -23   1 -10    9.26    1.11
 -25  -1 -10   17.53    1.96
 -25  -1 -10   15.38    1.76
  25  -1  10   17.18    2.27
  25   1  10   18.18    2.11
 -25   1 -10   15.86    1.87
 -25   1 -10   17.88    1.81
 -27  -1 -10   16.38    1.61
  27  -1  10   11.26    1.85
  27   1  10   15.96    2.06
 -27   1 -10   13.22    1.65
 -27   1 -10   12.05    1.62
  29  -1  10   24.94    2.76
 -29  -1 -10   25.63    2.47
  29   1  10   23.86    2.78
 -29   1 -10   23.71    2.47
 -32  -2  10    1.30    0.56
  32  -2 -10    1.17    0.55
  32   2 -10   -0.01    0.42
 -32   2  10    0.11    0.52
 -30  -2  10    2.10    0.63
  30  -2 -10    0.93    0.54
 -30   2  10    1.75    0.68
  30   2 -10    2.57    0.63
 -28  -2  10    2.29    0.68
  28  -2 -10    2.54    0.67
 -28   2  10    3.10    0.76
  28   2 -10    3.24    0.71
 -26  -2  10    3.14    0.73
  26  -2 -10    3.67    0.76
 -26   2  10    3.27    0.78
  26   2 -10    3.61    0.71
  24  -2 -10    0.64    0.47
 -24  -2  10    1.07    0.50
 -24   2  10    1.55    0.56
  24   2 -10    0.82    0.45
  22  -2 -10    0.54    0.44
 -22  -2  10    0.72    0.48
  22   2 -10    1.69    0.53
 -22   2  10    1.07    0.52
 -20  -2  10    8.89    1.25
  20  -2 -10   11.17    1.28
  20   2 -10   10.83    1.27
 -20   2  10   10.31    1.29
  18  -2 -10    0.14    0.39
 -18  -2  10    0.57    0.42
  18   2 -10    0.28    0.38
 -18   2  10    0.20    0.41
 -18   2  10    0.69    0.32
  16  -2 -10   22.62    1.77
 -16  -2  10   17.81    1.77
 -16   2  10   16.63    1.58
 -16   2  10   14.01    1.73
  16   2 -10   16.55    1.67
  14  -2 -10    4.72    0.72
 -14  -2  10    3.62    0.69
 -14   2  10    3.56    0.55
 -14   2  10    2.13    0.59
  14   2 -10    3.87    0.65
  12  -2 -10    7.05    0.95
 -12  -2  10    7.57    1.03
 -12  -2  10    6.01    0.93
  12   2 -10    7.78    0.96
  12   2 -10    7.76    0.88
 -12   2  10    6.39    0.82
 -12   2  10    7.12    0.96
 -10  -2  10    7.58    1.06
  10  -2 -10    6.22    0.95
 -10  -2  10    7.39    1.03
 -10   2  10   10.50    1.12
  10   2 -10    6.88    0.89
  10   2 -10    8.08    0.98
 -10   2  10    8.95    0.86
  -8  -2  10    4.93    0.73
  -8  -2  10    3.28    0.63
   8  -2 -10    3.50    0.62
  -8   2  10    2.87    0.50
  -8   2  10    3.81    0.67
   8   2 -10    3.13    0.56
   8   2 -10    3.07    0.58
  -6  -2  10    1.32    0.46
  -6  -2  10    0.50    0.37
   6  -2 -10    0.72    0.38
   6   2 -10    1.17    0.39
  -6   2  10    0.48    0.30
  -6   2  10    0.87    0.41
   6   2 -10    1.26    0.39
  -4  -2  10    6.53    0.96
   4  -2 -10    8.23    0.96
  -4  -2  10    8.53    1.13
  -4   2  10    6.90    0.84
   4   2 -10    8.40    0.93
  -4   2  10    8.80    1.02
   4   2 -10    8.08    0.95
  -2  -2  10    4.51    0.67
  -2  -2  10    4.60    0.78
   2  -2 -10    4.98    0.66
   2  -2 -10    2.66    0.56
  -2   2  10    3.89    0.67
   2   2 -10    4.23    0.60
   2   2 -10    4.70    0.68
   0  -2 -10    2.37    0.46
   0  -2  10    1.62    0.46
   0  -2  10    1.59    0.51
   0  -2 -10    1.62    0.45
   0   2 -10    1.34    0.37
   0   2 -10    1.75    0.46
   0   2  10    1.88    0.47
   2  -2  10    3.11    0.64
  -2  -2 -10    2.75    0.53
   2  -2  10    1.98    0.48
  -2  -2 -10    2.28    0.46
  -2   2 -10    2.35    0.42
  -2   2 -10    3.14    0.57
   2   2  10    2.44    0.50
   2   2  10    2.33    0.50
   4  -2  10    0.92    0.45
  -4  -2 -10    1.20    0.41
   4  -2  10    0.50    0.33
   4   2  10    0.45    0.36
  -4   2 -10    1.54    0.47
   4   2  10    1.11    0.37
   6  -2  10    6.09    1.02
  -6  -2 -10    5.66    0.81
   6  -2  10    5.54    0.78
  -6   2 -10    5.83    0.84
   6   2  10    5.24    0.79
   6   2  10    5.11    0.88
  -8  -2 -10    9.12    1.06
   8  -2  10    9.31    0.97
   8  -2  10    9.59    1.31
   8   2  10    7.07    1.14
  -8   2 -10    6.15    0.98
   8   2  10    7.68    1.01
 -10  -2 -10   17.37    1.73
  10  -2  10   18.78    2.07
  10  -2  10   16.92    1.73
 -10   2 -10   15.11    1.72
  10   2  10   18.16    2.01
  10   2  10   21.12    1.79
  12  -2  10    3.82    0.84
 -12  -2 -10    2.48    0.62
  12  -2  10    2.70    0.57
  12   2  10    2.40    0.56
 -12   2 -10    3.22    0.66
  12   2  10    3.82    0.81
  14  -2  10    1.37    0.45
  14  -2  10    0.71    0.59
 -14  -2 -10    1.31    0.49
  14   2  10    2.06    0.51
 -14   2 -10    1.31    0.51
  14   2  10    1.23    0.64
  16  -2  10    7.37    1.25
 -16  -2 -10    5.64    0.93
  16  -2  10    4.75    0.86
 -16   2 -10    6.39    0.98
  16   2  10    6.95    0.94
  16   2  10    6.99    1.15
  18  -2  10    1.43    0.51
  18  -2  10    1.57    0.65
 -18  -2 -10    0.91    0.54
  18   2  10    1.29    0.65
  18   2  10    1.26    0.48
 -18   2 -10    1.60    0.56
  20  -2  10    0.16    0.56
 -20  -2 -10    0.38    0.46
  20  -2  10   -0.05    0.37
 -20   2 -10   -0.21    0.41
  20   2  10    0.61    0.57
  20   2  10   -0.09    0.41
 -22  -2 -10    6.77    1.13
  22  -2  10   10.26    1.50
 -22   2 -10    8.99    1.25
  22   2  10    8.68    1.45
 -22   2 -10    7.78    1.14
  22   2  10    9.20    1.17
 -24  -2 -10    0.39    0.40
  24  -2  10    0.91    0.64
 -24   2 -10    1.67    0.59
 -24   2 -10    1.00    0.50
  24   2  10    0.62    0.59
  26  -2  10    4.01    0.97
 -26  -2 -10    3.60    0.74
 -26   2 -10    3.04    0.78
  26   2  10    4.66    1.05
 -26   2 -10    3.39    0.76
 -28  -2 -10    1.18    0.50
  28  -2  10    0.55    0.66
 -28   2 -10   -0.26    0.46
  28   2  10   -0.05    0.55
  33  -3 -10   45.67    4.17
 -33  -3  10   46.82    4.37
  33   3 -10   53.61    4.19
 -33   3  10   44.42    4.40
 -31  -3  10   36.89    3.38
  31  -3 -10   35.93    3.24
  31   3 -10   33.40    3.17
 -31   3  10   36.08    3.40
 -29  -3  10   72.89    6.34
  29  -3 -10   63.22    6.00
 -29   3  10   79.81    6.41
  29   3 -10   70.95    6.00
 -27  -3  10   65.73    6.20
  27  -3 -10   76.42    5.95
  27   3 -10   64.21    5.88
 -27   3  10   76.20    6.28
  25  -3 -10   33.74    2.81
 -25  -3  10   30.81    2.92
  25   3 -10   28.54    2.74
 -25   3  10   28.77    2.90
 -23  -3  10  109.84   10.26
  23  -3 -10  140.72    9.86
 -23   3  10  118.64   10.28
  23   3 -10  111.29    9.75
 -21  -3  10   26.16    2.52
  21  -3 -10   26.31    2.43
  21   3 -10   26.29    2.41
 -21   3  10   25.50    2.53
 -19  -3  10  135.32   11.78
  19  -3 -10  138.06   11.25
 -19   3  10  133.23   11.81
 -19   3  10  135.43   11.14
  19   3 -10  148.98   11.25
 -17  -3  10   33.50    3.03
  17  -3 -10   30.18    2.86
 -17   3  10   34.08    3.04
  17   3 -10   31.07    2.85
 -17   3  10   32.56    2.76
  15  -3 -10  207.61   16.82
 -15  -3  10  202.55   17.65
 -15  -3  10  211.10   19.14
 -15   3  10  228.54   16.72
 -15   3  10  197.00   17.64
  15   3 -10  204.39   16.80
 -13  -3  10    1.02    0.44
 -13  -3  10    1.22    0.45
  13  -3 -10    0.76    0.42
 -13   3  10    1.59    0.51
  13   3 -10    0.74    0.40
 -13   3  10    1.82    0.39
  11  -3 -10  224.60   18.04
 -11  -3  10  240.18   20.56
  11   3 -10  224.39   18.00
 -11   3  10  221.63   18.95
  11   3 -10  211.95   18.02
  -9  -3  10    2.00    0.55
   9  -3 -10    1.77    0.47
  -9  -3  10    1.84    0.51
  -9   3  10    1.52    0.38
   9   3 -10    1.89    0.45
   9   3 -10    1.96    0.47
  -9   3  10    2.21    0.53
  -7  -3  10  317.34   29.10
  -7  -3  10  339.28   26.80
  -7   3  10  301.40   25.42
   7   3 -10  314.87   25.49
  -7   3  10  324.05   26.79
   5  -3 -10   24.97    2.14
  -5  -3  10   23.61    2.24
  -5  -3  10   25.41    2.47
  -5   3  10   21.74    2.23
   5   3 -10   24.58    2.11
  -5   3  10   24.07    2.08
   5   3 -10   21.91    2.12
  -3  -3  10  259.63   23.10
  -3  -3  10  314.73   25.20
   3  -3 -10  269.47   22.01
  -3   3  10  277.72   21.96
  -3   3  10  266.34   23.12
   3   3 -10  266.82   21.98
  -1  -3  10   17.28    1.67
  -1  -3  10   14.82    1.45
   1  -3 -10   13.19    1.35
   1   3 -10   11.99    1.39
   1   3 -10   14.40    1.34
  -1   3  10   14.27    1.45
  -1   3  10   14.18    1.33
  -1  -3 -10  250.92   18.98
   1  -3  10  233.21   19.92
  -1  -3 -10  238.57   18.96
   1  -3  10  252.88   21.73
   1   3  10  234.81   19.93
  -1   3 -10  226.06   18.92
  -1   3 -10  224.29   18.99
   3  -3  10    4.57    0.86
  -3  -3 -10    4.48    0.60
   3  -3  10    4.00    0.63
  -3  -3 -10    2.67    0.56
   3   3  10    5.19    0.73
  -3   3 -10    3.03    0.63
  -3   3 -10    3.45    0.51
   3   3  10    3.17    0.62
  -5  -3 -10  218.47   17.29
   5  -3  10  217.23   18.12
   5  -3  10  229.30   19.81
  -5   3 -10  208.34   17.30
   5   3  10  209.24   19.69
   5   3  10  210.56   18.13
   7  -3  10    0.40    0.34
  -7  -3 -10    0.51    0.38
   7  -3  10    0.90    0.50
   7   3  10    0.23    0.32
   7   3  10    0.64    0.42
  -7   3 -10    0.16    0.36
  -9  -3 -10  211.30   17.43
   9  -3  10  200.12   19.95
   9  -3  10  230.22   18.26
  -9   3 -10  214.08   17.44
   9   3  10  227.66   19.91
   9   3  10  216.01   18.27
 -11  -3 -10   15.03    1.52
  11  -3  10   14.70    1.94
  11  -3  10   17.17    1.54
  11   3  10   13.12    1.49
  11   3  10   13.93    1.70
 -11   3 -10   14.19    1.51
  13  -3  10  104.23    9.94
  13  -3  10  106.81    9.03
 -13  -3 -10  101.55    8.65
  13   3  10  110.88    9.06
  13   3  10   95.71    9.88
 -13   3 -10  113.32    8.69
  15  -3  10   19.48    2.45
  15  -3  10   20.84    2.16
 -15  -3 -10   28.11    2.23
  15   3  10   22.09    2.49
  15   3  10   23.33    2.19
 -15   3 -10   23.17    2.17
  17  -3  10   81.69    6.98
 -17  -3 -10   74.70    6.71
 -17   3 -10   76.19    6.71
  17   3  10   90.77    7.75
  19  -3  10   20.05    2.16
  19  -3  10   25.92    2.58
 -19  -3 -10   23.57    2.22
  19   3  10   23.38    2.19
 -19   3 -10   22.05    2.17
  19   3  10   19.84    2.49
  21  -3  10   91.58    9.43
 -21  -3 -10   86.22    8.24
  21   3  10   96.13    9.48
 -21   3 -10  121.10    8.31
  21   3  10  104.68    8.60
  23  -3  10   35.39    3.57
  23   3  10   32.99    3.51
 -23   3 -10   31.76    3.04
  25  -3  10   49.84    5.03
 -25  -3 -10   50.73    4.50
  25   3  10   55.10    5.07
 -25   3 -10   44.22    4.30
  27  -3  10   11.53    1.85
 -27  -3 -10   11.94    1.54
 -27   3 -10   15.80    1.69
  27   3  10   14.08    1.95
 -32  -4  10  110.60    8.54
  32  -4 -10   80.72    8.05
 -32   4  10   94.29    8.51
  32   4 -10  105.32    8.08
  30  -4 -10    0.93    0.52
 -30  -4  10    1.80    0.61
 -30   4  10    0.34    0.51
  30   4 -10    1.37    0.54
  28  -4 -10   97.84    8.92
 -28  -4  10  112.00    9.41
  28   4 -10  112.55    8.93
 -28   4  10  111.39    9.42
  26  -4 -10    8.63    1.08
 -26  -4  10    7.27    1.05
 -26   4  10    4.38    0.94
  26   4 -10    4.70    0.88
 -24  -4  10  194.85   16.67
  24  -4 -10  204.29   15.89
 -24   4  10  191.68   16.68
  24   4 -10  193.94   15.84
  22  -4 -10   25.25    2.38
 -22  -4  10   24.90    2.49
  22   4 -10   27.84    2.36
 -22   4  10   24.08    2.50
  20  -4 -10  173.94   12.94
 -20  -4  10  160.97   13.55
  20   4 -10  165.58   12.89
 -20   4  10  166.66   13.57
 -20   4  10  133.15   12.76
 -18  -4  10   12.60    1.39
  18  -4 -10   13.89    1.49
 -18  -4  10   13.40    1.48
 -18   4  10   10.28    1.27
  18   4 -10   12.00    1.38
 -18   4  10   12.26    1.49
  16  -4 -10  250.69   20.41
 -16  -4  10  225.74   23.24
 -16  -4  10  245.49   21.43
 -16   4  10  283.11   20.32
 -16   4  10  252.07   21.42
  16   4 -10  265.64   20.40
  14  -4 -10  125.41   10.23
 -14  -4  10  129.20   11.67
 -14   4  10  125.96   10.76
 -14   4  10  122.84   10.14
  14   4 -10  124.90   10.20
  12  -4 -10  142.70   12.41
 -12  -4  10  164.37   14.18
 -12  -4  10  172.02   13.07
  12   4 -10  162.73   12.41
 -12   4  10  150.98   12.34
 -12   4  10  129.62   13.02
 -10  -4  10  125.32   12.25
 -10  -4  10  127.20   13.30
  10  -4 -10  149.20   11.70
 -10   4  10  146.83   12.28
  10   4 -10  167.29   11.69
 -10   4  10  150.74   11.62
  -8  -4  10  297.88   25.72
   8  -4 -10  355.71   24.53
  -8  -4  10  304.40   27.96
   8   4 -10  281.89   24.47
  -8   4  10  302.46   25.72
   8   4 -10  300.97   24.45
  -8   4  10  302.71   24.43
  -6  -4  10  108.59    9.68
  -6  -4  10  109.13    8.86
   6  -4 -10  107.60    8.44
   6   4 -10   99.68    8.40
  -6   4  10  103.13    8.86
   6   4 -10   99.57    8.40
  -6   4  10   97.76    8.37
  -4  -4  10  223.76   20.27
  -4  -4  10  216.16   18.59
   4  -4 -10  228.06   17.72
  -4   4  10  220.82   17.65
   4   4 -10  212.42   17.68
   4   4 -10  223.36   17.71
  -4   4  10  221.44   18.60
   2  -4 -10  133.70   10.50
  -2  -4  10  118.08   12.04
  -2  -4  10  125.94   11.02
   2   4 -10  138.76   10.53
   2   4 -10  118.22   10.46
  -2   4  10  142.93   10.50
  -2   4  10  132.36   11.05
   0  -4  10  136.72   11.35
   0  -4 -10  133.68   10.79
   0   4  10  131.23   11.35
   0   4 -10  138.59   10.76
   0   4 -10  136.68   10.84
   0   4  10  125.77   10.76
   2  -4  10  165.96   14.77
   2  -4  10  184.72   16.20
  -2  -4 -10  167.92   14.06
  -2   4 -10  167.60   14.02
   2   4  10  164.66   14.79
  -2   4 -10  205.85   14.16
   4  -4  10  198.75   16.59
   4  -4  10  198.51   18.16
  -4  -4 -10  209.46   15.82
  -4  -4 -10  195.09   15.82
  -4   4 -10  194.75   15.85
   4   4  10  185.17   16.59
   6  -4  10  132.45   11.63
  -6  -4 -10  106.24   10.06
  -6   4 -10  128.14   10.12
   6   4  10  128.87   11.50
   6   4  10  127.13   10.59
  -8  -4 -10   64.38    5.47
   8  -4  10   70.13    6.38
   8  -4  10   66.69    5.71
   8   4  10   67.99    6.26
  -8   4 -10   59.74    5.47
  10  -4  10  167.38   15.21
 -10  -4 -10  158.53   13.24
  10  -4  10  163.89   13.86
  10   4  10  156.76   15.12
  10   4  10  175.56   13.90
 -10   4 -10  160.53   13.26
  12  -4  10    9.15    1.12
  12  -4  10   11.36    1.52
 -12  -4 -10   10.73    1.22
  12   4  10    5.92    1.03
 -12   4 -10   11.39    1.23
  12   4  10    8.44    1.32
  14  -4  10  167.12   15.31
  14  -4  10  171.81   13.95
 -14  -4 -10  144.70   13.31
 -14   4 -10  178.49   13.38
  14   4  10  154.52   15.24
  14   4  10  170.83   13.96
 -16  -4 -10    7.12    1.01
  16  -4  10    7.20    0.95
  16  -4  10    7.00    1.24
  16   4  10    5.34    0.87
  16   4  10    6.49    1.17
 -16   4 -10    4.23    0.86
 -18  -4 -10  185.92   15.03
  18   4  10  181.56   15.71
  18   4  10  182.04   17.17
 -18   4 -10  192.02   15.02
  20  -4  10   11.23    1.67
 -20  -4 -10    8.60    1.29
  20   4  10    9.86    1.59
 -20   4 -10   12.09    1.38
  20   4  10   10.41    1.32
  22  -4  10  131.83   11.86
 -22   4 -10  113.61   10.28
  22   4  10  132.19   10.76
 -24  -4 -10    1.52    0.53
  24  -4  10    1.61    0.74
 -24   4 -10    1.04    0.57
  24   4  10    0.67    0.59
 -26  -4 -10   64.99    5.66
  26   4  10   62.37    6.22
 -28  -4 -10    8.03    1.20
  28  -4  10    7.10    1.36
 -28   4 -10   10.12    1.30
  28   4  10   10.41    1.53
 -31  -5  10    5.83    1.01
  31  -5 -10    6.25    1.00
  31   5 -10    4.07    0.82
  29  -5 -10    0.72    0.53
 -29  -5  10    0.85    0.54
 -29   5  10    0.76    0.58
  29   5 -10    1.73    0.55
  27  -5 -10    1.37    0.59
 -27  -5  10    3.08    0.73
 -27   5  10    2.77    0.74
  27   5 -10    1.89    0.59
  25  -5 -10    3.01    0.72
 -25  -5  10    2.61    0.72
 -25   5  10    3.50    0.80
  25   5 -10    3.45    0.67
 -23  -5  10   23.49    2.24
  23  -5 -10   18.11    2.08
 -23   5  10   20.92    2.22
  23   5 -10   21.42    2.07
 -23   5  10   24.40    2.00
  21  -5 -10    4.67    0.82
 -21  -5  10    4.25    0.82
 -21  -5  10    4.87    0.95
 -21   5  10    4.75    0.84
  21   5 -10    4.86    0.81
 -21   5  10    4.18    0.67
 -19  -5  10   12.69    1.47
  19  -5 -10   12.52    1.41
 -19  -5  10    8.82    1.45
  19   5 -10   11.14    1.31
 -19   5  10   12.87    1.47
 -19   5  10   11.06    1.16
  17  -5 -10    5.56    0.82
 -17  -5  10    4.92    0.94
 -17  -5  10    5.28    0.85
  17   5 -10    3.97    0.72
 -17   5  10    3.27    0.76
 -17   5  10    5.15    0.72
  15  -5 -10    1.51    0.49
 -15  -5  10    1.64    0.59
 -15  -5  10    1.89    0.55
 -15   5  10    0.64    0.46
 -15   5  10    1.73    0.42
  15   5 -10    0.94    0.43
 -13  -5  10    6.92    0.98
 -13  -5  10    5.84    1.03
  13  -5 -10    8.12    0.97
 -13   5  10    6.16    0.96
 -13   5  10    6.35    0.79
  13   5 -10    5.91    0.86
  11  -5 -10   70.70    5.96
 -11  -5  10   71.97    6.27
 -11  -5  10   69.98    6.81
  11   5 -10   74.91    5.94
 -11   5  10   69.12    6.25
 -11   5  10   73.63    5.89
  -9  -5  10    0.75    0.44
  -9  -5  10    0.92    0.43
   9  -5 -10    0.95    0.40
  -9   5  10    1.36    0.46
   9   5 -10    0.75    0.39
  -9   5  10    0.69    0.32
   7  -5 -10   35.00    3.05
  -7  -5  10   35.65    3.54
  -7  -5  10   37.16    3.22
   7   5 -10   43.08    3.05
   7   5 -10   34.71    3.02
  -7   5  10   33.69    2.99
  -7   5  10   28.35    3.15
  -5  -5  10    7.92    1.01
   5  -5 -10    6.73    0.89
  -5  -5  10    5.30    1.05
   5   5 -10    7.29    0.86
  -5   5  10    6.47    0.93
   5   5 -10    7.25    0.91
  -5   5  10    7.75    0.86
  -3  -5  10    9.67    1.34
   3  -5 -10    8.79    1.04
  -3  -5  10   10.48    1.14
   3   5 -10    6.56    0.93
  -3   5  10    8.14    1.07
   3   5 -10    8.95    1.06
  -3   5  10    9.53    0.93
  -1  -5  10    3.17    0.56
  -1  -5  10    1.71    0.62
   1  -5 -10    2.30    0.51
   1   5 -10    2.35    0.48
   1   5 -10    2.53    0.56
  -1   5  10    2.15    0.47
  -1   5  10    3.47    0.59
   1  -5  10   60.38    5.80
  -1  -5 -10   57.80    4.95
   1  -5  10   60.42    5.20
   1   5  10   61.64    5.22
  -1   5 -10   63.49    5.03
   1   5  10   60.73    4.94
  -1   5 -10   55.55    4.90
   3  -5  10    0.06    0.29
   3  -5  10    0.36    0.52
  -3  -5 -10    0.45    0.29
   3   5  10    0.20    0.32
  -3   5 -10    0.20    0.29
  -3   5 -10   -0.45    0.31
  -5  -5 -10   28.53    2.46
   5  -5  10   26.47    2.87
   5  -5  10   23.83    2.50
   5   5  10   31.54    2.59
  -5   5 -10   27.95    2.49
   7  -5  10    0.03    0.30
   7  -5  10   -0.04    0.46
  -7  -5 -10    0.26    0.37
  -7   5 -10   -0.19    0.34
   7   5  10    0.23    0.30
   7   5  10    0.35    0.37
  -9  -5 -10    1.58    0.51
   9  -5  10    1.06    0.42
   9  -5  10    1.36    0.61
   9   5  10    1.18    0.56
  -9   5 -10    0.83    0.47
   9   5  10    1.26    0.45
  11  -5  10    2.70    0.76
 -11  -5 -10    4.29    0.74
  11   5  10    5.40    0.93
  11   5  10    3.58    0.68
 -11   5 -10    4.63    0.78
 -13  -5 -10   36.41    2.64
  13  -5  10   25.65    2.99
  13   5  10   27.26    2.91
  13   5  10   26.19    2.59
 -13   5 -10   24.58    2.55
 -15  -5 -10    0.06    0.41
  15  -5  10   -0.02    0.53
 -15   5 -10   -0.05    0.40
  15   5  10    0.22    0.36
  15   5  10   -0.13    0.44
 -17  -5 -10   28.01    2.30
  17  -5  10   23.97    2.60
 -17   5 -10   24.76    2.22
  17   5  10   17.71    2.45
  17   5  10   22.09    2.20
 -19  -5 -10   -0.05    0.48
  19  -5  10    0.46    0.54
  19   5  10    0.46    0.44
  19   5  10    0.66    0.56
 -19   5 -10   -0.50    0.42
  21  -5  10    3.69    1.00
  21   5  10    3.70    0.93
  21   5  10    4.62    0.81
 -21   5 -10    3.11    0.74
  23  -5  10    0.13    0.62
 -23  -5 -10    0.72    0.42
 -23   5 -10    0.15    0.46
  23   5  10    0.04    0.51
 -25  -5 -10   23.03    2.14
  25  -5  10   14.05    2.37
  25   5  10   23.69    2.48
 -25   5 -10   22.26    2.10
  27  -5  10   21.18    2.63
 -27  -5 -10   21.38    2.27
 -27   5 -10   26.50    2.29
  27   5  10   22.18    2.60
  30  -6 -10    1.38    0.61
 -30  -6  10    1.23    0.55
  30   6 -10    1.04    0.51
 -28  -6  10   44.83    4.56
  28  -6 -10   47.95    4.39
  28   6 -10   58.54    4.36
  26  -6 -10    3.39    0.76
 -26  -6  10    3.13    0.76
  26   6 -10    3.59    0.67
 -24  -6  10   38.18    3.63
  24  -6 -10   32.34    3.02
 -24  -6  10   34.61    3.18
  24   6 -10   32.58    2.96
 -24   6  10   33.85    3.20
 -24   6  10   31.08    2.89
 -22  -6  10    4.36    0.90
 -22  -6  10    4.35    0.82
  22  -6 -10    3.16    0.71
  22   6 -10    3.58    0.69
 -22   6  10    3.47    0.62
 -22   6  10    3.84    0.80
 -20  -6  10   41.06    4.26
  20  -6 -10   44.58    3.75
 -20  -6  10   42.95    3.90
  20   6 -10   45.72    3.70
 -20   6  10   43.72    3.96
 -20   6  10   39.30    3.62
 -18  -6  10   11.52    1.62
 -18  -6  10    9.95    1.38
  18  -6 -10   11.02    1.37
 -18   6  10   10.25    1.18
  18   6 -10   15.12    1.32
 -18   6  10   12.33    1.49
 -16  -6  10   84.74    6.88
 -16  -6  10   79.23    7.47
  16  -6 -10   92.59    6.57
 -16   6  10   65.37    6.79
  16   6 -10   74.06    6.47
 -16   6  10   77.81    6.42
  14  -6 -10   22.88    2.18
 -14  -6  10   24.36    2.31
 -14   6  10   26.96    2.33
 -14   6  10   22.88    2.09
  14   6 -10   21.54    2.11
 -12  -6  10   37.22    3.04
  12  -6 -10   34.80    2.87
 -12  -6  10   31.88    3.31
 -12   6  10   30.49    2.79
 -12   6  10   28.33    2.96
  12   6 -10   32.67    2.83
 -10  -6  10    4.26    1.01
  10  -6 -10    8.56    1.00
 -10  -6  10    4.96    0.92
  10   6 -10    8.75    0.95
 -10   6  10    8.35    1.03
 -10   6  10    8.10    0.91
  -8  -6  10   17.15    1.69
  -8  -6  10   14.34    1.88
   8  -6 -10   15.67    1.58
  -8   6  10   19.84    1.71
  -8   6  10   15.69    1.52
   8   6 -10   15.91    1.56
   6  -6 -10   32.23    2.87
  -6  -6  10   32.16    3.01
  -6  -6  10   32.07    3.35
   6   6 -10   31.77    2.85
  -6   6  10   36.64    3.05
  -6   6  10   33.27    2.82
   6   6 -10   32.44    2.84
  -4  -6  10   45.90    3.99
   4  -6 -10   46.61    3.81
  -4  -6  10   42.49    4.43
   4   6 -10   45.35    3.82
  -4   6  10   47.19    3.76
  -4   6  10   45.99    4.00
   4   6 -10   40.16    3.76
  -2  -6  10   40.66    3.50
   2  -6 -10   31.90    2.90
  -2  -6  10   32.25    3.04
   2   6 -10   34.36    2.88
  -2   6  10   32.32    3.06
   2   6 -10   32.35    2.95
  -2   6  10   33.87    2.88
   0  -6 -10   50.29    4.37
   0  -6  10   60.53    5.22
   0  -6  10   49.70    4.60
   0   6  10   48.67    4.60
   0   6 -10   55.54    4.36
   0   6 -10   51.47    4.45
   0   6  10   54.55    4.37
  -2  -6 -10   13.06    1.21
   2  -6  10   11.07    1.26
   2  -6  10   13.40    1.74
   2   6  10   12.63    1.20
  -2   6 -10   11.58    1.34
   2   6  10   10.02    1.31
  -2   6 -10   11.50    1.17
  -4  -6 -10   12.34    1.16
   4  -6  10   11.05    1.57
  -4   6 -10   10.01    1.08
   4   6  10   11.21    1.24
   4   6  10   11.19    1.12
  -4   6 -10   10.28    1.28
   6  -6  10   54.38    4.73
  -6  -6 -10   38.65    3.94
  -6   6 -10   50.98    4.07
   6   6  10   47.60    4.17
  -8  -6 -10   15.63    1.66
   8  -6  10   18.59    2.07
   8   6  10   18.03    1.75
  -8   6 -10   17.25    1.75
  10  -6  10   55.99    5.57
 -10  -6 -10   58.36    4.81
  10   6  10   57.00    4.99
 -10   6 -10   63.21    4.84
  10   6  10   49.28    5.45
 -12  -6 -10   28.08    2.63
  12  -6  10   29.38    3.10
  12   6  10   30.15    2.70
  12   6  10   29.07    3.05
 -12   6 -10   27.06    2.64
 -14  -6 -10   28.04    2.60
  14  -6  10   28.25    3.07
  14   6  10   28.13    2.64
 -14   6 -10   34.05    2.64
  14   6  10   22.44    2.88
 -16  -6 -10    9.06    1.18
  16  -6  10    7.36    1.39
  16   6  10    6.22    1.04
 -16   6 -10   10.47    1.19
  16   6  10   10.50    1.47
  18  -6  10    4.49    1.03
 -18  -6 -10    5.85    0.98
  18   6  10    5.87    0.91
  18   6  10    5.20    1.09
 -18   6 -10    4.16    0.85
  20  -6  10    9.10    1.58
  20   6  10   11.89    1.43
 -20   6 -10   12.43    1.45
  20   6  10   11.03    1.69
 -22  -6 -10   38.52    3.45
  22  -6  10   34.27    3.88
  22   6  10   37.19    3.86
 -22   6 -10   37.66    3.32
  24  -6  10    0.75    0.70
 -24  -6 -10    1.21    0.52
 -24   6 -10    1.06    0.57
  24   6  10    1.66    0.71
  26  -6  10   11.73    2.11
 -26  -6 -10   22.72    1.96
 -26   6 -10   16.99    1.86
  26   6  10   21.22    2.28
 -29  -7  10   33.93    3.39
  29  -7 -10   36.69    3.28
  29   7 -10   36.87    3.19
  27  -7 -10   90.89    9.10
 -27  -7  10  118.67    9.64
  27   7 -10  123.69    9.11
 -25  -7  10   37.72    3.40
 -25  -7  10   42.96    3.77
  25  -7 -10   37.66    3.26
 -25   7  10   33.40    3.10
  25   7 -10   31.02    3.13
 -23  -7  10  101.69    9.05
  23  -7 -10  118.59    8.67
  23   7 -10  100.69    8.54
 -23   7  10   99.03    8.49
  21  -7 -10   45.22    3.46
 -21  -7  10   38.88    3.90
 -21  -7  10   42.71    3.60
 -21   7  10   31.91    3.25
  21   7 -10   37.12    3.33
  19  -7 -10  131.33   11.23
 -19  -7  10  144.75   11.81
 -19  -7  10  129.69   12.84
  19   7 -10  127.38   11.17
 -19   7  10  146.60   11.15
 -19   7  10  147.27   11.83
 -17  -7  10   34.65    3.18
 -17  -7  10   38.93    3.53
  17  -7 -10   32.42    3.00
 -17   7  10   29.42    2.89
  17   7 -10   36.10    2.97
 -17   7  10   32.80    3.15
 -15  -7  10  275.15   22.50
  15  -7 -10  250.91   21.40
 -15  -7  10  298.28   24.50
  15   7 -10  260.81   21.36
 -15   7  10  274.49   22.48
 -15   7  10  244.10   21.29
 -13  -7  10   18.93    2.12
  13  -7 -10   20.61    1.83
 -13  -7  10   19.05    1.91
 -13   7  10   15.36    1.85
 -13   7  10   19.99    1.74
  13   7 -10   18.17    1.76
 -11  -7  10  179.11   16.12
  11  -7 -10  176.24   14.04
 -11  -7  10  141.79   14.71
  11   7 -10  171.26   13.99
 -11   7  10  189.26   13.99
 -11   7  10  185.68   14.74
  -9  -7  10   22.88    2.49
  -9  -7  10   23.76    2.26
   9  -7 -10   21.31    2.12
  -9   7  10   22.02    2.23
  -9   7  10   24.82    2.09
   9   7 -10   23.70    2.10
  -7  -7  10  171.13   14.91
  -7  -7  10  178.48   16.30
   7  -7 -10  178.30   14.20
  -7   7  10  175.56   14.90
  -7   7  10  171.86   14.13
   7   7 -10  180.62   14.17
  -5  -7  10   -0.12    0.44
  -5  -7  10    1.95    0.51
   5  -7 -10    0.88    0.37
  -5   7  10    0.75    0.35
   5   7 -10    0.63    0.36
   5   7 -10    0.72    0.40
  -5   7  10    0.77    0.40
   3  -7 -10  249.55   17.66
  -3  -7  10  211.18   20.23
   3   7 -10  202.28   17.59
   3   7 -10  219.19   17.64
  -3   7  10  217.32   18.51
  -3   7  10  218.78   17.59
  -1  -7  10    2.94    0.82
   1  -7 -10    3.58    0.60
  -1   7  10    2.02    0.47
   1   7 -10    1.87    0.56
   1   7 -10    2.05    0.47
  -1   7  10    2.32    0.55
   1  -7  10  267.17   23.30
  -1  -7 -10  265.77   20.27
  -1   7 -10  230.49   20.28
   1   7  10  250.10   20.22
  -1   7 -10  248.75   20.24
   1   7  10  257.10   21.30
  -3  -7 -10    1.19    0.39
   3  -7  10    0.98    0.60
   3   7  10    0.89    0.41
  -3   7 -10    0.72    0.45
  -3   7 -10    2.00    0.46
   3   7  10    1.23    0.39
   5  -7  10  256.71   23.47
  -5   7 -10  250.64   20.47
   5   7  10  255.17   21.45
   5   7  10  256.80   20.39
  -7  -7 -10    9.53    1.11
   7  -7  10    9.58    1.46
   7   7  10    7.97    1.11
  -7   7 -10    8.54    1.15
  -9  -7 -10  262.00   19.87
   9  -7  10  254.65   22.84
  -9   7 -10  236.91   19.89
   9   7  10  236.98   20.84
  11  -7  10    5.48    1.26
 -11  -7 -10   10.95    1.28
 -11   7 -10   11.49    1.26
  11   7  10   10.73    1.22
 -13  -7 -10  166.51   12.67
  13  -7  10  155.81   14.54
  13   7  10  146.30   14.44
  13   7  10  157.96   13.23
 -13   7 -10  151.29   12.64
  15  -7  10   10.11    1.63
 -15  -7 -10   11.52    1.36
  15   7  10   11.00    1.53
  15   7  10    6.95    1.15
 -15   7 -10   13.08    1.40
  17  -7  10  105.89   10.33
 -17   7 -10  110.47    8.96
  17   7  10  107.50   10.27
  17   7  10  110.69    9.38
  19  -7  10   13.31    1.94
  19   7  10   13.39    1.91
 -19   7 -10   18.08    1.61
  19   7  10   11.23    1.56
  21  -7  10   91.19    8.09
 -21   7 -10   74.59    6.94
  21   7  10   86.38    8.04
 -23  -7 -10   19.77    2.30
  23  -7  10   25.30    2.76
 -23   7 -10   25.90    2.29
  23   7  10   24.24    2.67
 -25  -7 -10   34.77    3.62
  25  -7  10   36.79    4.12
 -25   7 -10   42.25    3.55
  25   7  10   44.64    4.12
  28  -8 -10   77.07    6.04
 -28  -8  10   68.34    6.26
  28   8 -10   67.13    5.89
  26  -8 -10   18.46    1.81
 -26  -8  10   17.14    1.88
 -26  -8  10   16.35    2.20
  26   8 -10   17.25    1.74
 -26   8  10   16.52    1.67
  24  -8 -10   68.68    5.75
 -24  -8  10   71.07    6.61
 -24  -8  10   63.96    6.01
 -24   8  10   65.15    5.63
  24   8 -10   70.55    5.69
 -22  -8  10    6.56    1.06
 -22  -8  10    6.56    1.21
  22  -8 -10    5.13    0.94
 -22   8  10    6.58    0.88
  22   8 -10    6.04    0.93
 -20  -8  10  112.32   11.00
 -20  -8  10  123.74   10.13
  20  -8 -10  126.97    9.66
  20   8 -10  107.95    9.56
 -20   8  10  117.23    9.53
 -18  -8  10   25.21    2.71
 -18  -8  10   25.98    2.47
  18  -8 -10   26.12    2.34
  18   8 -10   23.33    2.26
 -18   8  10   23.45    2.20
  16  -8 -10   92.22    8.14
 -16  -8  10   98.70    8.60
  16   8 -10  107.98    8.14
 -16   8  10   97.61    8.09
 -14  -8  10    8.43    1.37
 -14  -8  10    9.84    1.28
  14  -8 -10    9.62    1.19
  14   8 -10    8.14    1.08
 -14   8  10    9.59    1.07
 -12  -8  10  117.65   10.10
  12  -8 -10   97.64    9.55
 -12  -8  10  126.59   11.07
 -12   8  10  107.04   10.06
  12   8 -10  130.18    9.58
 -12   8  10  127.29    9.55
 -10  -8  10   31.79    3.39
  10  -8 -10   41.57    2.97
 -10   8  10   25.40    2.81
 -10   8  10   34.25    3.06
  10   8 -10   34.19    2.87
   8  -8 -10   91.56    6.91
  -8  -8  10   72.97    7.92
  -8   8  10   82.65    6.84
   8   8 -10   96.68    6.88
  -8   8  10   73.34    7.19
  -6  -8  10   40.93    3.95
   6  -8 -10   35.67    3.31
  -6   8  10   39.17    3.51
  -6   8  10   40.56    3.30
   6   8 -10   37.41    3.30
   4  -8 -10   63.49    5.61
  -4  -8  10   67.64    6.53
  -4   8  10   69.37    5.90
   4   8 -10   66.56    5.57
  -4   8  10   70.55    5.58
  -2  -8  10   52.09    5.35
   2  -8 -10   53.71    4.56
   2   8 -10   55.61    4.54
  -2   8  10   55.01    4.80
  -2   8  10   57.25    4.54
   2   8 -10   51.72    4.59
   0  -8 -10   68.95    5.71
   0  -8  10   66.23    6.68
   0   8  10   80.55    6.04
   0   8 -10   63.86    5.75
   0   8 -10   68.95    5.68
   0   8  10   65.54    5.68
   2  -8  10  117.02   10.95
  -2  -8 -10  119.13    9.44
  -2   8 -10  110.52    9.39
  -2   8 -10  108.23    9.48
   2   8  10  125.21    9.42
   4  -8  10   65.81    5.49
  -4  -8 -10   56.49    4.60
   4   8  10   52.89    4.57
  -4   8 -10   51.10    4.66
   4   8  10   54.51    4.84
  -4   8 -10   52.39    4.55
   6  -8  10   77.47    9.16
   6   8  10  101.17    7.92
  -6   8 -10  106.22    8.03
   6   8  10  101.80    8.36
   8  -8  10   15.24    2.28
  -8  -8 -10   16.58    1.81
  -8   8 -10   21.56    1.92
   8   8  10   22.31    1.95
  10  -8  10   56.25    6.63
 -10  -8 -10   58.89    5.71
 -10   8 -10   80.39    5.83
  10   8  10   80.05    6.05
  12  -8  10   17.85    2.15
 -12  -8 -10   18.25    1.83
 -12   8 -10   20.99    1.86
  12   8  10   15.48    1.82
  14  -8  10   72.76    7.34
 -14  -8 -10   66.94    6.34
 -14   8 -10   82.08    6.39
  14   8  10   81.45    6.63
  16  -8  10    8.56    1.66
  16   8  10   12.07    1.74
 -16   8 -10   13.19    1.51
  16   8  10   13.99    1.43
  18  -8  10   78.91    7.33
  18   8  10   82.11    7.28
  18   8  10   66.51    6.54
  20  -8  10    8.57    1.53
  20   8  10    9.10    1.50
 -20   8 -10   11.04    1.33
  22  -8  10   31.86    3.39
 -22  -8 -10   28.99    2.95
 -22   8 -10   32.61    2.92
  22   8  10   32.18    3.37
  24  -8  10    1.90    0.93
 -24  -8 -10    2.23    0.63
 -24   8 -10    3.61    0.76
  24   8  10    1.64    0.80
  27  -9 -10    0.37    0.46
 -27  -9  10   -0.14    0.49
 -27  -9  10   -0.15    0.44
 -27   9  10   -0.14    0.33
  27   9 -10   -0.28    0.36
 -25  -9  10    0.98    0.70
 -25  -9  10    1.18    0.57
  25  -9 -10    0.98    0.53
  25   9 -10    1.48    0.49
 -25   9  10    1.06    0.46
  23  -9 -10    4.39    0.79
 -23  -9  10    1.96    0.67
 -23  -9  10    3.09    0.83
  23   9 -10    2.75    0.60
 -23   9  10    1.79    0.53
 -21  -9  10    0.82    0.54
  21  -9 -10    0.40    0.43
 -21  -9  10    0.30    0.55
  21   9 -10    0.26    0.38
 -21   9  10   -0.11    0.32
 -19  -9  10    0.22    0.48
  19  -9 -10    0.36    0.43
 -19   9  10    0.33    0.32
  19   9 -10    0.13    0.36
 -17  -9  10    1.33    0.67
  17  -9 -10    2.06    0.57
  17   9 -10    2.44    0.56
 -17   9  10    1.97    0.48
  15  -9 -10    1.64    0.54
 -15  -9  10    1.75    0.71
  15   9 -10    1.21    0.46
 -15   9  10    0.86    0.40
  13  -9 -10    1.01    0.48
 -13  -9  10    1.06    0.54
 -13   9  10    0.55    0.35
  13   9 -10    0.78    0.40
  11  -9 -10    0.34    0.40
 -11  -9  10    0.30    0.55
 -11   9  10    0.08    0.32
  11   9 -10    0.53    0.37
  -9  -9  10    2.97    0.82
   9  -9 -10    1.99    0.53
   9   9 -10    3.12    0.59
  -9   9  10    3.26    0.58
  -7  -9  10   -0.26    0.45
   7  -9 -10   -0.19    0.32
   7   9 -10    0.14    0.30
  -7   9  10    0.45    0.34
  -5  -9  10    0.38    0.58
   5  -9 -10    0.93    0.42
  -5   9  10    0.92    0.47
  -5   9  10    1.18    0.38
   5   9 -10    1.06    0.40
   3  -9 -10    8.69    1.09
  -3  -9  10    7.75    1.37
  -3   9  10   10.40    1.03
   3   9 -10    8.83    1.07
  -3   9  10    8.70    1.16
   1  -9 -10    0.32    0.33
  -1  -9  10    0.70    0.60
  -1   9  10    0.21    0.37
   1   9 -10    0.08    0.32
   1   9 -10    0.16    0.40
  -1   9  10   -0.09    0.30
   1  -9  10    1.93    0.72
  -1  -9 -10    1.36    0.45
  -1   9 -10    1.31    0.45
  -1   9 -10    1.81    0.57
   1   9  10    1.75    0.53
   1   9  10    1.01    0.40
  -3  -9 -10    1.73    0.47
   3  -9  10    1.40    0.72
   3   9  10    1.09    0.49
  -3   9 -10    1.83    0.47
   3   9  10    1.85    0.48
  -3   9 -10    1.59    0.54
   5  -9  10    1.09    0.65
   5   9  10    0.88    0.42
   5   9  10    0.53    0.36
  -5   9 -10   -0.01    0.41
   7  -9  10   -0.08    0.52
   7   9  10   -0.05    0.33
  -7   9 -10    0.01    0.42
  -9  -9 -10    1.72    0.53
   9  -9  10    1.02    0.62
   9   9  10    1.48    0.52
  -9   9 -10    1.20    0.54
 -11  -9 -10   10.80    1.37
  11  -9  10    9.24    1.63
 -11   9 -10   11.64    1.38
  11   9  10   10.71    1.33
 -13  -9 -10   -0.07    0.45
  13  -9  10   -0.27    0.50
  13   9  10    0.47    0.40
 -13   9 -10    0.27    0.45
  15  -9  10    1.98    0.76
 -15   9 -10    2.91    0.70
  15   9  10    3.10    0.72
  17  -9  10    1.54    0.81
  17   9  10    1.84    0.60
 -17   9 -10    2.00    0.62
  19  -9  10    0.62    0.68
 -19  -9 -10    0.58    0.45
 -19   9 -10    0.45    0.49
  21  -9  10   -0.11    0.59
 -21  -9 -10    1.01    0.48
 -21   9 -10    0.65    0.54
 -24 -10  10   37.31    3.80
  24 -10 -10   40.39    3.32
  24  10 -10   33.01    3.15
 -24  10  10   35.62    3.16
 -22 -10  10    1.78    0.71
  22 -10 -10    1.40    0.55
  22  10 -10    1.24    0.47
 -22  10  10    0.58    0.42
  20 -10 -10   88.59    7.66
 -20 -10  10  105.94    8.86
 -20  10  10   88.80    7.54
  20  10 -10   88.63    7.57
  18 -10 -10   15.10    1.63
 -18 -10  10   14.86    2.07
  18  10 -10   17.20    1.60
 -18  10  10   15.13    1.53
 -16 -10  10   79.17    7.42
  16 -10 -10   76.99    6.41
  16  10 -10   74.79    6.33
 -16  10  10   76.25    6.32
 -14 -10  10   54.13    4.78
  14 -10 -10   43.44    4.01
 -14  10  10   41.69    3.91
  14  10 -10   49.91    3.97
  12 -10 -10   58.65    4.84
 -12 -10  10   57.46    5.63
 -12  10  10   51.61    4.75
  12  10 -10   60.53    4.78
  10 -10 -10   45.52    3.88
 -10 -10  10   45.70    4.57
  10  10 -10   45.45    3.86
 -10  10  10   44.08    3.82
   8 -10 -10   43.90    3.86
  -8 -10  10   43.33    4.53
   8  10 -10   42.76    3.79
  -8  10  10   48.52    3.80
   6 -10 -10   19.07    1.78
  -6 -10  10   16.88    2.16
   6  10 -10   18.39    1.76
  -6  10  10   18.48    1.73
   4 -10 -10   91.91    7.58
  -4 -10  10   85.73    8.77
  -4  10  10   98.36    7.57
   4  10 -10   91.59    7.54
  -2 -10  10   73.43    6.87
   2 -10 -10   70.66    5.86
  -2  10  10   69.69    5.82
   2  10 -10   68.66    5.81
   0 -10  10   13.52    2.10
   0 -10 -10   16.90    1.62
   0  10  10   14.89    1.57
   0  10 -10   20.78    1.75
   0  10 -10   15.56    1.58
  -2 -10 -10   14.66    1.46
   2 -10  10   15.01    2.03
   2  10  10   12.83    1.41
  -2  10 -10   14.67    1.44
   2  10  10   14.47    1.53
  -2  10 -10   14.41    1.53
   4 -10  10   42.32    5.61
  -4 -10 -10   63.16    4.88
  -4  10 -10   59.43    4.94
   4  10  10   68.18    5.16
  -4  10 -10   55.46    4.81
   6 -10  10   36.57    3.63
   6  10  10   34.68    3.13
  -6  10 -10   30.63    3.04
   8 -10  10   77.07    7.27
  -8  10 -10   68.74    6.27
   8  10  10   78.64    6.55
 -10 -10 -10  100.06    7.26
  10 -10  10   80.38    8.35
 -10  10 -10   83.13    7.23
  10  10  10   83.92    7.54
  12 -10  10    6.43    1.29
  12  10  10    8.47    1.16
 -12  10 -10    8.93    1.14
  14 -10  10   44.90    4.72
  14  10  10   46.23    4.16
 -14  10 -10   46.33    4.02
  16 -10  10   23.21    2.63
 -16  10 -10   22.19    2.22
  16  10  10   23.04    2.26
 -18 -10 -10   53.49    5.10
  18 -10  10   58.60    5.78
 -18  10 -10   61.05    4.94
 -20 -10 -10    4.72    0.86
  20 -10  10    3.26    0.97
 -20  10 -10    4.46    0.81
 -23 -11  10   82.08    7.47
 -23  11  10   73.08    6.34
  21 -11 -10   22.81    2.20
 -21 -11  10   20.56    2.52
 -21  11  10   20.23    2.04
  21  11 -10   25.81    2.12
  19 -11 -10  104.18    8.36
 -19 -11  10  101.03    9.58
 -19  11  10   97.80    8.24
  17 -11 -10    3.87    0.78
 -17 -11  10    4.68    1.03
  17  11 -10    4.15    0.74
 -17  11  10    3.94    0.70
  15 -11 -10  105.42    9.00
 -15 -11  10  110.36   10.41
  15  11 -10  111.30    8.95
 -15  11  10  110.69    8.93
  13 -11 -10   17.48    1.78
 -13 -11  10   18.44    2.16
 -13  11  10   16.83    1.68
  13  11 -10   18.55    1.74
 -11 -11  10  143.83   13.95
  11  11 -10  157.73   12.10
 -11  11  10  145.26   12.05
  -9 -11  10   11.85    1.70
   9 -11 -10   11.62    1.36
  -9  11  10   10.45    1.24
   9  11 -10    9.36    1.20
   7 -11 -10  157.57   12.03
   7  11 -10  143.98   11.97
  -7  11  10  143.26   11.97
   5 -11 -10    2.28    0.58
  -5 -11  10    2.60    0.80
   5  11 -10    2.54    0.57
  -5  11  10    2.79    0.57
  -3 -11  10  199.66   18.29
   3 -11 -10  197.90   15.90
   3  11 -10  191.48   15.85
  -3  11  10  199.70   15.85
   1 -11 -10    0.32    0.41
  -1 -11  10    0.23    0.61
   1  11 -10    0.24    0.38
  -1  11  10    1.11    0.41
   1 -11  10  162.27   15.76
  -1 -11 -10  177.34   13.70
   1  11  10  183.34   13.67
  -1  11 -10  153.71   13.64
  -3 -11 -10    1.15    0.46
   3 -11  10    1.32    0.73
  -3  11 -10    0.60    0.51
  -3  11 -10    1.67    0.47
   3  11  10    1.13    0.41
   5 -11  10  109.44   11.01
  -5  11 -10  120.04    9.56
   5  11  10  118.77    9.49
   7 -11  10    0.88    0.64
   7  11  10    1.88    0.53
  -7  11 -10    1.84    0.59
  -9 -11 -10   81.40    7.76
   9 -11  10   89.73    8.98
  -9  11 -10  112.69    7.85
  11 -11  10   14.28    2.12
  11  11  10   16.63    1.72
 -11  11 -10   13.96    1.68
  13  11  10   65.43    6.34
 -13  11 -10   80.26    6.12
  15 -11  10   12.64    1.86
 -15  11 -10   11.13    1.43
  17 -11  10   75.22    7.21
 -17 -11 -10   71.08    6.50
 -17  11 -10   75.18    6.21
 -20 -12  10   12.23    1.85
 -20  12  10   13.16    1.36
 -18 -12  10    3.76    1.04
  18 -12 -10    6.95    1.01
 -18  12  10    9.19    0.99
  18  12 -10    4.73    0.84
 -16 -12  10   21.15    2.65
  16 -12 -10   24.66    2.29
 -16  12  10   23.46    2.18
  16  12 -10   25.47    2.22
 -14 -12  10    1.54    0.76
  14 -12 -10    2.82    0.66
 -14  12  10    2.79    0.56
  14  12 -10    2.87    0.59
  12 -12 -10   35.68    3.07
 -12  12  10   32.28    2.99
  12  12 -10   35.22    3.01
  10 -12 -10    9.72    1.26
 -10 -12  10   11.08    1.68
  10  12 -10   12.34    1.19
 -10  12  10    9.15    1.22
   8 -12 -10   18.39    1.75
  -8 -12  10   17.30    2.33
  -8  12  10   17.11    1.68
   8  12 -10   16.32    1.67
  -6 -12  10   21.54    2.58
   6 -12 -10   22.13    2.11
   6  12 -10   20.21    2.06
  -6  12  10   25.26    2.07
   4 -12 -10   34.28    2.62
  -4 -12  10   28.96    3.10
   4  12 -10   25.81    2.50
  -4  12  10   24.96    2.50
   2 -12 -10   34.54    2.83
  -2 -12  10   31.49    3.36
  -2  12  10   30.77    2.77
   2  12 -10   29.04    2.76
   0 -12 -10   23.25    2.04
   0 -12  10   22.19    2.47
   0  12  10   21.80    1.97
   0  12 -10   18.24    1.93
  -2 -12 -10    8.68    1.11
   2 -12  10    7.40    1.43
   2  12  10    7.64    1.03
  -2  12 -10    9.21    1.08
   4 -12  10    8.52    1.44
  -4  12 -10    5.94    1.01
   4  12  10    7.02    0.97
   6 -12  10   12.38    1.83
   6  12  10   13.13    1.33
  -6  12 -10   10.46    1.45
   8 -12  10    3.26    0.94
  -8  12 -10    2.83    0.72
  10 -12  10   23.83    2.72
 -10  12 -10   22.89    2.27
  12 -12  10    7.95    1.45
 -12  12 -10    7.30    1.10
  14 -12  10    5.39    1.22
 -14  12 -10   11.67    1.29
  15 -13 -10   10.19    1.46
 -15 -13  10    8.39    1.67
 -15  13  10   16.25    1.40
  15  13 -10   14.09    1.37
 -13 -13  10    0.48    0.59
  13 -13 -10    0.25    0.41
 -13  13  10    0.47    0.38
  13  13 -10    0.21    0.37
 -11 -13  10   36.06    3.84
  11 -13 -10   33.77    3.20
 -11  13  10   35.08    3.17
  11  13 -10   40.03    3.19
   9 -13 -10    1.53    0.57
  -9 -13  10    0.83    0.63
   9  13 -10    2.51    0.59
  -9  13  10    1.77    0.48
   7 -13 -10   18.55    1.94
  -7 -13  10   20.74    2.42
   7  13 -10   21.02    1.93
  -7  13  10   20.20    1.90
  -5 -13  10    0.10    0.51
   5 -13 -10    0.21    0.39
   5  13 -10    0.43    0.41
  -5  13  10    0.61    0.38
   3 -13 -10   19.58    1.87
  -3 -13  10   19.42    2.28
  -3  13  10   18.63    1.79
   3  13 -10   17.34    1.78
   1 -13 -10    0.26    0.38
  -1 -13  10   -0.11    0.58
  -1  13  10    0.06    0.37
   1  13 -10    0.30    0.41
  -1 -13 -10   19.44    1.96
   1 -13  10   20.20    2.42
   1  13  10   20.56    1.93
  -1  13 -10   20.64    1.91
   3 -13  10   -0.12    0.52
  -3 -13 -10   -0.18    0.37
  -3  13 -10    0.05    0.41
   3  13  10    0.17    0.36
   5 -13  10   13.57    2.01
   5  13  10   14.29    1.49
   7 -13  10    0.50    0.59
  -7  13 -10    0.47    0.46
   9 -13  10    2.31    0.86
  -9  13 -10    4.11    0.80
  11 -13  10    6.57    1.29
 -11  13 -10    4.75    0.89
 -10 -14  10    9.47    1.70
  10 -14 -10   10.81    1.37
 -10  14  10   12.29    1.34
  10  14 -10   11.95    1.31
  -8 -14  10   75.27    7.27
   8 -14 -10   73.15    6.21
  -8  14  10   74.58    6.17
  -6 -14  10   23.27    2.86
   6 -14 -10   26.50    2.39
   6  14 -10   25.33    2.33
  -6  14  10   26.24    2.33
  -4 -14  10   48.00    4.50
   4 -14 -10   42.09    3.74
   4  14 -10   40.11    3.66
  -4  14  10   43.49    3.69
  -2 -14  10   46.65    4.28
   2 -14 -10   34.25    3.49
   2  14 -10   41.39    3.49
  -2  14  10   41.07    3.50
   0 -14  10   32.61    3.64
   0 -14 -10   34.39    3.05
   0  14  10   34.08    3.01
   2 -14  10   49.64    5.35
  -2 -14 -10   55.77    4.58
  -2  14 -10   51.07    4.49
   2  14  10   55.82    4.53
   4 -14  10   25.40    3.03
   4  14  10   29.28    2.55
  32   0 -11    0.20    0.45
 -32   0  11    0.18    0.47
  30   0 -11   -0.47    0.37
 -30   0  11   -0.14    0.42
  28   0 -11    0.72    0.45
 -28   0  11    0.26    0.47
 -26   0  11    0.13    0.45
  26   0 -11   -0.16    0.39
  24   0 -11   -0.47    0.36
 -24   0  11    0.30    0.44
  22   0 -11    0.18    0.39
 -22   0  11    0.32    0.44
 -20   0  11    0.24    0.42
  20   0 -11    0.35    0.41
  18   0 -11   -0.13    0.36
 -18   0  11   -0.46    0.37
  16   0 -11   -0.28    0.34
 -16   0  11    0.12    0.38
 -14   0  11    0.14    0.37
  14   0 -11    0.01    0.35
  12   0 -11    0.27    0.30
 -12   0  11    0.24    0.37
  12   0 -11   -0.09    0.33
 -10   0  11    0.26    0.38
  10   0 -11    0.12    0.28
  10   0 -11    0.12    0.34
  -8   0  11    0.39    0.38
   8   0 -11   -0.08    0.30
   8   0 -11   -0.06    0.28
   6   0 -11    0.09    0.32
   6   0 -11    0.03    0.28
  -6   0  11   -0.71    0.28
   4   0 -11   -0.22    0.27
  -4   0  11    0.28    0.33
   4   0 -11    0.48    0.36
  -2   0  11   -0.11    0.30
   2   0 -11   -0.15    0.26
   2   0 -11    0.26    0.33
   0   0  11    0.01    0.31
   0   0  11   -0.29    0.27
   0   0 -11    0.48    0.34
   0   0 -11    0.10    0.30
  -2   0 -11    0.34    0.30
   2   0  11    0.19    0.34
   2   0  11   -0.20    0.31
  -2   0 -11   -0.30    0.32
  -4   0 -11    0.03    0.34
   4   0  11    0.01    0.36
   4   0  11    0.20    0.31
   6   0  11    0.48    0.31
   6   0  11    0.08    0.40
  -6   0 -11   -0.16    0.35
  -8   0 -11    0.31    0.37
   8   0  11   -0.09    0.29
   8   0  11    0.00    0.40
 -10   0 -11   -0.25    0.35
  10   0  11    0.16    0.40
  10   0  11   -0.38    0.29
 -12   0 -11    0.26    0.39
  12   0  11    0.37    0.35
  12   0  11   -0.33    0.39
 -14   0 -11   -0.14    0.40
  14   0  11    0.15    0.37
  14   0  11   -0.24    0.46
 -16   0 -11   -0.05    0.39
  16   0  11    0.15    0.50
  16   0  11   -0.15    0.34
  18   0  11   -0.16    0.51
 -18   0 -11   -0.19    0.43
  18   0  11   -0.26    0.38
  20   0  11   -0.26    0.35
 -20   0 -11    0.84    0.52
  20   0  11    0.15    0.53
  22   0  11   -0.14    0.39
 -22   0 -11   -0.27    0.44
  22   0  11   -0.21    0.52
  24   0  11   -0.02    0.56
 -24   0 -11    0.00    0.49
 -24   0 -11    0.16    0.38
 -26   0 -11    0.54    0.56
  26   0  11   -0.50    0.51
 -26   0 -11   -0.14    0.42
 -28   0 -11    0.49    0.49
  28   0  11    0.37    0.58
 -33  -1  11    8.63    1.25
  33  -1 -11    6.01    1.05
  33   1 -11    8.87    1.19
 -33   1  11    8.28    1.23
  31  -1 -11   95.10    7.73
 -31  -1  11   76.09    8.05
  31   1 -11  100.64    7.73
 -31   1  11  101.10    8.16
 -29  -1  11    8.04    1.23
  29  -1 -11   10.19    1.27
 -29   1  11    6.86    1.19
  29   1 -11    9.17    1.18
 -27  -1  11   72.19    5.97
  27  -1 -11   53.05    5.58
 -27   1  11   70.08    5.96
  27   1 -11   74.63    5.69
 -25  -1  11   15.60    1.64
  25  -1 -11   15.58    1.56
 -25   1  11   15.11    1.78
  25   1 -11   10.93    1.53
 -23  -1  11   84.36    8.21
  23  -1 -11   99.95    7.84
 -23   1  11  106.61    8.27
  23   1 -11   88.58    7.81
  21  -1 -11   92.80    7.81
 -21  -1  11   94.50    8.21
  21   1 -11   96.36    7.82
  19  -1 -11   64.09    5.02
 -19  -1  11   47.68    5.18
 -19   1  11   64.12    5.28
  19   1 -11   61.88    5.00
  17  -1 -11   49.05    4.44
 -17  -1  11   62.96    4.73
 -17   1  11   49.01    4.68
  17   1 -11   50.07    4.45
 -15  -1  11   87.36    9.11
  15  -1 -11  113.09    8.72
  15   1 -11  107.71    8.71
 -15   1  11  107.16    9.15
 -15   1  11  116.19    8.62
 -13  -1  11   19.97    2.03
  13  -1 -11   22.37    1.96
  13   1 -11   22.38    1.89
  13   1 -11   17.79    1.91
 -13   1  11   20.43    1.82
 -13   1  11   20.35    2.03
  11  -1 -11   65.76    5.26
 -11  -1  11   64.21    5.52
  11   1 -11   58.71    5.23
  11   1 -11   57.87    5.19
 -11   1  11   64.63    5.55
 -11   1  11   66.11    5.16
   9  -1 -11   63.60    5.41
  -9  -1  11   63.75    5.70
   9   1 -11   63.46    5.38
   9   1 -11   65.24    5.42
  -9   1  11   69.97    5.74
   7  -1 -11   90.58    7.68
   7  -1 -11   95.24    7.74
  -7  -1  11   94.27    8.12
   7   1 -11   92.09    7.70
  -7   1  11  101.82    8.15
   7   1 -11   94.05    7.73
   5  -1 -11  106.06    9.07
  -5  -1  11  128.93    9.60
   5  -1 -11  108.70    9.09
   5   1 -11  109.21    9.09
  -5   1  11  107.63    9.56
   5   1 -11  112.37    9.09
  -3  -1  11  105.90    9.71
   3  -1 -11  104.04    8.51
  -3  -1  11  103.86    8.94
   3  -1 -11  110.04    8.53
  -3   1  11  100.98    8.95
   3   1 -11  106.20    8.54
   3   1 -11  102.34    8.51
  -1  -1  11  129.61   11.20
   1  -1 -11  123.61   10.66
  -1  -1  11  136.04   12.16
   1  -1 -11  139.07   10.64
   1   1 -11  131.62   10.63
   1   1 -11  134.24   10.68
  -1   1  11  127.61   11.20
  -1  -1 -11   91.28    7.37
   1  -1  11   92.07    8.47
   1  -1  11   94.00    7.79
  -1  -1 -11   77.81    7.40
  -1   1 -11   93.48    7.44
  -1   1 -11   94.67    7.37
   1   1  11   91.31    7.78
   3  -1  11  286.18   25.71
   3  -1  11  293.78   23.63
  -3  -1 -11  292.66   22.53
  -3   1 -11  289.20   22.53
   3   1  11  243.22   25.61
   3   1  11  284.88   23.63
   5  -1  11   13.13    1.54
  -5  -1 -11   14.32    1.37
   5  -1  11   11.55    1.31
  -5   1 -11   13.05    1.34
   5   1  11   13.86    1.36
   5   1  11   11.12    1.45
   7  -1  11  193.10   16.85
   7  -1  11  187.31   15.43
  -7  -1 -11  181.02   14.72
  -7   1 -11  167.15   14.70
   7   1  11  183.13   15.43
   7   1  11  183.84   16.82
   9  -1  11   19.66    1.61
  -9  -1 -11   14.08    1.54
   9  -1  11   11.77    1.84
   9   1  11   14.67    1.77
   9   1  11   14.55    1.54
  -9   1 -11   15.41    1.57
  11  -1  11   89.66    8.45
 -11  -1 -11  112.46    8.16
  11  -1  11   92.99    9.31
  11   1  11   99.19    9.31
  11   1  11   99.86    8.48
 -11   1 -11   99.66    8.13
  13  -1  11    5.42    0.85
 -13  -1 -11    6.06    0.93
  13  -1  11    6.58    1.16
  13   1  11    5.00    1.08
  13   1  11    7.29    0.93
 -13   1 -11    6.79    0.98
  15  -1  11   83.36    7.22
 -15  -1 -11   80.67    6.93
  15  -1  11   95.12    8.01
 -15   1 -11   80.37    6.93
  15   1  11   90.58    7.24
  15   1  11   71.97    7.91
  17  -1  11    0.03    0.38
  17  -1  11    0.15    0.54
 -17  -1 -11    0.31    0.44
 -17   1 -11   -0.04    0.41
  17   1  11    0.18    0.38
  17   1  11   -0.06    0.47
  19  -1  11   58.65    6.12
  19  -1  11   66.37    6.82
 -19  -1 -11   86.81    6.00
  19   1  11   74.66    6.86
 -19   1 -11   69.22    5.93
  21  -1  11    0.52    0.61
 -21  -1 -11    2.19    0.65
  21  -1  11    1.16    0.50
 -21   1 -11    1.79    0.59
  21   1  11    2.22    0.75
  21   1  11    1.98    0.59
  23  -1  11   30.77    4.07
 -23  -1 -11   44.60    3.66
  23   1  11   40.67    4.19
  23   1  11   43.34    3.71
 -23   1 -11   44.32    3.65
 -25  -1 -11    1.60    0.52
  25  -1  11    0.66    0.63
 -25  -1 -11    0.22    0.54
  25   1  11    0.42    0.58
 -25   1 -11    0.59    0.56
 -25   1 -11    0.85    0.51
 -27  -1 -11   57.70    4.71
  27  -1  11   50.87    5.22
 -27   1 -11   55.64    4.57
  27   1  11   54.55    5.22
 -27   1 -11   41.97    4.64
 -32  -2  11   19.36    1.94
  32  -2 -11   16.43    1.84
 -32   2  11   18.04    1.98
  32   2 -11   17.24    1.82
  30  -2 -11   82.42    6.80
 -30  -2  11   81.64    7.13
 -30   2  11   73.49    7.13
  30   2 -11   86.90    6.79
  28  -2 -11   16.04    1.71
 -28  -2  11   17.12    1.81
  28   2 -11   11.91    1.70
 -28   2  11   21.19    1.90
  26  -2 -11  141.35   11.85
 -26  -2  11  153.49   12.46
 -26   2  11  139.13   12.45
  26   2 -11  147.28   11.84
  24  -2 -11   21.04    1.93
 -24  -2  11   20.98    2.04
 -24   2  11   18.34    1.98
  24   2 -11   16.94    1.85
  22  -2 -11  233.69   16.96
 -22  -2  11  196.01   17.79
 -22   2  11  203.64   17.79
  22   2 -11  206.18   16.93
 -20  -2  11    8.78    1.24
  20  -2 -11    9.04    1.17
  20   2 -11   10.16    1.23
 -20   2  11    8.69    1.26
  18  -2 -11  235.00   19.45
  18   2 -11  253.64   19.46
 -18   2  11  237.38   19.33
 -18   2  11  241.37   20.43
 -16  -2  11   10.14    1.19
  16  -2 -11    7.28    1.05
 -16   2  11    9.70    0.94
  16   2 -11    6.38    1.01
 -16   2  11    8.89    1.16
 -14  -2  11  201.76   20.37
  14  -2 -11  243.79   19.43
  14   2 -11  263.50   19.44
 -14   2  11  238.83   19.32
 -14   2  11  262.66   20.41
 -12  -2  11    4.54    0.76
  12  -2 -11    3.86    0.69
  12   2 -11    3.28    0.64
 -12   2  11    3.55    0.57
 -12   2  11    3.21    0.69
  12   2 -11    3.98    0.63
 -10  -2  11  311.94   27.35
  10  -2 -11  324.49   26.07
  10   2 -11  296.23   26.00
  10   2 -11  324.31   26.05
 -10   2  11  339.89   27.39
 -10   2  11  357.96   25.99
   8  -2 -11   26.58    2.15
  -8  -2  11   23.75    2.23
   8   2 -11   22.55    2.11
   8   2 -11   22.80    2.12
  -8   2  11   21.56    2.04
  -8   2  11   23.47    2.25
   6  -2 -11  425.40   35.77
  -6  -2  11  430.29   40.79
  -6  -2  11  448.21   37.58
   6   2 -11  432.96   35.74
  -6   2  11  474.03   35.71
  -6   2  11  447.39   37.58
   6   2 -11  482.59   35.78
   4  -2 -11    8.50    0.89
  -4  -2  11    6.34    0.88
   4  -2 -11    4.75    0.77
  -4  -2  11    5.02    0.92
   4   2 -11    7.07    0.85
  -4   2  11    6.53    0.90
   4   2 -11    5.64    0.81
   2  -2 -11  412.38   31.20
  -2  -2  11  318.02   32.72
   2  -2 -11  437.23   31.20
  -2  -2  11  381.08   35.58
  -2   2  11  399.20   32.76
   2   2 -11  400.39   31.18
   0  -2  11    9.74    1.29
   0  -2 -11    9.70    0.98
   0  -2 -11    7.73    1.02
   0  -2  11    7.34    1.04
   0   2  11    9.57    1.11
   0   2 -11    8.06    0.96
   0   2 -11    9.94    1.11
   2  -2  11  255.93   23.71
  -2  -2 -11  257.81   20.71
  -2  -2 -11  261.40   20.76
   2  -2  11  251.82   21.77
  -2   2 -11  264.57   20.78
  -2   2 -11  255.13   20.67
   2   2  11  267.69   21.80
  -4  -2 -11   25.77    2.23
   4  -2  11   24.46    2.54
   4  -2  11   23.23    2.28
   4   2  11   22.36    2.47
   4   2  11   26.02    2.29
  -4   2 -11   25.01    2.25
  -6  -2 -11  168.45   13.42
   6  -2  11  166.31   15.37
   6  -2  11  174.41   14.06
   6   2  11  160.52   15.29
  -6   2 -11  161.85   13.43
   6   2  11  164.83   14.07
   8  -2  11   51.37    5.03
  -8  -2 -11   50.68    4.36
   8  -2  11   48.94    4.51
   8   2  11   54.33    5.01
   8   2  11   53.29    4.55
  -8   2 -11   49.45    4.36
  10  -2  11  129.77   12.30
  10  -2  11  132.43   11.22
  10   2  11  163.64   12.37
 -10   2 -11  109.00   10.70
  10   2  11  130.11   11.23
  12  -2  11   18.27    1.70
  12  -2  11   15.61    1.96
 -12  -2 -11   18.32    1.73
  12   2  11   15.45    1.96
 -12   2 -11   16.06    1.67
  12   2  11   16.76    1.71
  14  -2  11  155.40   11.78
  14  -2  11  127.75   12.89
 -14  -2 -11  139.78   11.25
 -14   2 -11  135.09   11.25
  14   2  11  132.27   11.74
  14   2  11  136.66   12.89
 -16  -2 -11   62.20    5.27
  16  -2  11   59.66    5.43
  16   2  11   64.14    5.45
 -16   2 -11   61.59    5.25
 -18  -2 -11  101.72    8.69
  18  -2  11   98.91    9.93
  18  -2  11  120.05    9.09
 -18   2 -11   96.35    8.65
  18   2  11  108.03    9.07
  18   2  11  105.82    9.97
  20  -2  11   63.99    5.42
  20  -2  11   53.75    4.79
 -20  -2 -11   46.66    4.58
 -20   2 -11   42.52    4.56
  20   2  11   56.57    5.34
  20   2  11   60.72    4.81
  22  -2  11   63.99    5.62
 -22  -2 -11   55.47    4.82
 -22   2 -11   54.25    4.79
  22   2  11   52.04    5.49
  22   2  11   53.53    4.94
  24  -2  11   45.04    4.78
 -24  -2 -11   48.40    4.20
 -24  -2 -11   46.03    4.27
 -24   2 -11   46.96    4.17
  24   2  11   54.43    4.87
 -24   2 -11   44.58    4.30
  26  -2  11   54.83    5.35
 -26  -2 -11   53.94    4.80
  26   2  11   51.69    5.35
 -26   2 -11   50.34    4.63
 -26   2 -11   56.32    4.98
  31  -3 -11   27.99    2.65
 -31  -3  11   27.71    2.76
 -31   3  11   32.01    2.85
  31   3 -11   26.06    2.59
 -29  -3  11    0.22    0.44
  29  -3 -11    0.36    0.49
  29   3 -11    0.15    0.41
 -29   3  11    0.75    0.52
 -27  -3  11   35.23    2.88
  27  -3 -11   30.54    2.73
 -27   3  11   22.78    2.81
  27   3 -11   29.40    2.68
 -25  -3  11    7.66    1.13
  25  -3 -11    8.29    1.12
 -25   3  11    6.43    1.12
  25   3 -11    7.63    1.08
 -23  -3  11   16.44    1.89
  23  -3 -11   19.74    1.86
 -23   3  11   17.10    1.94
  23   3 -11   19.56    1.81
 -21  -3  11   23.68    2.18
  21  -3 -11   19.19    2.01
  21   3 -11   20.26    2.00
 -21   3  11   20.53    2.13
 -19  -3  11   36.77    3.27
  19  -3 -11   38.78    3.13
 -19   3  11   36.24    3.27
 -19   3  11   33.74    2.98
  19   3 -11   29.93    3.05
  17  -3 -11   48.06    4.33
 -17  -3  11   60.68    4.62
  17   3 -11   49.17    4.32
 -17   3  11   49.04    4.24
 -17   3  11   48.74    4.55
  15  -3 -11   66.06    5.47
 -15  -3  11   60.83    5.72
  15   3 -11   65.62    5.45
 -15   3  11   69.74    5.39
 -15   3  11   63.45    5.74
  13  -3 -11   61.60    5.17
 -13  -3  11   57.47    5.41
 -13   3  11   68.00    5.07
 -13   3  11   55.15    5.39
  13   3 -11   64.15    5.16
 -11  -3  11   37.14    3.90
 -11  -3  11   38.95    3.60
  11  -3 -11   39.82    3.44
  11   3 -11   37.90    3.41
 -11   3  11   46.38    3.66
 -11   3  11   39.41    3.34
   9  -3 -11   26.45    2.30
  -9  -3  11   26.84    2.63
  -9  -3  11   24.54    2.40
   9   3 -11   27.74    2.28
  -9   3  11   22.91    2.18
  -9   3  11   26.11    2.42
   9   3 -11   23.32    2.25
  -7  -3  11   50.24    4.96
  -7  -3  11   57.41    5.43
   7  -3 -11   55.95    4.74
  -7   3  11   65.40    4.70
  -7   3  11   58.30    4.99
   7   3 -11   54.93    4.72
   7   3 -11   54.06    4.72
   5  -3 -11   11.21    1.21
  -5  -3  11   10.05    1.38
  -5  -3  11    8.87    1.19
  -5   3  11    9.10    1.04
   5   3 -11   12.95    1.19
   5   3 -11   10.07    1.09
  -5   3  11   11.50    1.22
   3  -3 -11    6.83    0.81
  -3  -3  11    5.26    0.92
  -3  -3  11    4.87    0.77
  -3   3  11    4.88    0.68
   3   3 -11    6.23    0.76
  -3   3  11    5.69    0.80
   3   3 -11    3.34    0.70
   1  -3 -11   15.70    1.65
  -1  -3  11   18.11    1.76
  -1  -3  11   16.62    1.96
   1  -3 -11   21.28    1.71
  -1   3  11   16.45    1.75
   1   3 -11   19.24    1.74
   1   3 -11   18.28    1.64
  -1  -3 -11   11.79    1.19
  -1  -3 -11   11.89    1.23
   1  -3  11   12.89    1.28
   1  -3  11    8.32    1.46
  -1   3 -11   11.36    1.32
  -1   3 -11   13.00    1.16
   1   3  11   11.57    1.27
  -3  -3 -11   54.21    5.07
   3  -3  11   65.54    5.90
   3  -3  11   64.86    5.32
  -3   3 -11   55.15    5.08
   3   3  11   65.59    5.33
  -5  -3 -11   11.00    1.25
   5  -3  11   10.01    1.17
   5  -3  11    9.35    1.48
  -5   3 -11   11.25    1.30
   5   3  11   11.89    1.22
  -7  -3 -11   52.65    4.02
   7  -3  11   48.78    4.15
   7  -3  11   49.41    4.63
   7   3  11   36.67    4.11
  -7   3 -11   50.26    4.03
   7   3  11   45.15    4.53
   9  -3  11   14.33    1.87
  -9  -3 -11   16.67    1.52
   9  -3  11   14.13    1.46
   9   3  11   11.60    1.42
   9   3  11   13.87    1.66
  -9   3 -11   14.81    1.49
  11  -3  11   65.55    4.92
 -11  -3 -11   60.26    4.71
  11  -3  11   50.40    5.40
 -11   3 -11   56.19    4.71
  11   3  11   44.20    5.31
  13  -3  11    3.24    0.87
 -13  -3 -11    3.77    0.73
  13  -3  11    3.58    0.68
 -13   3 -11    4.12    0.74
  13   3  11    2.62    0.78
  13   3  11    2.92    0.64
  15  -3  11   68.76    6.03
 -15  -3 -11   68.29    5.81
  15   3  11   69.60    6.67
 -15   3 -11   68.51    5.79
  15   3  11   69.71    6.03
  17  -3  11    1.50    0.52
  17  -3  11    2.11    0.76
 -17  -3 -11    1.97    0.60
  17   3  11    1.00    0.61
 -17   3 -11    0.95    0.51
  17   3  11    1.18    0.47
  19  -3  11   62.30    5.72
  19  -3  11   49.28    5.08
 -19  -3 -11   59.40    4.95
  19   3  11   49.70    5.05
  19   3  11   59.98    5.69
 -19   3 -11   68.46    4.96
  21  -3  11    0.16    0.56
 -21  -3 -11   -0.41    0.42
 -21   3 -11   -0.15    0.45
  21   3  11    0.45    0.52
  21   3  11    0.37    0.44
  23  -3  11    7.74    1.38
  23   3  11    5.62    0.96
 -23   3 -11    8.97    1.18
  23   3  11    9.49    1.40
 -25  -3 -11   -0.34    0.34
  25  -3  11   -0.12    0.57
  25   3  11    0.76    0.61
 -25   3 -11    0.05    0.44
 -27  -3 -11   17.26    1.89
  27  -3  11   18.37    2.22
 -27   3 -11   17.84    2.07
  27   3  11   20.06    2.27
  32  -4 -11    3.52    0.79
  32   4 -11    2.38    0.66
 -32   4  11    4.08    0.92
  30  -4 -11    9.76    1.36
 -30  -4  11    8.86    1.35
 -30   4  11   10.58    1.51
  30   4 -11   13.27    1.42
 -28  -4  11    6.78    1.11
  28  -4 -11    8.30    1.11
 -28   4  11    6.56    1.13
  28   4 -11    7.94    1.09
  26  -4 -11   19.45    1.93
 -26  -4  11   21.58    2.02
 -26   4  11   15.74    2.11
  26   4 -11   18.95    1.89
  24  -4 -11    4.04    0.78
 -24  -4  11    3.69    0.78
  24   4 -11    2.65    0.64
 -24   4  11    3.92    0.81
  22  -4 -11   24.09    2.39
 -22  -4  11   21.06    2.48
 -22   4  11   26.27    2.53
  22   4 -11   32.01    2.42
  20  -4 -11    0.40    0.41
 -20  -4  11    0.57    0.46
 -20   4  11    0.03    0.29
  20   4 -11    0.11    0.36
 -20   4  11   -0.17    0.36
 -18  -4  11   48.03    4.28
  18  -4 -11   45.35    4.08
  18   4 -11   49.19    4.06
 -18   4  11   49.04    3.99
 -18   4  11   44.81    4.27
 -16  -4  11    0.44    0.43
  16  -4 -11    0.10    0.38
 -16   4  11    0.30    0.40
  16   4 -11    0.65    0.40
 -16   4  11    0.60    0.33
 -14  -4  11   73.45    6.60
  14  -4 -11   76.01    6.29
 -14  -4  11   80.38    7.21
  14   4 -11   79.99    6.27
 -14   4  11   75.07    6.20
 -14   4  11   69.49    6.59
  12  -4 -11    5.50    0.78
 -12  -4  11    4.23    0.79
 -12  -4  11    4.81    0.88
  12   4 -11    4.23    0.69
 -12   4  11    3.28    0.72
 -12   4  11    4.52    0.66
  10  -4 -11   15.88    1.74
 -10  -4  11   16.55    1.83
 -10  -4  11   17.54    2.01
 -10   4  11   19.66    1.89
 -10   4  11   18.96    1.68
  10   4 -11   22.17    1.78
   8  -4 -11    4.24    0.71
  -8  -4  11    3.78    0.73
  -8  -4  11    5.53    0.93
  -8   4  11    3.82    0.60
   8   4 -11    3.69    0.68
   8   4 -11    4.60    0.69
  -8   4  11    4.37    0.74
  -6  -4  11   17.09    1.84
  -6  -4  11   17.37    1.66
   6  -4 -11   16.40    1.57
  -6   4  11   12.63    1.45
   6   4 -11   18.34    1.56
  -6   4  11   17.32    1.66
   6   4 -11   15.01    1.55
   4  -4 -11   12.01    1.27
  -4  -4  11   12.54    1.64
  -4  -4  11   13.49    1.36
   4   4 -11   13.70    1.27
  -4   4  11   10.98    1.31
   4   4 -11   15.26    1.35
  -4   4  11   10.13    1.20
  -2  -4  11   13.12    1.76
  -2  -4  11   14.88    1.45
   2  -4 -11   13.20    1.35
  -2   4  11   15.64    1.34
  -2   4  11   12.78    1.42
   2   4 -11   12.54    1.47
   2   4 -11   13.17    1.32
   0  -4 -11    0.31    0.31
   0  -4  11    0.25    0.34
   0  -4  11   -0.04    0.42
   0   4  11    0.55    0.36
   0   4 -11    0.27    0.28
   0   4 -11    0.58    0.39
   2  -4  11   18.77    2.16
   2  -4  11   20.07    1.91
  -2  -4 -11   22.13    1.82
  -2  -4 -11   19.28    1.83
  -2   4 -11   21.26    1.77
   2   4  11   20.25    1.92
  -2   4 -11   15.42    1.83
   4  -4  11    1.65    0.47
  -4  -4 -11    1.12    0.42
   4  -4  11    1.85    0.65
  -4   4 -11    1.84    0.53
   4   4  11    1.79    0.47
  -6  -4 -11   16.09    1.42
   6  -4  11   15.09    1.39
   6  -4  11    8.84    1.61
   6   4  11   12.85    1.39
  -6   4 -11   12.16    1.45
   8  -4  11   16.46    1.36
   8  -4  11   12.57    1.69
  -8  -4 -11   12.94    1.32
  -8   4 -11    7.48    1.27
   8   4  11   10.19    1.54
   8   4  11   11.78    1.30
  10  -4  11   51.42    4.96
 -10  -4 -11   48.04    4.23
  10  -4  11   51.73    4.39
  10   4  11   41.98    4.37
 -10   4 -11   55.41    4.30
  10   4  11   50.58    4.86
 -12  -4 -11   24.88    2.15
  12  -4  11   28.11    2.20
  12  -4  11   20.62    2.48
  12   4  11   23.06    2.46
  12   4  11   16.06    2.08
 -12   4 -11   22.74    2.13
  14  -4  11   24.16    2.46
 -14  -4 -11   28.86    2.48
  14  -4  11   22.00    2.82
 -14   4 -11   30.36    2.49
  14   4  11   24.09    2.79
  14   4  11   27.81    2.49
  16  -4  11   -0.01    0.54
 -16  -4 -11    0.08    0.45
 -16   4 -11    0.42    0.43
  16   4  11    0.58    0.40
  16   4  11    0.73    0.55
 -18  -4 -11   17.19    1.73
  18  -4  11   16.34    2.15
  18   4  11   16.60    1.65
  18   4  11   10.97    1.93
 -18   4 -11   16.81    1.69
 -20  -4 -11    4.80    0.94
  20  -4  11    7.35    1.33
  20   4  11    3.59    0.84
  20   4  11    8.44    1.32
 -20   4 -11    7.72    1.06
  22  -4  11    8.94    1.42
  22   4  11    8.65    1.45
  22   4  11    8.19    1.15
 -22   4 -11    8.07    1.20
 -24  -4 -11   12.73    1.40
  24  -4  11   12.24    1.87
 -24   4 -11   11.67    1.50
  24   4  11   13.06    1.82
 -26  -4 -11    2.49    0.64
  26  -4  11    1.37    0.78
  26   4  11    1.62    0.72
 -26   4 -11    1.71    0.63
 -31  -5  11   62.85    5.82
  31  -5 -11   68.08    5.58
 -29  -5  11   18.98    2.21
  29  -5 -11   21.13    2.17
  29   5 -11   24.73    2.15
 -29   5  11   23.90    2.35
  27  -5 -11  112.58    9.66
 -27  -5  11  120.86   10.15
  27   5 -11  118.91    9.62
 -27   5  11  117.01   10.17
 -25  -5  11   44.87    3.73
  25  -5 -11   39.07    3.55
  25   5 -11   36.60    3.48
 -25   5  11   40.28    3.75
 -23  -5  11  140.95   11.98
  23  -5 -11  144.01   11.41
 -23   5  11  135.92   11.98
  23   5 -11  137.95   11.37
  21  -5 -11   48.78    4.38
 -21  -5  11   50.63    4.61
  21   5 -11   54.11    4.38
 -21   5  11   51.50    4.27
 -21   5  11   49.63    4.61
 -19  -5  11  115.12    9.60
  19  -5 -11  113.85    9.11
 -19   5  11   98.30    9.56
 -19   5  11  120.74    9.03
  19   5 -11  105.79    9.06
  17  -5 -11   79.50    6.53
 -17  -5  11   73.68    7.44
 -17  -5  11   75.15    6.84
 -17   5  11   71.58    6.82
  17   5 -11   90.88    6.53
 -17   5  11   79.08    6.43
 -15  -5  11   83.43    7.97
  15  -5 -11   87.23    6.98
 -15  -5  11   89.70    7.33
 -15   5  11   87.38    6.88
 -15   5  11   78.26    7.30
  15   5 -11   79.27    6.93
 -13  -5  11   46.75    3.95
  13  -5 -11   47.73    3.77
 -13  -5  11   42.15    4.28
 -13   5  11   45.31    3.65
 -13   5  11   42.44    3.92
  13   5 -11   36.42    3.66
 -11  -5  11  154.32   12.61
  11  -5 -11  129.87   10.99
 -11  -5  11  133.07   11.55
  11   5 -11  134.76   10.97
 -11   5  11  129.47   11.53
 -11   5  11  132.65   10.91
  -9  -5  11  107.85   10.08
  -9  -5  11  113.18    9.23
   9  -5 -11  105.90    8.78
  -9   5  11  106.42    8.72
  -9   5  11  102.91    9.22
   9   5 -11  109.22    8.77
   7  -5 -11   91.56    8.35
  -7  -5  11   97.87    9.61
  -7  -5  11  100.33    8.80
  -7   5  11  117.31    8.82
   7   5 -11   99.14    8.35
   7   5 -11  106.46    8.34
  -7   5  11  104.64    8.32
   5  -5 -11  145.93   11.87
  -5  -5  11  131.70   13.56
  -5  -5  11  153.98   12.47
   5   5 -11  174.59   11.85
   5   5 -11  151.68   11.87
  -5   5  11  123.14   11.77
  -5   5  11  146.51   12.46
  -3  -5  11   58.42    5.02
   3  -5 -11   59.67    4.79
  -3  -5  11   56.16    5.56
   3   5 -11   56.65    4.74
   3   5 -11   56.39    4.81
  -3   5  11   55.83    4.73
   1  -5 -11  144.69   11.89
  -1  -5  11  139.08   13.68
  -1  -5  11  154.65   12.49
   1   5 -11  146.96   11.86
   1   5 -11  145.80   11.93
  -1   5  11  140.20   12.49
  -1   5  11  157.55   11.87
   1  -5  11   97.80    9.87
   1  -5  11  104.28    8.98
  -1  -5 -11  107.05    8.56
   1   5  11  105.33    8.52
  -1   5 -11  113.61    8.52
   1   5  11  100.59    8.98
  -3  -5 -11  192.24   15.00
   3  -5  11  157.01   17.17
   3  -5  11  184.13   15.74
  -3   5 -11  199.06   15.06
   3   5  11  198.27   15.76
   5  -5  11   25.74    2.75
  -5  -5 -11   19.79    2.23
   5  -5  11   29.46    2.39
  -5   5 -11   23.56    2.31
   5   5  11   27.75    2.40
   7  -5  11  155.91   13.21
   7  -5  11  145.22   14.46
  -7  -5 -11  159.70   12.63
   7   5  11  161.93   13.24
  -9  -5 -11   15.15    1.59
   9  -5  11   15.01    2.06
   9   5  11   14.69    1.60
  -9   5 -11   17.31    1.63
 -11  -5 -11  194.08   15.63
  11  -5  11  180.34   17.92
 -11   5 -11  191.49   15.65
  11   5  11  194.07   17.86
  11   5  11  206.55   16.40
  13  -5  11    8.41    1.50
 -13  -5 -11   10.24    1.28
  13   5  11   12.00    1.59
 -13   5 -11   10.07    1.28
  13   5  11    9.34    1.23
 -15  -5 -11  118.83    9.75
  15  -5  11  116.27   11.19
  15   5  11  110.84   11.12
 -15   5 -11  121.34    9.74
  15   5  11  124.72   10.17
  17  -5  11   11.69    1.88
 -17  -5 -11   16.06    1.61
  17   5  11   17.43    1.61
 -17   5 -11   14.44    1.66
  17   5  11   10.93    1.82
 -19  -5 -11   82.03    6.82
  19  -5  11   88.48    7.91
 -19   5 -11   79.24    6.77
  19   5  11   67.87    7.75
  19   5  11   87.92    7.08
  21  -5  11    2.99    0.92
  21   5  11    2.76    0.67
 -21   5 -11    3.28    0.73
  21   5  11    2.42    0.84
  23  -5  11   99.44    9.17
 -23   5 -11   93.03    7.93
  23   5  11   94.50    9.12
 -25  -5 -11    0.13    0.41
  25  -5  11   -0.21    0.57
  25   5  11   -0.06    0.60
 -25   5 -11    0.01    0.44
 -30  -6  11   57.29    5.81
  30  -6 -11   69.33    5.62
  30   6 -11   70.47    5.55
 -28  -6  11    6.49    1.06
  28  -6 -11    4.96    0.93
  28   6 -11    5.96    0.91
  26  -6 -11   88.73    8.56
 -26  -6  11  108.99    9.03
  26   6 -11  114.55    8.56
  24  -6 -11   10.40    1.35
 -24  -6  11    8.61    1.29
  24   6 -11    9.12    1.20
 -24   6  11   13.03    1.49
  22  -6 -11  123.73    9.73
 -22  -6  11  104.40   10.17
  22   6 -11  129.03    9.69
 -22   6  11  119.88   10.23
 -22   6  11  115.53    9.61
 -20  -6  11    7.90    1.33
  20  -6 -11    5.81    0.97
 -20  -6  11    9.45    1.20
 -20   6  11    5.86    0.87
 -20   6  11    6.89    1.08
  20   6 -11    6.44    0.93
  18  -6 -11  139.98   11.21
 -18  -6  11  134.38   12.82
 -18  -6  11  140.11   11.78
  18   6 -11  140.51   11.16
 -18   6  11  135.09   11.75
 -18   6  11  134.16   11.11
 -16  -6  11    0.97    0.50
  16  -6 -11    0.01    0.39
 -16  -6  11    0.06    0.49
 -16   6  11    0.35    0.32
 -16   6  11    0.31    0.44
  16   6 -11    0.53    0.40
 -14  -6  11  106.72    8.94
  14  -6 -11   86.07    8.44
 -14  -6  11  106.67    9.74
 -14   6  11  104.59    8.91
 -14   6  11  101.09    8.40
  14   6 -11  115.93    8.46
 -12  -6  11    7.14    1.20
 -12  -6  11    5.38    0.98
  12  -6 -11    7.12    0.97
 -12   6  11    6.26    0.85
 -12   6  11    7.04    1.01
  12   6 -11    9.26    0.99
 -10  -6  11  216.93   23.15
  10  -6 -11  256.88   20.30
 -10  -6  11  265.38   21.31
 -10   6  11  265.43   20.23
 -10   6  11  256.98   21.30
  -8  -6  11    0.54    0.47
   8  -6 -11    0.65    0.40
  -8  -6  11    0.29    0.41
   8   6 -11    0.75    0.37
  -8   6  11    0.59    0.34
  -8   6  11    0.51    0.42
   6  -6 -11  182.23   15.19
  -6  -6  11  182.21   17.40
  -6   6  11  185.92   15.94
  -6   6  11  197.98   15.13
   6   6 -11  195.86   15.19
   6   6 -11  185.78   15.15
  -4  -6  11    2.52    0.75
  -4  -6  11    2.23    0.56
   4  -6 -11    1.61    0.49
   4   6 -11    3.39    0.58
  -4   6  11    2.78    0.61
  -4   6  11    2.23    0.48
   4   6 -11    3.05    0.61
  -2  -6  11  160.47   14.34
   2  -6 -11  153.85   13.65
  -2  -6  11  188.94   15.74
   2   6 -11  160.26   13.68
  -2   6  11  167.48   14.36
   2   6 -11  172.61   13.64
  -2   6  11  185.09   13.63
   0  -6  11   18.15    1.90
   0  -6 -11   20.01    1.84
   0  -6  11   16.45    2.17
   0   6 -11   19.92    1.79
   0   6  11   20.97    1.91
   0   6 -11   20.33    1.90
   0   6  11   20.14    1.80
  -2  -6 -11  216.28   17.87
   2  -6  11  226.55   20.54
   2   6  11  214.85   18.76
  -2   6 -11  211.11   17.90
  -2   6 -11  227.30   17.83
   2   6  11  239.09   17.85
   4  -6  11   24.13    2.94
  -4  -6 -11   34.56    2.56
   4   6  11   28.09    2.63
  -4   6 -11   25.22    2.54
  -6  -6 -11  160.17   11.18
   6  -6  11  127.96   12.83
  -6   6 -11  129.09   11.15
   6   6  11  131.75   11.66
  -8  -6 -11   33.73    3.00
   8  -6  11   27.44    3.42
   8   6  11   36.92    3.12
  -8   6 -11   36.57    3.05
 -10  -6 -11   84.25    7.03
  10  -6  11   80.02    8.12
 -10   6 -11   92.68    7.08
  10   6  11   82.13    7.33
 -12  -6 -11   33.45    3.04
  12  -6  11   32.14    3.56
  12   6  11   38.24    3.16
 -12   6 -11   31.18    3.04
 -14  -6 -11   68.37    5.99
  14  -6  11   67.93    6.93
  14   6  11   79.16    6.93
 -14   6 -11   72.69    5.99
  14   6  11   68.51    6.21
  16  -6  11   38.63    3.90
 -16  -6 -11   31.22    3.28
 -16   6 -11   38.39    3.31
  16   6  11   37.89    3.40
  16   6  11   38.57    3.83
 -18  -6 -11   61.60    5.48
  18  -6  11   78.26    6.39
 -18   6 -11   60.62    5.43
  18   6  11   58.82    6.25
  20  -6  11   15.85    2.10
  20   6  11   18.63    1.97
  20   6  11   10.05    1.53
 -20   6 -11   17.35    1.65
  22   6  11   37.84    4.06
 -22   6 -11   40.67    3.52
  24  -6  11   25.33    3.20
 -24  -6 -11   35.86    2.89
 -24   6 -11   32.34    2.79
  24   6  11   24.19    3.16
  29  -7 -11    1.53    0.62
 -29  -7  11    0.96    0.55
  29   7 -11    2.18    0.58
  27  -7 -11    2.96    0.74
 -27  -7  11    4.21    0.82
  27   7 -11    3.81    0.73
 -25  -7  11    0.11    0.44
  25  -7 -11   -0.04    0.42
  25   7 -11    0.13    0.38
 -25   7  11    0.14    0.36
 -23  -7  11   13.76    1.58
  23  -7 -11    8.98    1.32
  23   7 -11   12.04    1.37
 -23   7  11   12.01    1.33
  21  -7 -11    0.59    0.46
 -21  -7  11   -0.22    0.46
 -21  -7  11   -0.15    0.38
  21   7 -11    0.59    0.43
 -21   7  11    0.06    0.32
 -19  -7  11    4.96    0.98
  19  -7 -11    4.57    0.81
 -19  -7  11    4.56    0.87
 -19   7  11    4.30    0.68
  19   7 -11    3.34    0.69
 -19   7  11    5.33    0.91
  17  -7 -11    1.78    0.55
 -17  -7  11    0.97    0.62
 -17  -7  11    1.60    0.59
  17   7 -11    0.89    0.44
 -17   7  11    1.22    0.43
 -17   7  11    1.38    0.58
  15  -7 -11    5.04    0.90
 -15  -7  11    7.15    1.23
 -15  -7  11    6.31    1.02
  15   7 -11    7.60    0.95
 -15   7  11    7.01    0.89
 -15   7  11    6.94    1.06
 -13  -7  11    1.04    0.53
  13  -7 -11    1.08    0.47
 -13  -7  11    1.34    0.62
 -13   7  11    1.11    0.40
 -13   7  11    1.25    0.53
  13   7 -11    0.87    0.42
 -11  -7  11    7.36    1.13
  11  -7 -11    8.48    1.11
 -11  -7  11   10.40    1.45
 -11   7  11    9.88    1.20
  11   7 -11    7.63    1.04
 -11   7  11    9.42    1.03
  -9  -7  11    1.55    0.65
  -9  -7  11    2.27    0.61
   9  -7 -11    1.94    0.54
  -9   7  11    1.10    0.48
   9   7 -11    1.87    0.52
  -9   7  11    1.99    0.47
  -7  -7  11    0.50    0.45
   7  -7 -11    0.67    0.39
  -7  -7  11    0.21    0.48
  -7   7  11    0.64    0.37
   7   7 -11    0.14    0.34
  -7   7  11    0.88    0.43
  -5  -7  11    0.40    0.52
   5  -7 -11    0.84    0.43
  -5   7  11    0.32    0.36
   5   7 -11    0.71    0.39
  -5   7  11    0.74    0.36
  -3  -7  11   11.12    1.48
   3  -7 -11    7.66    1.07
   3   7 -11   10.06    1.19
   3   7 -11    8.57    1.04
  -3   7  11    9.27    1.17
  -3   7  11    9.45    1.06
  -1  -7  11    9.85    1.58
   1  -7 -11   12.18    1.22
  -1   7  11   10.44    1.15
   1   7 -11   11.48    1.34
  -1   7  11    9.25    1.29
   1   7 -11   14.01    1.20
   1  -7  11    0.68    0.57
  -1  -7 -11    0.45    0.36
   1   7  11    1.02    0.46
  -1   7 -11    0.65    0.37
  -1   7 -11    0.74    0.47
   1   7  11    1.43    0.40
   3  -7  11   11.27    1.60
   3   7  11    9.37    1.26
   3   7  11   10.96    1.12
  -3   7 -11   10.90    1.31
   5  -7  11    9.51    1.44
  -5  -7 -11    6.50    0.99
  -5   7 -11    9.30    1.18
   5   7  11    9.06    1.11
  -7  -7 -11    4.11    0.74
   7  -7  11    3.45    0.94
  -7   7 -11    3.92    0.77
   7   7  11    4.06    0.74
  -9  -7 -11    2.31    0.63
   9  -7  11    3.42    0.92
  -9   7 -11    3.26    0.72
   9   7  11    2.78    0.62
  11  -7  11    3.12    0.98
 -11  -7 -11    7.48    1.01
  11   7  11    5.48    0.88
 -11   7 -11    9.31    1.09
 -13  -7 -11    1.49    0.56
  13  -7  11    0.34    0.48
 -13   7 -11    1.16    0.51
  13   7  11    1.98    0.54
 -15  -7 -11    5.14    0.92
  15  -7  11    6.04    1.20
  15   7  11    5.37    0.87
 -15   7 -11    3.59    0.79
  17  -7  11    0.83    0.62
 -17   7 -11    0.63    0.50
  17   7  11    0.87    0.51
  19  -7  11    3.05    0.91
  19   7  11    2.15    0.61
  19   7  11    3.52    0.90
 -19   7 -11    2.98    0.71
  21  -7  11    0.61    0.61
  21   7  11    0.43    0.59
 -21   7 -11   -0.38    0.42
  23  -7  11   -0.21    0.56
 -23  -7 -11    0.40    0.43
 -23   7 -11    0.64    0.53
  23   7  11    0.07    0.55
  26  -8 -11   43.01    3.75
 -26  -8  11   43.15    3.93
  26   8 -11   42.27    3.67
 -26   8  11   40.37    3.64
  24  -8 -11    3.10    0.73
 -24  -8  11    3.01    0.77
  24   8 -11    2.63    0.66
 -24   8  11    3.02    0.61
  22  -8 -11   60.36    4.95
 -22  -8  11   56.77    5.21
 -22  -8  11   59.23    5.71
 -22   8  11   54.89    4.82
 -20  -8  11   -0.45    0.51
  20  -8 -11    0.31    0.45
 -20  -8  11    0.65    0.51
 -20   8  11    0.46    0.37
  20   8 -11    0.47    0.42
 -18  -8  11   51.42    5.05
 -18  -8  11   56.25    5.55
  18  -8 -11   57.69    4.81
 -18   8  11   58.49    4.73
  18   8 -11   57.46    4.77
 -16  -8  11    0.41    0.43
  16  -8 -11    0.16    0.38
 -16  -8  11    0.83    0.59
 -16   8  11    0.46    0.35
  16   8 -11    0.28    0.37
  14  -8 -11   61.22    5.10
 -14  -8  11   61.72    5.95
 -14  -8  11   53.70    5.36
  14   8 -11   67.15    5.08
 -14   8  11   57.92    5.02
 -12  -8  11    0.45    0.51
  12  -8 -11    0.61    0.41
 -12   8  11    0.14    0.32
  12   8 -11   -0.11    0.35
 -12   8  11   -0.01    0.40
 -10  -8  11   48.51    5.41
  10  -8 -11   58.70    4.72
 -10   8  11   58.65    4.95
  10   8 -11   55.17    4.65
   8  -8 -11    1.90    0.55
  -8  -8  11    2.36    0.73
  -8   8  11    3.33    0.58
  -8   8  11    2.51    0.62
   8   8 -11    2.55    0.54
   6  -8 -11  119.07    8.85
  -6  -8  11  104.61   10.17
  -6   8  11  114.77    9.28
   6   8 -11  102.46    8.77
  -6   8  11   99.62    8.76
   4  -8 -11    2.62    0.57
  -4  -8  11    2.41    0.77
   4   8 -11    2.74    0.56
  -4   8  11    3.09    0.65
  -4   8  11    2.98    0.56
   2  -8 -11  102.98    8.85
  -2  -8  11  108.93   10.28
  -2   8  11  112.02    8.83
   2   8 -11  109.69    8.91
   2   8 -11  104.53    8.82
  -2   8  11  113.84    9.32
   0  -8 -11    4.39    0.73
   0  -8  11    4.80    1.02
   0   8  11    4.93    0.69
   0   8 -11    3.29    0.72
   0   8 -11    4.99    0.72
   0   8  11    3.77    0.71
  -2  -8 -11  142.82   10.99
   2  -8  11  132.87   12.67
  -2   8 -11  125.41   10.90
   2   8  11  140.08   10.93
   2   8  11  134.63   11.52
   4  -8  11   21.49    2.51
   4   8  11   22.38    2.16
  -4   8 -11   22.15    2.12
   4   8  11   22.01    2.01
  -6  -8 -11   92.03    7.26
   6  -8  11   95.13    8.46
   6   8  11   78.70    7.58
  -8  -8 -11   11.90    1.28
   8  -8  11    7.92    1.47
  -8   8 -11    9.85    1.28
   8   8  11    8.94    1.21
  10  -8  11   37.74    4.07
 -10  -8 -11   37.94    3.48
 -10   8 -11   42.02    3.53
  10   8  11   40.49    3.61
 -12  -8 -11   15.90    1.62
  12  -8  11   15.09    2.12
 -12   8 -11   15.44    1.61
  12   8  11   13.18    1.57
 -14  -8 -11   12.90    1.54
  14  -8  11   10.03    1.75
 -14   8 -11   13.12    1.51
  14   8  11   13.93    1.47
  16  -8  11   16.19    2.07
 -16   8 -11   11.12    1.47
  18  -8  11   13.15    2.22
 -18   8 -11   20.71    1.90
  18   8  11   18.82    1.86
  20  -8  11   24.54    2.63
 -20   8 -11   20.25    2.16
  22  -8  11   11.85    1.98
 -22  -8 -11   17.96    1.73
 -25  -9  11   23.12    2.39
  25   9 -11   25.17    2.19
 -25   9  11   21.19    2.11
  23  -9 -11  104.72    7.84
 -23  -9  11   91.11    8.23
 -23  -9  11   91.04    8.96
  23   9 -11   94.45    7.72
 -23   9  11   88.75    7.67
 -21  -9  11   15.60    2.22
  21  -9 -11   17.01    1.79
 -21   9  11   19.19    1.69
  21   9 -11   16.33    1.70
 -19  -9  11   80.51    8.59
  19  -9 -11   97.75    7.53
 -19   9  11   85.25    7.41
  19   9 -11   98.22    7.47
 -17  -9  11   55.46    5.26
  17  -9 -11   52.43    4.53
 -17   9  11   49.90    4.41
  17   9 -11   53.56    4.46
  15  -9 -11   85.71    7.54
 -15  -9  11   85.50    8.72
  15   9 -11   88.55    7.49
 -15   9  11  103.74    7.50
  13  -9 -11  124.14   10.24
 -13  -9  11  127.74   11.79
  13   9 -11  123.43   10.18
 -13   9  11  126.05   10.16
 -11  -9  11   62.23    7.32
  11  -9 -11   85.34    6.42
 -11   9  11   78.33    6.32
  11   9 -11   79.38    6.34
  -9  -9  11  116.05   10.35
   9  -9 -11  117.96    8.98
   9   9 -11  110.65    8.89
  -9   9  11   95.44    8.85
  -7  -9  11   91.80    8.64
   7  -9 -11   90.20    7.45
  -7   9  11   89.34    7.41
   7   9 -11   85.83    7.39
  -7   9  11   96.27    7.93
   5  -9 -11  123.51    9.18
  -5  -9  11  105.41   10.57
  -5   9  11  104.20    9.62
  -5   9  11  114.89    9.13
   5   9 -11  111.85    9.13
   3  -9 -11   70.73    5.72
  -3  -9  11   80.39    6.72
  -3   9  11   62.76    5.63
   3   9 -11   64.57    5.66
  -1  -9  11  130.33   12.88
   1  -9 -11  152.32   11.23
   1   9 -11  132.54   11.12
   1   9 -11  141.96   11.23
  -1   9  11  140.27   11.13
  -1   9  11  129.17   11.74
   1  -9  11   18.53    2.32
  -1  -9 -11   17.36    1.65
   1   9  11   20.01    1.75
   1   9  11   17.22    1.61
  -1   9 -11   14.48    1.59
  -1   9 -11   13.58    1.75
   3  -9  11   50.37    5.24
  -3   9 -11   55.50    4.52
   3   9  11   54.06    4.69
   3   9  11   50.37    4.41
   5  -9  11   73.35    7.36
   5   9  11   76.44    6.64
  -5   9 -11   82.88    6.39
   5   9  11   71.95    6.25
  -7  -9 -11  127.94   11.16
   7  -9  11  138.40   12.89
  -7   9 -11  135.31   11.21
   7   9  11  147.73   11.75
   9  -9  11    9.87    1.63
  -9  -9 -11    9.51    1.24
   9   9  11   10.18    1.26
  -9   9 -11    9.22    1.26
 -11  -9 -11   90.18    7.77
  11  -9  11   86.95    8.92
  11   9  11  113.27    8.19
 -11   9 -11   85.01    7.75
  13  -9  11    8.83    1.54
 -13  -9 -11    9.80    1.31
 -13   9 -11   10.77    1.29
  13   9  11    7.99    1.19
  15  -9  11   95.54    9.52
  15   9  11  102.16    8.64
 -15   9 -11  100.71    8.27
  17  -9  11    4.31    1.13
  17   9  11    5.64    0.90
 -17   9 -11    4.71    0.88
  19  -9  11  114.73   10.93
 -21  -9 -11    0.07    0.41
  24 -10 -11    5.65    1.06
 -24 -10  11    4.72    1.08
 -24  10  11    5.75    0.83
 -22 -10  11   36.53    3.60
  22 -10 -11   34.24    3.08
 -22  10  11   36.22    2.96
  22  10 -11   28.98    2.96
 -20 -10  11    0.64    0.56
  20 -10 -11   -0.05    0.43
  20  10 -11    0.51    0.41
 -20  10  11    0.59    0.38
  18 -10 -11   49.23    4.30
 -18 -10  11   49.63    4.98
 -18  10  11   48.28    4.19
  18  10 -11   50.80    4.22
  16 -10 -11    0.76    0.46
 -16 -10  11    0.32    0.57
  16  10 -11    0.53    0.42
 -16  10  11    0.18    0.35
  14 -10 -11   79.60    6.49
 -14 -10  11   75.00    7.47
 -14  10  11   70.21    6.38
  14  10 -11   85.34    6.43
  12 -10 -11    1.03    0.48
 -12 -10  11    0.49    0.61
 -12  10  11    2.08    0.47
  12  10 -11    0.51    0.41
 -10 -10  11   82.97    8.07
  10 -10 -11   81.00    6.96
 -10  10  11   84.96    6.90
  10  10 -11   86.04    6.93
  -8 -10  11    2.04    0.81
   8 -10 -11    1.26    0.51
  -8  10  11    1.72    0.46
   8  10 -11    2.01    0.53
  -6 -10  11  102.67    8.64
   6 -10 -11   86.17    7.38
  -6  10  11   86.09    7.33
   6  10 -11   87.09    7.35
  -4 -10  11    0.30    0.59
   4 -10 -11    1.46    0.52
   4  10 -11    1.25    0.43
  -4  10  11    1.11    0.44
  -2 -10  11   64.47    7.00
   2 -10 -11   81.88    6.06
   2  10 -11   69.61    5.97
  -2  10  11   72.70    5.99
   0 -10 -11    5.68    0.85
   0 -10  11    4.09    1.05
   0  10  11    3.85    0.71
   0  10 -11    7.38    0.87
   2 -10  11   34.44    4.02
  -2 -10 -11   37.34    3.42
  -2  10 -11   38.41    3.41
  -2  10 -11   40.43    3.51
   2  10  11   40.25    3.40
   2  10  11   46.39    3.66
   4 -10  11    0.52    0.62
   4  10  11    0.81    0.40
  -4  10 -11    0.92    0.50
   4  10  11    0.17    0.41
   6 -10  11   68.37    6.63
   6  10  11   60.63    5.89
  -6  10 -11   74.23    5.71
  -8 -10 -11   10.25    1.24
   8 -10  11    7.85    1.48
   8  10  11    8.17    1.19
  -8  10 -11   11.02    1.29
 -10 -10 -11   28.78    2.75
  10 -10  11   35.71    3.37
 -10  10 -11   27.64    2.76
  10  10  11   30.40    2.88
  12 -10  11    4.12    1.04
 -12 -10 -11    5.20    0.90
 -12  10 -11    5.38    0.92
  12  10  11    4.05    0.79
  14 -10  11   14.47    2.10
  14  10  11   12.50    1.70
 -14  10 -11   18.43    1.70
  16 -10  11   13.71    2.24
  16  10  11   22.71    1.98
 -16  10 -11   17.53    1.88
  18 -10  11   25.60    3.00
 -18  10 -11   27.63    2.55
 -21 -11  11    0.15    0.59
  21 -11 -11   -0.19    0.37
  21  11 -11    0.15    0.37
 -21  11  11    0.41    0.36
  19 -11 -11    8.42    1.19
 -19 -11  11    8.70    1.47
  19  11 -11   10.26    1.15
 -19  11  11    7.93    1.09
  17 -11 -11    3.93    0.76
 -17 -11  11    3.86    0.98
  17  11 -11    3.34    0.67
 -17  11  11    3.11    0.63
 -15 -11  11   -0.17    0.50
  15 -11 -11    0.71    0.47
  15  11 -11   -0.37    0.35
 -15  11  11    0.58    0.38
  13 -11 -11    8.53    1.11
 -13 -11  11    4.72    1.19
 -13  11  11    6.55    0.92
  13  11 -11    7.46    0.98
  11 -11 -11    7.25    1.10
 -11 -11  11    9.16    1.50
 -11  11  11    7.19    1.01
  11  11 -11    9.43    1.07
   9 -11 -11    1.48    0.51
  -9 -11  11    1.70    0.77
  -9  11  11    1.58    0.46
   9  11 -11    1.07    0.46
   7 -11 -11    0.12    0.37
  -7 -11  11   -0.08    0.54
  -7  11  11    0.16    0.35
   7  11 -11    0.36    0.39
  -5 -11  11    2.63    0.87
   5 -11 -11    3.75    0.74
  -5  11  11    3.49    0.62
   5  11 -11    2.46    0.61
  -3 -11  11    0.32    0.56
   3 -11 -11   -0.17    0.33
  -3  11  11    0.32    0.35
   3  11 -11    0.44    0.39
   1 -11 -11   14.34    1.59
  -1 -11  11   18.70    2.00
   1  11 -11   14.68    1.56
  -1  11  11   16.17    1.55
  -1 -11 -11    0.84    0.44
   1 -11  11    1.14    0.61
   1  11  11    1.13    0.43
  -1  11 -11    1.50    0.50
   3 -11  11    4.99    1.06
   3  11  11    3.71    0.70
  -3  11 -11    5.04    0.89
   5 -11  11    4.16    1.01
  -5  11 -11    2.82    0.71
   5  11  11    1.94    0.53
   7 -11  11    0.47    0.61
  -7  11 -11    0.11    0.44
   9 -11  11    0.21    0.51
  -9 -11 -11    0.49    0.45
   9  11  11    0.30    0.43
  -9  11 -11    0.63    0.51
  11 -11  11    4.93    1.13
 -11  11 -11    4.38    0.86
  11  11  11    4.97    0.89
  13 -11  11    2.11    0.85
  13  11  11    1.29    0.54
 -13  11 -11    1.22    0.58
  15 -11  11    8.03    1.46
 -15  11 -11   10.26    1.22
  15  11  11    6.29    1.07
 -18 -12  11   83.96    8.49
  18 -12 -11   88.39    7.36
 -18  12  11   91.02    7.26
  16 -12 -11    0.41    0.43
 -16 -12  11   -0.43    0.46
 -16  12  11    0.42    0.35
  16  12 -11    0.24    0.41
 -14 -12  11   98.49    9.62
  14 -12 -11  103.27    8.34
 -14  12  11   98.85    8.25
  14  12 -11  101.90    8.26
 -12 -12  11    1.49    0.77
  12 -12 -11    1.13    0.53
 -12  12  11    1.90    0.52
  12  12 -11    1.01    0.45
 -10 -12  11  100.84    9.17
  10 -12 -11   93.33    7.86
  10  12 -11  101.44    7.79
 -10  12  11   86.46    7.77
  -8 -12  11    5.51    1.20
   8 -12 -11    4.95    0.83
   8  12 -11    4.72    0.78
  -8  12  11    5.06    0.76
  -6 -12  11   49.35    6.06
   6 -12 -11   76.29    5.36
  -6  12  11   62.48    5.20
   6  12 -11   61.78    5.20
  -4 -12  11    0.64    0.65
   4 -12 -11    1.31    0.51
   4  12 -11    1.49    0.48
  -4  12  11    1.50    0.48
   2 -12 -11   79.23    6.70
  -2 -12  11   79.92    7.83
   2  12 -11   82.33    6.67
   0 -12 -11   13.67    1.46
   0 -12  11   14.59    1.91
   0  12 -11    8.62    1.22
   0  12  11   12.25    1.34
   2  12  11   60.21    5.06
   4 -12  11   12.51    1.83
  -4  12 -11   13.68    1.57
   4  12  11   10.30    1.30
   6 -12  11   77.10    7.36
  -6  12 -11   70.12    6.28
   6  12  11   78.04    6.24
   8 -12  11   17.98    2.37
  -8 -12 -11   14.65    1.87
  -8  12 -11   21.35    1.89
  10 -12  11   57.84    6.20
 -10  12 -11   66.80    5.34
  12 -12  11   12.44    1.80
 -13 -13  11   23.75    2.85
  13 -13 -11   24.97    2.41
 -13  13  11   26.23    2.32
  13  13 -11   25.29    2.32
 -11 -13  11   39.80    5.02
  11 -13 -11   56.13    4.37
 -11  13  11   55.33    4.29
  11  13 -11   48.64    4.25
   9 -13 -11   38.85    3.23
  -9 -13  11   35.67    3.85
   9  13 -11   33.37    3.15
  -9  13  11   37.11    3.16
   7 -13 -11   36.85    3.23
  -7 -13  11   29.11    3.73
  -7  13  11   37.46    3.17
   7  13 -11   39.11    3.15
  -5 -13  11   62.04    5.60
   5 -13 -11   47.78    4.68
  -5  13  11   59.02    4.68
   5  13 -11   53.93    4.65
  -3 -13  11   35.98    3.65
   3 -13 -11   30.42    2.99
  -3  13  11   34.90    2.96
   1 -13 -11   86.94    6.84
  -1 -13  11   88.61    7.99
  -1  13  11   84.48    6.77
   1  13 -11   71.00    6.74
   1 -13  11   25.23    2.84
  -1 -13 -11   24.96    2.33
  -1  13 -11   22.26    2.25
   1  13  11   26.29    2.27
   3 -13  11   63.30    5.48
   3  13  11   47.74    4.55
   5 -13  11   13.43    1.97
   5  13  11   12.58    1.45
   7 -13  11   59.27    6.03
  -7  13 -11   61.96    5.20
  -9  13 -11    5.06    0.90
  -4 -14  11   13.26    1.91
   4  14 -11   11.56    1.30
  -4  14  11   10.14    1.26
  -2 -14  11    5.71    1.37
   2 -14 -11    9.03    1.18
   2  14 -11    8.21    1.06
  -2  14  11    7.86    1.04
   0 -14 -11    1.06    0.54
   0  14  11    1.14    0.46
   0  14 -11    1.54    0.51
  32   0 -12   54.76    4.17
 -32   0  12   40.23    4.30
  30   0 -12   97.48    8.25
 -30   0  12  101.94    8.71
  28   0 -12   61.60    4.62
 -28   0  12   45.48    4.76
  26   0 -12  166.62   12.08
 -26   0  12  130.02   12.62
 -24   0  12  112.76    8.94
  24   0 -12   93.80    8.45
 -22   0  12  115.98    9.38
  22   0 -12  100.88    8.87
 -20   0  12  202.94   15.93
  20   0 -12  172.22   15.10
  18   0 -12  144.17   11.63
 -18   0  12  141.35   12.22
 -16   0  12  130.13   12.25
  16   0 -12  158.23   11.71
  14   0 -12  145.76   11.14
 -14   0  12  129.02   11.74
  14   0 -12  138.07   11.20
  12   0 -12   86.18    6.87
  12   0 -12   75.82    6.89
 -12   0  12   89.45    7.30
  10   0 -12   57.20    4.78
  10   0 -12   56.41    4.75
   8   0 -12  373.04   28.50
  -8   0  12  325.52   29.90
   8   0 -12  370.72   28.46
   6   0 -12    3.08    0.58
  -6   0  12    2.22    0.56
   6   0 -12    2.58    0.55
   4   0 -12  333.99   28.13
  -4   0  12  347.27   29.56
   4   0 -12  375.77   28.16
   2   0 -12   11.08    1.21
  -2   0  12   12.45    1.32
   2   0 -12   11.87    1.26
   0   0 -12  264.07   21.07
   0   0  12  254.94   22.10
   0   0 -12  269.11   21.02
   2   0  12   71.93    6.56
  -2   0 -12   80.94    6.33
   2   0  12   76.43    7.18
   4   0  12  415.33   39.66
   4   0  12  453.08   36.50
  -4   0 -12  438.67   34.77
   6   0  12   26.84    2.40
   6   0  12   22.48    2.65
  -6   0 -12   26.59    2.35
   8   0  12   83.73    8.06
  -8   0 -12   81.86    7.04
   8   0  12   89.88    7.37
  10   0  12   13.90    1.95
 -10   0 -12   14.38    1.61
  10   0  12   18.33    1.65
 -12   0 -12  180.71   16.27
  12   0  12  200.92   17.07
  12   0  12  226.53   18.69
  14   0  12    0.92    0.45
  14   0  12    0.70    0.59
 -14   0 -12    0.66    0.48
  16   0  12  215.78   17.90
 -16   0 -12  227.85   17.13
  16   0  12  190.90   19.54
  18   0  12    0.51    0.42
  18   0  12    0.33    0.53
 -18   0 -12    0.09    0.45
 -20   0 -12  120.95    9.91
  20   0  12  119.49   11.35
  22   0  12    0.75    0.62
  22   0  12    0.19    0.39
 -22   0 -12    0.54    0.51
 -24   0 -12   79.93    7.05
  24   0  12   90.22    8.11
 -24   0 -12   81.87    7.32
 -26   0 -12   14.79    1.65
  26   0  12   14.29    2.06
  31  -1 -12    0.04    0.42
 -31  -1  12    0.15    0.46
  31   1 -12   -0.17    0.40
 -31   1  12    0.51    0.48
 -29  -1  12   71.05    6.02
  29  -1 -12   62.18    5.69
  29   1 -12   69.12    5.70
 -29   1  12   67.80    6.00
 -27  -1  12    0.86    0.52
  27  -1 -12    0.56    0.48
 -27   1  12    0.14    0.47
  27   1 -12    0.48    0.46
 -25  -1  12   62.67    5.00
  25  -1 -12   55.45    4.71
  25   1 -12   44.92    4.65
 -25   1  12   58.81    4.99
  23  -1 -12   -0.03    0.40
 -23  -1  12    0.56    0.45
 -23   1  12    0.36    0.47
  23   1 -12   -0.11    0.38
  21  -1 -12   37.88    3.52
 -21  -1  12   48.02    3.77
 -21   1  12   39.25    3.73
  21   1 -12   37.13    3.52
  19  -1 -12    0.77    0.49
 -19  -1  12    0.61    0.48
  19   1 -12   -0.07    0.39
 -19   1  12    1.04    0.51
  17  -1 -12  107.44    9.82
 -17  -1  12  122.58   10.37
 -17   1  12  111.32   10.32
  17   1 -12  142.47    9.89
  15  -1 -12   -0.10    0.34
 -15  -1  12    0.15    0.37
 -15   1  12   -0.19    0.26
 -15   1  12    0.36    0.38
  15   1 -12    0.18    0.39
  13  -1 -12   90.38    7.62
 -13  -1  12   94.15    8.02
 -13   1  12   98.47    7.54
  13   1 -12   80.09    7.57
 -13   1  12   92.50    8.05
  13   1 -12  101.66    7.65
  11  -1 -12    0.66    0.38
 -11  -1  12   -0.09    0.36
  11   1 -12    0.57    0.40
 -11   1  12    0.50    0.44
  11   1 -12    0.47    0.37
   9  -1 -12  158.43   12.37
   9  -1 -12  138.20   12.30
  -9  -1  12  149.49   13.01
  -9   1  12  151.59   13.00
   9   1 -12  160.55   12.37
   9   1 -12  159.25   12.35
   7  -1 -12    6.78    0.88
   7  -1 -12    7.05    0.92
  -7  -1  12    6.63    0.96
   7   1 -12    6.94    0.91
   7   1 -12    6.97    0.92
  -7   1  12    5.98    0.93
   5  -1 -12   76.87    7.08
   5  -1 -12   90.80    7.11
  -5   1  12   88.48    7.48
   5   1 -12   90.85    7.12
  -3  -1  12    2.56    0.58
   3  -1 -12    2.88    0.55
   3  -1 -12    2.88    0.57
   3   1 -12    1.98    0.49
   3   1 -12    2.49    0.59
  -3   1  12    2.24    0.57
   1  -1 -12   43.24    3.39
   1  -1 -12   36.45    3.32
  -1  -1  12   38.17    3.51
  -1   1  12   38.25    3.52
   1   1 -12   40.20    3.32
   1   1 -12   38.43    3.37
   1  -1  12    7.89    1.15
  -1  -1 -12    7.49    0.97
   1  -1  12    7.09    0.98
  -1   1 -12    7.94    1.03
   1   1  12    6.93    1.01
   3  -1  12   78.17    7.09
   3  -1  12   83.85    7.77
   3   1  12   84.96    7.11
  -5  -1 -12   73.78    6.20
   5  -1  12   63.90    6.41
   5  -1  12   75.28    7.09
  -5   1 -12   84.90    6.23
   5   1  12   79.67    6.48
   5   1  12   72.25    7.05
   7  -1  12   56.20    4.87
  -7  -1 -12   57.30    4.68
   7  -1  12   50.28    5.33
   7   1  12   52.04    4.84
   7   1  12   59.53    5.37
  -7   1 -12   56.30    4.69
   9  -1  12   28.09    2.48
  -9  -1 -12   22.44    2.39
   9  -1  12   26.23    2.79
   9   1  12   25.21    2.46
  -9   1 -12   30.75    2.47
   9   1  12   24.70    2.75
  11  -1  12   49.06    5.09
 -11  -1 -12   52.02    4.41
  11  -1  12   53.44    4.56
 -11   1 -12   48.17    4.39
  11   1  12   53.88    5.06
 -13  -1 -12   16.77    1.65
  13  -1  12   17.87    1.66
  13  -1  12   13.84    1.97
  13   1  12   16.58    1.62
  13   1  12   16.25    1.86
 -13   1 -12   10.29    1.57
  15  -1  12   48.90    4.09
  15  -1  12   38.13    4.49
 -15  -1 -12   50.51    3.97
  15   1  12   43.13    4.53
  17  -1  12   51.09    4.98
 -17  -1 -12   51.71    4.29
  17  -1  12   47.52    4.41
  17   1  12   46.03    4.40
  17   1  12   53.00    4.99
 -17   1 -12   48.74    4.29
  19  -1  12   18.59    1.97
  19  -1  12   23.18    2.42
 -19  -1 -12   23.67    2.05
 -19   1 -12   20.22    2.02
  19   1  12   22.18    2.38
  19   1  12   15.13    1.95
 -21  -1 -12   16.58    1.79
  21  -1  12   16.10    2.24
  21  -1  12   17.13    1.82
  21   1  12   14.93    2.15
 -21   1 -12   18.75    1.82
  23  -1  12    4.18    1.11
 -23  -1 -12    6.40    1.05
 -23   1 -12    9.80    1.21
  23   1  12    7.48    1.06
  23   1  12    6.87    1.28
  25  -1  12   25.97    2.84
 -25  -1 -12   21.86    2.41
 -25   1 -12   25.65    2.48
  25   1  12   25.40    2.83
 -25   1 -12   26.64    2.47
  32  -2 -12    1.69    0.63
  32   2 -12    3.61    0.72
 -32   2  12    1.41    0.67
 -30  -2  12    0.63    0.50
  30  -2 -12    0.78    0.50
 -30   2  12    1.08    0.59
  30   2 -12    0.63    0.49
 -28  -2  12    1.51    0.61
  28  -2 -12    1.72    0.61
  28   2 -12    1.35    0.57
 -28   2  12    1.45    0.64
  26  -2 -12    3.18    0.69
 -26  -2  12    2.72    0.73
  26   2 -12    2.51    0.65
 -26   2  12    2.60    0.70
  24  -2 -12   -0.55    0.39
 -24  -2  12   -0.23    0.40
 -24   2  12    0.14    0.46
  24   2 -12    0.12    0.39
 -22  -2  12    1.65    0.56
  22  -2 -12    1.96    0.56
 -22   2  12    1.43    0.59
  22   2 -12    0.06    0.39
  20  -2 -12    3.95    0.73
 -20  -2  12    3.75    0.74
 -20   2  12    3.66    0.78
  20   2 -12    3.74    0.72
 -18  -2  12    1.43    0.56
  18  -2 -12    1.73    0.54
 -18   2  12    2.28    0.60
  18   2 -12    1.87    0.54
  16  -2 -12   10.41    1.17
 -16  -2  12    8.05    1.14
  16   2 -12    7.98    1.08
 -16   2  12    7.32    0.94
 -16   2  12    7.28    1.09
  14  -2 -12    1.32    0.51
 -14  -2  12    1.32    0.51
 -14   2  12    1.93    0.43
 -14   2  12    1.62    0.54
  14   2 -12    1.31    0.48
  12  -2 -12   39.53    3.05
 -12  -2  12   32.90    3.13
 -12   2  12   27.00    3.12
  12   2 -12   37.06    3.03
 -12   2  12   35.01    2.92
  10  -2 -12    1.88    0.54
 -10  -2  12    2.02    0.56
 -10   2  12    1.73    0.55
  10   2 -12    1.78    0.50
 -10   2  12    1.47    0.41
  10   2 -12    1.85    0.50
  -8  -2  12   16.39    1.67
   8  -2 -12   16.41    1.60
  -8   2  12   13.26    1.64
   8   2 -12   16.65    1.58
   8   2 -12   18.49    1.61
  -8   2  12   16.11    1.50
   6  -2 -12    6.87    1.08
   6  -2 -12   12.78    1.20
  -6  -2  12   10.86    1.31
   6   2 -12   11.33    1.24
  -6   2  12   10.30    1.28
   6   2 -12   12.20    1.16
   4  -2 -12   28.93    2.57
   4  -2 -12   26.70    2.54
  -4  -2  12   32.95    2.73
  -4   2  12   27.04    2.69
   4   2 -12   30.88    2.57
   4   2 -12   28.71    2.59
  -2  -2  12    4.54    0.74
   2  -2 -12    4.15    0.68
   2  -2 -12    3.11    0.61
  -2  -2  12    4.09    0.81
   2   2 -12    3.87    0.72
  -2   2  12    6.00    0.82
   2   2 -12    4.28    0.65
   0  -2  12    1.13    0.44
   0  -2 -12    1.11    0.43
   0  -2 -12    0.93    0.42
   0  -2  12    1.35    0.51
   0   2 -12    2.27    0.46
   0   2 -12    0.95    0.42
   0   2  12    0.90    0.42
   2  -2  12    1.24    0.56
   2  -2  12    2.63    0.57
  -2  -2 -12    2.44    0.56
  -2   2 -12    1.59    0.51
   2   2  12    2.06    0.53
  -4  -2 -12    4.67    0.80
   4  -2  12    5.39    0.83
   4  -2  12    4.93    0.98
  -4   2 -12    5.88    0.87
   4   2  12    6.43    0.86
   6  -2  12    0.41    0.36
   6  -2  12   -0.02    0.45
  -6  -2 -12    0.09    0.37
   6   2  12    0.19    0.33
  -6   2 -12    0.20    0.42
  -8  -2 -12    1.78    0.51
   8  -2  12    1.37    0.64
   8  -2  12    1.56    0.46
  -8   2 -12    1.49    0.54
   8   2  12    0.59    0.41
   8   2  12    1.34    0.58
  10  -2  12    0.44    0.36
  10  -2  12   -0.14    0.47
 -10  -2 -12    0.67    0.45
 -10   2 -12    0.23    0.41
  10   2  12    0.20    0.36
  10   2  12   -0.14    0.45
  12  -2  12    3.64    0.94
 -12  -2 -12    3.23    0.74
  12  -2  12    4.20    0.75
 -12   2 -12    4.42    0.80
  12   2  12    5.48    0.81
  12   2  12    5.60    1.03
  14  -2  12    0.93    0.46
  14  -2  12    0.87    0.61
 -14  -2 -12    0.70    0.46
  14   2  12    1.31    0.63
 -14   2 -12    0.40    0.44
  14   2  12    0.79    0.44
  16  -2  12    1.77    0.55
  16  -2  12    2.08    0.74
 -16  -2 -12    2.03    0.62
  16   2  12    2.37    0.60
 -16   2 -12    1.32    0.55
  16   2  12    1.39    0.66
  18  -2  12    0.30    0.58
 -18  -2 -12    0.16    0.48
  18  -2  12    0.68    0.45
 -18   2 -12    0.77    0.49
  18   2  12   -0.03    0.56
  18   2  12    0.54    0.42
 -20  -2 -12    9.35    1.32
  20  -2  12   12.18    1.45
  20  -2  12   10.66    1.70
 -20   2 -12   10.67    1.37
  20   2  12   10.63    1.36
  20   2  12    9.66    1.60
 -22  -2 -12    1.95    0.68
  22  -2  12    1.41    0.75
  22  -2  12    0.77    0.53
  22   2  12    1.93    0.76
  22   2  12    1.99    0.55
 -22   2 -12    1.59    0.59
 -24  -2 -12    7.94    1.22
  24  -2  12    8.54    1.46
 -24   2 -12   11.07    1.29
 -24   2 -12    5.85    1.08
  24   2  12    8.05    1.42
  26  -2  12    1.58    0.76
 -26  -2 -12    0.38    0.45
 -26   2 -12    0.75    0.57
  26   2  12    1.92    0.73
 -31  -3  12    0.82    0.55
  31  -3 -12    0.75    0.50
 -31   3  12    0.84    0.60
  31   3 -12    0.62    0.47
  29  -3 -12   60.22    5.04
 -29  -3  12   57.08    5.30
 -29   3  12   61.58    5.34
  29   3 -12   56.47    5.00
 -27  -3  12    1.05    0.56
  27  -3 -12    0.45    0.48
 -27   3  12    1.66    0.64
  27   3 -12    1.00    0.51
 -25  -3  12   74.72    6.79
  25  -3 -12   79.15    6.46
 -25   3  12   79.51    6.83
  25   3 -12   75.35    6.44
  23  -3 -12    1.50    0.53
 -23  -3  12    0.48    0.47
  23   3 -12    1.00    0.46
 -23   3  12    1.12    0.54
 -21  -3  12  107.91   10.58
  21  -3 -12  129.62   10.13
  21   3 -12  132.45   10.11
 -21   3  12  124.55   10.62
 -19  -3  12    6.77    1.20
  19  -3 -12   11.34    1.33
 -19   3  12   11.75    1.12
 -19   3  12   10.25    1.33
  19   3 -12   11.37    1.30
  17  -3 -12  157.42   11.17
 -17  -3  12  123.86   11.66
 -17   3  12  143.70   11.70
  17   3 -12  131.59   11.11
 -17   3  12  128.79   11.01
  15  -3 -12    3.25    0.64
 -15  -3  12    2.02    0.61
  15   3 -12    1.23    0.51
 -15   3  12    1.97    0.59
 -15   3  12    3.17    0.53
 -13  -3  12  150.66   14.09
  13  -3 -12  165.70   13.44
  13   3 -12  164.86   13.43
 -13   3  12  164.16   13.35
 -13   3  12  186.42   14.15
 -11  -3  12    1.84    0.55
  11  -3 -12    2.78    0.59
 -11   3  12    2.19    0.58
  11   3 -12    1.40    0.47
 -11   3  12    1.89    0.45
  -9  -3  12  186.56   16.47
   9  -3 -12  169.40   15.67
  -9   3  12  204.07   16.48
   9   3 -12  208.81   15.68
  -9   3  12  206.27   15.62
   9   3 -12  192.76   15.67
   7  -3 -12   21.72    2.04
  -7  -3  12   21.09    2.12
   7   3 -12   24.37    2.05
   7   3 -12   23.42    2.02
  -7   3  12   21.52    2.13
  -7   3  12   19.93    1.93
  -5  -3  12  211.87   19.83
   5  -3 -12  215.82   17.36
  -5  -3  12  220.13   18.23
   5   3 -12  217.73   17.33
  -5   3  12  225.65   17.29
  -5   3  12  205.73   18.22
   5   3 -12  213.55   17.35
   3  -3 -12   30.28    2.40
   3  -3 -12   20.41    2.30
  -3  -3  12   27.51    2.49
  -3  -3  12   26.89    2.74
   3   3 -12   27.85    2.40
   3   3 -12   25.99    2.34
  -3   3  12   27.24    2.51
   1  -3 -12  192.32   14.57
  -1  -3  12  192.53   15.31
   1  -3 -12  189.41   14.56
  -1  -3  12  179.32   16.66
  -1   3  12  177.07   15.29
   1   3 -12  152.91   14.54
   1   3 -12  182.04   14.52
   1  -3  12   37.14    3.64
   1  -3  12   37.12    3.26
  -1  -3 -12   33.57    3.10
  -1   3 -12   37.04    3.16
   1   3  12   34.36    3.25
  -3  -3 -12   99.23    9.04
   3  -3  12  100.87   10.37
   3  -3  12  118.43    9.51
   3   3  12  123.24    9.51
  -3   3 -12  112.94    9.08
   5  -3  12   75.59    6.86
   5  -3  12   71.26    6.19
  -5  -3 -12   66.24    5.94
  -5   3 -12   68.90    5.96
   5   3  12   75.76    6.23
  -7  -3 -12   93.58    7.62
   7  -3  12   92.19    7.97
   7  -3  12   94.31    8.80
  -7   3 -12   96.20    7.65
   7   3  12   87.03    7.97
  -9  -3 -12   58.95    4.74
   9  -3  12   56.21    5.46
   9  -3  12   58.37    4.91
  -9   3 -12   51.95    4.70
   9   3  12   52.24    4.86
 -11  -3 -12   89.03    7.18
  11  -3  12   84.98    8.29
  11  -3  12   90.48    7.50
  11   3  12   77.72    8.20
 -11   3 -12   90.43    7.21
 -13  -3 -12   28.34    2.99
  13  -3  12   30.94    3.48
  13  -3  12   34.81    3.11
 -13   3 -12   32.52    3.02
  13   3  12   37.07    3.13
  13   3  12   37.59    3.54
  15  -3  12   40.85    3.66
 -15  -3 -12   41.09    3.57
  15  -3  12   39.34    4.14
  15   3  12   43.04    3.67
 -15   3 -12   41.25    3.55
  15   3  12   34.78    4.03
 -17  -3 -12   63.37    5.27
  17  -3  12   69.71    5.49
  17  -3  12   52.87    6.02
 -17   3 -12   65.85    5.26
  17   3  12   56.37    5.41
  19  -3  12   23.16    2.74
 -19  -3 -12   30.70    2.52
  19  -3  12   26.75    2.48
  19   3  12   22.61    2.39
 -19   3 -12   22.88    2.36
  19   3  12   26.28    2.83
 -21  -3 -12   49.32    4.79
  21  -3  12   53.19    5.52
  21   3  12   65.62    5.04
 -21   3 -12   61.05    4.83
  21   3  12   48.50    5.47
 -23  -3 -12   16.13    2.01
  23  -3  12   20.42    2.24
 -23   3 -12   17.42    1.86
  23   3  12   16.05    2.28
  25  -3  12   30.28    3.44
 -25  -3 -12   33.85    3.03
  25   3  12   29.29    3.41
 -25   3 -12   33.54    2.98
 -30  -4  12   58.87    4.98
  30  -4 -12   46.62    4.67
 -30   4  12   59.66    5.02
 -28  -4  12   21.42    2.33
  28  -4 -12   26.28    2.25
  28   4 -12   20.97    2.18
 -28   4  12   23.32    2.36
 -26  -4  12   87.13    7.56
  26  -4 -12   91.86    7.19
 -26   4  12   87.93    7.56
  26   4 -12   78.02    7.12
  24  -4 -12   45.86    4.61
 -24  -4  12   57.02    4.90
  24   4 -12   57.70    4.62
 -24   4  12   56.00    4.90
  22  -4 -12   83.04    6.39
 -22   4  12   84.32    6.71
  22   4 -12   63.09    6.27
  20  -4 -12  101.32    8.37
 -20   4  12   96.80    8.78
  20   4 -12  109.87    8.34
 -20   4  12   97.72    8.27
 -18  -4  12   88.19    7.26
  18  -4 -12   75.82    6.87
  18   4 -12   78.08    6.85
 -18   4  12   81.06    7.25
 -18   4  12   91.41    6.82
 -16  -4  12  112.84    9.28
  16  -4 -12  121.42    8.86
  16   4 -12  103.83    8.77
 -16   4  12   96.70    9.23
 -16   4  12  103.80    8.71
 -14  -4  12   77.28    6.99
  14  -4 -12   75.33    6.64
 -14   4  12   85.44    6.57
 -14   4  12   78.00    6.99
  14   4 -12   83.78    6.63
  12  -4 -12  206.53   15.39
 -12  -4  12  186.17   16.14
 -12   4  12  185.11   16.14
  12   4 -12  186.62   15.34
 -12   4  12  188.33   15.28
 -10  -4  12   33.02    3.10
 -10  -4  12   33.23    3.41
  10  -4 -12   35.21    2.97
 -10   4  12   33.92    2.88
  10   4 -12   31.94    2.92
 -10   4  12   33.16    3.11
   8  -4 -12  264.48   21.41
  -8  -4  12  281.44   22.51
  -8  -4  12  270.50   24.47
  -8   4  12  259.19   21.33
   8   4 -12  273.51   21.39
   8   4 -12  277.81   21.41
  -8   4  12  242.72   22.47
   6  -4 -12   29.46    2.65
  -6  -4  12   36.44    2.82
  -6  -4  12   30.49    3.08
  -6   4  12   33.50    2.82
   6   4 -12   26.21    2.59
   6   4 -12   25.71    2.62
  -6   4  12   28.30    2.57
  -4  -4  12  217.93   18.86
   4  -4 -12  217.38   17.96
  -4  -4  12  262.18   20.64
  -4   4  12  215.88   18.87
  -4   4  12  204.84   17.89
   4   4 -12  235.01   17.94
   4   4 -12  217.48   17.97
   2  -4 -12   35.64    2.98
  -2  -4  12   30.05    3.09
  -2  -4  12   34.63    3.48
   2   4 -12   36.76    2.94
   2   4 -12   32.14    2.99
  -2   4  12   34.58    3.13
   0  -4  12  224.16   18.85
   0  -4  12  240.21   20.59
   0  -4 -12  203.94   17.93
   0   4 -12  216.60   17.97
   0   4  12  228.99   18.87
   0   4 -12  229.04   17.90
  -2  -4 -12   21.64    2.04
   2  -4  12   24.39    2.17
   2  -4  12   21.33    2.45
  -2   4 -12   24.93    2.12
   2   4  12   19.13    2.09
   4  -4  12  162.83   14.09
  -4  -4 -12  147.02   12.25
   4   4  12  152.89   12.85
  -4   4 -12  143.84   12.26
   6  -4  12    8.96    1.37
   6  -4  12    7.41    1.02
  -6  -4 -12    7.74    1.04
   6   4  12    7.54    1.05
  -6   4 -12    8.33    1.10
   8  -4  12  213.73   17.62
  -8  -4 -12  211.97   16.80
   8  -4  12  203.21   19.25
  -8   4 -12  211.52   16.82
   8   4  12  201.54   17.60
 -10  -4 -12    0.64    0.47
  10  -4  12    0.50    0.44
  10  -4  12    0.23    0.56
  10   4  12    1.10    0.45
 -10   4 -12    0.72    0.46
  12  -4  12  143.07   12.81
 -12  -4 -12  173.43   12.29
  12  -4  12  141.39   14.05
 -12   4 -12  152.47   12.25
  12   4  12  143.95   12.80
 -14  -4 -12    1.21    0.54
  14  -4  12    0.81    0.57
 -14   4 -12    1.42    0.55
  14   4  12    1.35    0.64
  14   4  12    0.86    0.47
  16  -4  12  163.75   14.48
  16   4  12  144.81   14.39
  16   4  12  155.34   13.15
 -18  -4 -12    3.23    0.81
  18  -4  12    4.14    1.02
  18   4  12    6.81    0.91
 -18   4 -12    4.59    0.89
  18   4  12    5.29    1.10
  20  -4  12  110.55   10.66
 -20  -4 -12  115.00    9.29
  20   4  12  115.65   10.63
 -20   4 -12  107.20    9.24
  22  -4  12   14.78    2.02
  22   4  12   15.56    2.06
  22   4  12   14.91    1.59
 -22   4 -12   12.29    1.63
 -24  -4 -12   38.65    3.59
  24  -4  12   37.10    4.08
 -24   4 -12   40.68    3.50
  24   4  12   38.34    4.03
 -29  -5  12    8.32    1.20
  29  -5 -12    6.56    1.07
 -29   5  12    9.27    1.29
  29   5 -12    6.17    1.00
  27  -5 -12    0.68    0.50
 -27  -5  12   -0.23    0.43
 -27   5  12    0.88    0.54
  27   5 -12    0.35    0.43
 -25  -5  12   11.16    1.39
  25  -5 -12    8.22    1.24
  25   5 -12    8.92    1.20
 -25   5  12   10.76    1.42
 -23  -5  12    1.45    0.59
  23  -5 -12    1.20    0.56
 -23   5  12    1.60    0.61
  23   5 -12    1.40    0.50
 -21  -5  12   10.75    1.59
  21  -5 -12   15.97    1.52
  21   5 -12   11.45    1.47
 -21   5  12   13.72    1.37
 -21   5  12   15.76    1.63
  19  -5 -12   14.28    1.60
 -19  -5  12   12.95    1.62
 -19   5  12   12.32    1.61
  19   5 -12   16.55    1.50
 -19   5  12   12.33    1.38
 -17  -5  12    0.87    0.49
  17  -5 -12    1.72    0.55
  17   5 -12    1.19    0.49
 -17   5  12    1.30    0.46
 -17   5  12    1.44    0.53
  15  -5 -12    0.70    0.43
 -15  -5  12    1.67    0.56
  15   5 -12   -0.02    0.36
 -15   5  12   -0.22    0.38
 -15   5  12    0.07    0.32
 -13  -5  12   38.07    3.76
 -13  -5  12   37.80    3.40
  13  -5 -12   34.15    3.21
 -13   5  12   38.73    3.15
  13   5 -12   36.96    3.19
 -13   5  12   34.09    3.37
 -11  -5  12    2.47    0.75
  11  -5 -12    2.77    0.61
 -11  -5  12    2.46    0.61
 -11   5  12    3.57    0.56
  11   5 -12    2.49    0.57
 -11   5  12    3.07    0.65
  -9  -5  12   67.29    6.40
  -9  -5  12   62.66    5.80
   9  -5 -12   62.56    5.54
  -9   5  12   69.48    5.47
  -9   5  12   70.01    5.83
   9   5 -12   65.57    5.51
  -7  -5  12    0.63    0.51
  -7  -5  12    0.36    0.37
   7  -5 -12    0.49    0.41
   7   5 -12    0.14    0.35
  -7   5  12    0.25    0.29
  -7   5  12    0.20    0.36
   7   5 -12    0.93    0.44
   5  -5 -12    5.20    0.85
  -5  -5  12    6.48    0.95
  -5  -5  12    8.09    1.20
   5   5 -12    6.39    0.91
   5   5 -12    5.29    0.80
  -5   5  12    7.70    0.85
  -5   5  12    6.11    0.94
  -3  -5  12    8.66    1.34
   3  -5 -12    9.04    1.06
  -3  -5  12    7.34    1.04
   3   5 -12    8.12    1.08
   3   5 -12    6.22    0.91
  -3   5  12    7.87    0.95
  -3   5  12   10.23    1.15
   1  -5 -12   31.73    2.99
  -1  -5  12   34.48    3.15
  -1  -5  12   38.68    3.56
   1   5 -12   30.02    2.94
   1   5 -12   36.08    3.07
  -1   5  12   34.00    3.15
  -1   5  12   37.86    2.97
  -1  -5 -12   18.27    1.57
   1  -5  12   13.99    1.58
   1  -5  12   15.39    2.05
  -1   5 -12   15.84    1.59
   1   5  12   15.14    1.60
  -3  -5 -12    5.36    0.83
   3  -5  12    4.53    1.02
   3  -5  12    6.33    0.88
  -3   5 -12    3.43    0.78
   3   5  12    8.63    0.96
   5  -5  12    4.31    0.83
  -5  -5 -12    5.96    0.90
   5  -5  12    6.81    1.22
   5   5  12    9.22    1.02
  -5   5 -12    7.77    1.03
  -7  -5 -12   10.97    1.18
   7  -5  12    8.15    1.07
   7  -5  12    8.23    1.37
   7   5  12    5.81    0.98
  -7   5 -12    9.50    1.14
   9  -5  12    5.59    1.14
  -9  -5 -12    6.19    0.94
   9   5  12    6.62    0.94
  -9   5 -12    5.20    0.90
  11  -5  12    2.70    0.89
 -11  -5 -12    2.23    0.63
  11   5  12    3.28    0.65
 -11   5 -12    2.20    0.65
 -13  -5 -12    0.42    0.46
  13  -5  12    0.78    0.68
 -13   5 -12    0.38    0.47
  13   5  12    0.46    0.40
  15  -5  12    5.26    1.23
 -15  -5 -12    6.70    1.05
  15   5  12    6.75    0.98
 -15   5 -12    8.28    1.12
  17  -5  12    5.75    1.18
 -17  -5 -12    5.98    0.99
  17   5  12    6.48    1.22
 -17   5 -12    5.07    0.95
  17   5  12    5.81    0.92
  19  -5  12    3.88    1.00
 -19  -5 -12    3.23    0.79
  19   5  12    2.96    0.89
 -19   5 -12    2.63    0.71
  21  -5  12    4.60    1.12
  21   5  12    2.71    0.88
 -21   5 -12    4.13    0.79
  21   5  12    3.19    0.70
  23  -5  12   12.91    1.89
  23   5  12   13.45    1.96
 -23   5 -12   12.41    1.55
  28  -6 -12   31.75    3.01
 -28  -6  12   33.24    3.18
  28   6 -12   33.57    2.96
 -26  -6  12    5.90    1.10
  26  -6 -12    7.10    1.08
  26   6 -12    8.88    1.07
 -26   6  12    7.80    1.33
  24  -6 -12   11.88    1.41
 -24  -6  12   10.77    1.46
  24   6 -12    9.86    1.29
 -24   6  12   12.70    1.58
 -22  -6  12   24.55    2.22
  22  -6 -12   19.72    2.05
 -22   6  12   18.73    1.93
  22   6 -12   22.26    2.02
 -22   6  12   20.35    2.19
  20  -6 -12   22.02    2.17
 -20  -6  12   23.85    2.32
 -20   6  12   23.34    2.07
 -20   6  12   21.46    2.29
  20   6 -12   22.69    2.14
  18  -6 -12   10.09    1.30
 -18  -6  12   10.02    1.34
 -18   6  12    7.57    1.09
  18   6 -12   12.91    1.31
 -18   6  12   12.39    1.45
 -16  -6  12   26.23    2.49
  16  -6 -12   24.05    2.33
  16   6 -12   23.94    2.28
 -16   6  12   28.52    2.26
 -16   6  12   21.68    2.40
 -14  -6  12   10.54    1.64
 -14  -6  12   13.50    1.52
  14  -6 -12   13.16    1.43
 -14   6  12   11.40    1.47
  14   6 -12   11.08    1.30
 -14   6  12   11.33    1.21
 -12  -6  12   10.78    1.45
  12  -6 -12    9.28    1.13
 -12  -6  12    6.10    1.08
 -12   6  12    8.46    1.15
  12   6 -12    7.65    1.01
 -12   6  12    7.69    0.98
 -10  -6  12   75.51    6.42
 -10  -6  12   68.99    6.99
  10  -6 -12   78.52    6.10
 -10   6  12   71.40    6.39
  10   6 -12   72.46    6.04
 -10   6  12   71.66    6.01
  -8  -6  12   27.66    3.09
  -8  -6  12   38.34    3.51
   8  -6 -12   32.87    2.95
  -8   6  12   34.46    2.89
  -8   6  12   31.88    3.08
   8   6 -12   36.20    2.93
  -6  -6  12   10.91    1.35
   6  -6 -12   11.97    1.33
  -6  -6  12    9.92    1.56
  -6   6  12   10.27    1.33
   6   6 -12   11.36    1.25
  -6   6  12   11.00    1.22
  -4  -6  12   29.32    3.52
   4  -6 -12   41.26    3.06
  -4  -6  12   35.28    3.16
  -4   6  12   29.97    2.93
  -4   6  12   34.19    3.17
   4   6 -12   39.65    3.01
   4   6 -12   31.67    3.03
   2  -6 -12    4.22    0.70
  -2  -6  12    2.42    0.80
  -2  -6  12    2.75    0.62
   2   6 -12    2.32    0.64
   2   6 -12    3.23    0.58
  -2   6  12    3.46    0.67
  -2   6  12    3.17    0.57
   0  -6  12   56.49    4.98
   0  -6 -12   59.63    4.76
   0  -6  12   64.08    5.58
   0   6  12   51.16    4.96
   0   6 -12   61.44    4.82
   0   6 -12   57.74    4.70
   0   6  12   48.79    4.67
   2  -6  12   -0.22    0.49
  -2   6 -12    0.12    0.40
   2   6  12    0.89    0.43
   4  -6  12   60.84    6.92
  -4  -6 -12   77.01    6.02
   4   6  12   74.97    6.32
  -4   6 -12   75.42    6.07
  -6  -6 -12    1.00    0.46
   6  -6  12    0.51    0.53
  -6   6 -12    1.00    0.51
   6   6  12    0.47    0.40
   8  -6  12   35.46    3.76
  -8  -6 -12   33.15    3.19
  -8   6 -12   40.55    3.26
   8   6  12   36.03    3.33
 -10  -6 -12    1.99    0.59
  10  -6  12    2.10    0.83
  10   6  12    2.46    0.59
 -10   6 -12    2.03    0.64
 -12  -6 -12   48.51    4.76
  12  -6  12   62.73    5.66
  12   6  12   63.87    5.02
 -12   6 -12   51.46    4.78
  14  -6  12    3.24    0.92
 -14  -6 -12    2.82    0.71
  14   6  12    3.63    0.70
 -14   6 -12    2.66    0.71
 -16  -6 -12   20.87    2.36
  16  -6  12   19.69    2.73
  16   6  12   26.35    2.42
 -16   6 -12   32.77    2.46
 -18  -6 -12    0.39    0.49
  18  -6  12    0.75    0.68
 -18   6 -12    0.21    0.45
  18   6  12    0.07    0.42
  20  -6  12    6.63    1.32
 -20   6 -12    7.98    1.13
  20   6  12    5.96    0.98
  22  -6  12    0.76    0.68
 -22   6 -12    0.48    0.50
  22   6  12    0.45    0.39
  22   6  12    0.09    0.62
 -27  -7  12   -0.56    0.40
  27  -7 -12    0.26    0.48
  27   7 -12   -0.30    0.39
  25  -7 -12  149.80   11.04
 -25  -7  12  125.31   11.55
  25   7 -12  129.01   10.93
 -23  -7  12    3.36    0.79
  23  -7 -12    4.60    0.81
  23   7 -12    2.94    0.66
 -23   7  12    5.08    0.77
 -21  -7  12  141.02   13.11
  21  -7 -12  160.72   12.50
 -21   7  12  163.08   12.42
  21   7 -12  148.09   12.42
 -19  -7  12    0.16    0.44
  19  -7 -12    0.52    0.46
 -19   7  12    0.88    0.52
  19   7 -12    0.24    0.37
 -19   7  12    0.71    0.40
 -17  -7  12  182.50   16.74
  17  -7 -12  185.28   14.62
 -17  -7  12  187.32   15.39
  17   7 -12  190.77   14.57
 -17   7  12  175.63   14.50
 -17   7  12  161.33   15.32
 -15  -7  12    9.69    1.29
 -15  -7  12    8.29    1.37
  15  -7 -12    8.11    1.14
  15   7 -12    7.18    1.04
 -15   7  12   11.03    1.25
 -15   7  12    7.16    0.96
 -13  -7  12  167.37   14.49
  13  -7 -12  165.44   12.61
 -13  -7  12  161.90   13.26
 -13   7  12  127.06   12.48
 -13   7  12  148.80   13.20
  13   7 -12  165.38   12.57
 -11  -7  12    4.55    1.09
  11  -7 -12    6.47    0.96
 -11  -7  12    7.24    1.03
  11   7 -12    6.06    0.88
 -11   7  12    7.01    0.87
 -11   7  12    6.59    1.00
  -9  -7  12  215.02   17.94
  -9  -7  12  215.00   19.58
   9  -7 -12  197.77   17.06
  -9   7  12  208.66   17.93
   9   7 -12  213.05   17.03
  -9   7  12  221.27   17.01
  -7  -7  12   24.88    2.97
   7  -7 -12   27.38    2.55
  -7  -7  12   23.94    2.66
  -7   7  12   29.32    2.49
  -7   7  12   32.92    2.71
   7   7 -12   30.22    2.53
  -5  -7  12  160.04   13.81
   5  -7 -12  136.99   11.97
   5   7 -12  137.27   11.92
  -5   7  12  138.03   12.56
  -5   7  12  168.21   11.94
   3  -7 -12   65.03    5.70
  -3  -7  12   78.21    6.68
   3   7 -12   66.07    5.65
   3   7 -12   61.82    5.72
  -3   7  12   67.79    5.98
  -3   7  12   73.34    5.65
   1  -7 -12  143.37   11.75
   1   7 -12  146.06   11.79
   1   7 -12  138.48   11.67
  -1   7  12  134.06   11.67
  -1   7  12  164.21   12.36
   1  -7  12   53.56    5.14
   1   7  12   46.26    4.56
  -1   7 -12   48.64    4.41
   1   7  12   57.18    4.33
   3  -7  12  129.12   12.36
   3   7  12  128.80   11.23
  -3   7 -12  136.39   10.75
   5  -7  12   18.37    2.69
  -5  -7 -12   26.48    2.36
   5   7  12   29.68    2.47
  -5   7 -12   28.27    2.43
  -7  -7 -12   69.93    6.14
   7  -7  12   73.08    7.20
  -7   7 -12   76.01    6.22
   7   7  12   76.38    6.46
   9  -7  12   32.05    3.57
  -9  -7 -12   33.67    3.05
  -9   7 -12   34.84    3.07
   9   7  12   34.93    3.16
 -11  -7 -12   83.37    6.81
  11  -7  12   82.30    7.89
 -11   7 -12   87.35    6.84
  11   7  12   74.34    7.05
 -13  -7 -12   69.47    5.82
  13  -7  12   74.30    6.80
  13   7  12   65.48    6.03
 -13   7 -12   67.33    5.81
 -15  -7 -12   72.19    6.12
  15  -7  12   65.37    7.03
 -15   7 -12   81.89    6.13
  15   7  12   69.94    6.33
 -17  -7 -12   55.32    5.19
  17  -7  12   59.99    6.02
 -17   7 -12   58.40    5.16
  17   7  12   67.80    5.42
  19  -7  12   50.38    4.65
  19   7  12   40.77    4.06
 -19   7 -12   44.79    3.94
  21  -7  12   40.65    4.20
 -21   7 -12   37.36    3.51
  21   7  12   40.48    3.63
  26  -8 -12   45.13    4.19
 -26  -8  12   50.51    4.43
  26   8 -12   47.91    4.13
  24  -8 -12   28.56    2.82
 -24  -8  12   35.63    3.05
 -24   8  12   29.27    2.71
  24   8 -12   30.54    2.77
  22  -8 -12   50.25    4.66
 -22  -8  12   47.27    4.89
  22   8 -12   58.12    4.63
 -22   8  12   60.30    4.59
  20  -8 -12   29.51    3.35
 -20  -8  12   42.82    3.63
  20   8 -12   39.73    3.35
 -20   8  12   42.04    3.33
  18  -8 -12   36.11    3.09
 -18  -8  12   33.48    3.25
 -18  -8  12   36.08    3.59
 -18   8  12   35.21    2.99
  18   8 -12   29.97    2.99
 -16  -8  12   53.95    5.16
  16  -8 -12   43.79    4.39
 -16  -8  12   54.17    4.72
 -16   8  12   49.62    4.33
  16   8 -12   57.96    4.41
 -14  -8  12   15.84    2.01
  14  -8 -12   14.35    1.69
 -14  -8  12   17.84    2.13
  14   8 -12   16.39    1.67
 -14   8  12   21.80    1.91
 -14   8  12   17.09    1.64
 -12  -8  12   76.18    7.61
  12  -8 -12   81.84    6.62
 -12   8  12   77.15    6.93
 -12   8  12   80.88    6.53
  12   8 -12   79.63    6.55
 -10  -8  12   17.72    2.11
  10  -8 -12   18.25    1.79
 -10   8  12   18.42    1.69
  10   8 -12   16.98    1.72
 -10   8  12   17.69    1.87
   8  -8 -12   95.90    7.78
  -8  -8  12   89.14    8.97
   8   8 -12  100.07    7.72
  -8   8  12   95.77    8.17
  -8   8  12   89.61    7.69
  -6  -8  12   33.59    3.52
   6  -8 -12   33.54    2.99
  -6   8  12   35.89    2.92
   6   8 -12   34.93    2.94
  -6   8  12   29.70    3.09
  -4  -8  12   78.49    7.88
   4  -8 -12   86.95    6.83
  -4   8  12   84.21    6.73
  -4   8  12   78.69    7.12
   4   8 -12   81.74    6.75
  -2  -8  12    6.82    1.28
   2  -8 -12    5.48    0.98
  -2   8  12    9.31    1.01
   2   8 -12    7.87    1.10
   2   8 -12    8.92    1.03
  -2   8  12   10.87    1.20
   0  -8  12  110.31   10.26
   0  -8 -12  107.16    8.85
   0   8 -12  107.70    8.80
   0   8  12  109.04    8.80
   0   8 -12  110.28    8.90
   0   8  12  104.47    9.28
   2  -8  12    4.01    0.98
  -2   8 -12    4.27    0.82
   2   8  12    4.23    0.79
   2   8  12    5.06    0.71
   4  -8  12  107.60   10.18
  -4   8 -12  106.60    8.82
   4   8  12  107.09    9.21
   6  -8  12    5.43    1.16
  -6  -8 -12    4.55    0.80
   6   8  12    6.58    0.94
  -6   8 -12    5.05    0.87
   8  -8  12  102.55   10.01
   8   8  12  101.61    9.03
  -8   8 -12  110.78    8.67
 -10  -8 -12    1.74    0.59
  10  -8  12    1.18    0.64
 -10   8 -12    0.74    0.53
  10   8  12    3.47    0.67
  12  -8  12   66.27    6.92
 -12  -8 -12   74.06    6.01
 -12   8 -12   70.96    5.99
  12   8  12   71.89    6.23
 -14  -8 -12    2.04    0.68
  14  -8  12    2.53    0.89
  14   8  12    2.77    0.65
 -14   8 -12    2.64    0.66
  16  -8  12   62.67    5.93
  16   8  12   51.77    5.25
 -16   8 -12   64.97    5.09
  18  -8  12    1.24    0.76
  18   8  12    1.76    0.59
 -18   8 -12    1.81    0.60
  20  -8  12   36.41    3.76
 -20   8 -12   42.18    3.23
  20   8  12   28.90    3.20
  23  -9 -12    0.41    0.46
 -23   9  12    0.61    0.40
  23   9 -12    0.18    0.39
 -21  -9  12    0.89    0.68
  21  -9 -12    0.89    0.50
 -21   9  12    0.97    0.42
  21   9 -12    0.38    0.40
 -19  -9  12    0.65    0.61
  19  -9 -12   -0.07    0.40
  19   9 -12    0.09    0.35
 -19   9  12    0.16    0.33
 -17  -9  12    1.19    0.66
  17  -9 -12    0.42    0.43
  17   9 -12    0.52    0.44
 -17   9  12    0.63    0.40
  15  -9 -12    1.27    0.54
 -15  -9  12    1.70    0.70
  15   9 -12    2.33    0.56
 -15   9  12    1.78    0.48
 -13  -9  12    1.12    0.68
  13  -9 -12    0.87    0.46
  13   9 -12    1.21    0.46
 -13   9  12    1.15    0.43
 -11  -9  12    0.12    0.60
  11  -9 -12    0.80    0.47
  11   9 -12    0.35    0.39
 -11   9  12   -0.22    0.31
   9  -9 -12    5.92    0.92
  -9  -9  12    4.72    1.09
  -9   9  12    5.94    0.80
   9   9 -12    5.54    0.82
   7  -9 -12    9.71    1.18
  -7  -9  12    9.14    1.43
  -7   9  12    7.51    0.98
   7   9 -12    8.85    1.05
  -7   9  12    6.32    1.08
   5  -9 -12    0.79    0.46
  -5  -9  12    1.24    0.67
  -5   9  12    1.51    0.53
   5   9 -12    0.50    0.41
  -5   9  12    0.66    0.39
  -3  -9  12    0.69    0.60
   3  -9 -12    0.66    0.43
  -3   9  12    0.52    0.44
   3   9 -12    0.48    0.42
  -3   9  12    0.29    0.35
  -1  -9  12    1.61    0.74
   1  -9 -12    1.35    0.48
  -1   9  12    2.40    0.59
   1   9 -12    1.67    0.49
  -1   9  12    1.20    0.42
   1  -9  12    0.31    0.55
  -1   9 -12   -0.32    0.40
   1   9  12   -0.13    0.37
   1   9  12    0.04    0.32
   3  -9  12    0.64    0.64
  -3   9 -12    0.03    0.43
   3   9  12    0.11    0.30
   3   9  12    0.43    0.41
   5  -9  12   -0.19    0.44
   5   9  12    0.14    0.40
  -5   9 -12    0.16    0.43
   7  -9  12    8.39    1.51
  -7  -9 -12    8.73    1.15
   7   9  12    9.05    1.21
  -7   9 -12    8.42    1.19
  -9  -9 -12    0.48    0.46
   9  -9  12   -0.38    0.55
  -9   9 -12    0.32    0.45
   9   9  12    0.10    0.41
 -11  -9 -12    1.00    0.54
  11  -9  12    1.07    0.70
 -11   9 -12    1.50    0.59
  11   9  12    0.68    0.46
  13  -9  12    1.22    0.72
 -13  -9 -12    0.92    0.56
  13   9  12    1.32    0.54
 -13   9 -12    1.33    0.56
  15  -9  12    0.53    0.65
  15   9  12    1.56    0.57
 -15   9 -12    1.40    0.58
  17  -9  12   -0.49    0.52
  17   9  12   -0.10    0.38
 -17   9 -12    0.14    0.45
  19  -9  12    0.78    0.72
  19   9  12    0.76    0.46
  22 -10 -12   23.32    2.29
 -22 -10  12   24.24    2.71
  22  10 -12   22.72    2.18
 -22  10  12   23.95    2.19
 -20 -10  12   22.05    2.43
  20 -10 -12   21.15    2.02
 -20  10  12   18.53    1.85
  20  10 -12   18.52    1.89
 -18 -10  12   22.36    2.72
  18 -10 -12   22.41    2.29
 -18  10  12   24.81    2.22
  18  10 -12   26.76    2.27
 -16 -10  12   45.24    4.32
  16 -10 -12   39.54    3.68
 -16  10  12   42.58    3.60
  16  10 -12   40.61    3.61
  14 -10 -12   27.43    2.58
 -14 -10  12   26.24    3.04
 -14  10  12   28.50    2.49
  14  10 -12   28.52    2.51
 -12 -10  12   88.03    8.47
  12 -10 -12   93.16    7.33
  12  10 -12   86.46    7.24
 -12  10  12   85.25    7.22
 -10 -10  12   30.69    3.41
  10 -10 -12   32.58    2.89
 -10  10  12   30.78    2.79
  10  10 -12   32.45    2.82
  -8 -10  12   44.96    4.27
   8 -10 -12   42.37    3.62
  -8  10  12   37.18    3.51
   8  10 -12   41.40    3.54
   6 -10 -12   29.45    2.71
  -6 -10  12   30.85    3.23
   6  10 -12   27.70    2.65
  -6  10  12   31.38    2.64
   4 -10 -12   49.93    4.29
  -4 -10  12   47.22    5.02
  -4  10  12   50.94    4.23
   4  10 -12   50.87    4.23
  -2 -10  12    7.20    1.30
   2 -10 -12    6.54    0.94
   2  10 -12    5.71    0.87
  -2  10  12    6.30    0.88
   0 -10 -12   63.36    5.21
   0 -10  12   54.24    6.06
   0  10  12   63.74    5.48
   0  10  12   62.83    5.15
   0  10 -12   62.87    5.16
   2 -10  12    2.07    0.78
  -2  10 -12    2.25    0.66
   2  10  12    2.62    0.55
   2  10  12    2.08    0.64
   4 -10  12   73.33    7.08
   4  10  12   73.37    6.37
   4  10  12   69.79    5.98
  -4  10 -12   73.46    6.11
   6 -10  12   14.52    2.13
  -6 -10 -12   17.29    1.74
   6  10  12   16.87    1.80
  -6  10 -12   18.33    1.81
   8 -10  12   85.45    8.45
  -8 -10 -12   96.62    7.32
   8  10  12   83.86    7.61
  -8  10 -12   84.44    7.29
  10 -10  12   -0.60    0.50
 -10 -10 -12    0.07    0.45
 -10  10 -12   -0.45    0.41
  10  10  12    0.27    0.45
  12 -10  12   50.11    4.68
 -12 -10 -12   46.09    4.00
 -12  10 -12   53.79    4.02
  12  10  12   34.86    4.03
  14 -10  12    0.17    0.64
 -14  10 -12    0.88    0.55
  14  10  12    0.76    0.48
  16 -10  12   52.88    5.32
  16  10  12   48.77    4.68
 -16  10 -12   56.24    4.57
  19 -11 -12    0.44    0.46
 -19 -11  12    0.56    0.63
 -19  11  12    0.32    0.36
  19  11 -12    0.18    0.40
  17 -11 -12   84.36    6.33
 -17 -11  12   60.01    7.16
  17  11 -12   80.90    6.20
 -17  11  12   72.47    6.18
 -15 -11  12    4.57    1.03
  15 -11 -12    3.41    0.75
 -15  11  12    2.85    0.64
  15  11 -12    3.61    0.71
 -13 -11  12  124.47   11.26
  13 -11 -12  123.74    9.74
 -13  11  12   96.85    9.59
  13  11 -12  133.36    9.69
 -11 -11  12    5.26    1.22
  11 -11 -12    6.96    1.04
 -11  11  12    6.78    0.93
  11  11 -12    7.81    0.99
  -9 -11  12  117.49   11.21
   9 -11 -12  116.40    9.71
   9  11 -12  119.13    9.64
  -9  11  12  119.36    9.62
   7 -11 -12    5.25    0.90
  -7 -11  12    4.89    1.14
  -7  11  12    7.31    0.90
   7  11 -12    5.30    0.81
   5 -11 -12  119.99    8.77
  -5 -11  12   93.94   10.03
  -5  11  12  109.34    8.65
   5  11 -12  100.52    8.66
   3 -11 -12   20.49    1.95
  -3 -11  12   20.00    2.40
  -3  11  12   20.01    1.88
   3  11 -12   19.26    1.89
   1 -11 -12  129.04   10.03
  -1 -11  12  112.57   11.52
  -1  11  12  128.55    9.93
   1  11 -12  117.24    9.94
   1  11  12   44.69    3.83
   3 -11  12   89.72    9.28
  -3  11 -12  102.73    8.11
   3  11  12   98.64    7.97
   5 -11  12   29.63    3.11
  -5  11 -12   25.75    2.60
  -7 -11 -12   54.86    4.43
   7 -11  12   47.66    5.14
  -7  11 -12   50.40    4.45
   9 -11  12   43.37    4.34
  -9 -11 -12   41.31    3.66
  -9  11 -12   37.53    3.66
   9  11  12   43.19    3.83
  11 -11  12   43.87    4.20
 -11  11 -12   40.55    3.60
  11  11  12   36.98    3.71
  13  11  12   61.28    5.71
 -13  11 -12   66.94    5.48
 -16 -12  12   26.13    3.00
  16 -12 -12   28.50    2.54
  16  12 -12   23.90    2.41
 -16  12  12   28.28    2.45
  14 -12 -12    7.76    1.16
 -14 -12  12    7.63    1.46
 -14  12  12   10.52    1.13
  14  12 -12    8.67    1.11
  12 -12 -12   29.55    2.80
 -12 -12  12   22.11    3.22
  12  12 -12   31.14    2.72
 -12  12  12   37.15    2.74
  10 -12 -12    3.33    0.76
 -10 -12  12    4.49    1.09
 -10  12  12    3.77    0.70
  10  12 -12    3.39    0.66
   8 -12 -12   14.38    1.54
  -8 -12  12   10.17    1.73
  -8  12  12   10.17    1.30
   8  12 -12   13.13    1.41
   6 -12 -12    3.15    0.70
  -6 -12  12    3.58    0.99
  -6  12  12    3.82    0.66
   6  12 -12    2.92    0.62
  -4 -12  12   17.75    2.40
   4 -12 -12   19.99    1.83
   4  12 -12   18.41    1.76
  -4  12  12   15.98    1.73
   2 -12 -12    1.26    0.51
  -2 -12  12    1.22    0.70
  -2  12  12    1.55    0.46
   2  12 -12    0.50    0.44
   0 -12  12   29.85    3.07
   0  12  12   25.33    2.43
   2 -12  12    0.42    0.59
   2  12  12    0.86    0.45
   4 -12  12    9.67    1.66
   4  12  12   12.30    1.33
   6 -12  12    1.46    0.77
  -6  12 -12    1.41    0.61
  -8 -12 -12   32.11    2.75
   8 -12  12   26.85    3.20
  -8  12 -12   28.21    2.73
  10 -12  12    0.43    0.62
 -10  12 -12    0.24    0.47
  -9 -13  12   13.80    2.05
   9 -13 -12   12.23    1.59
   9  13 -12   13.96    1.49
  -9  13  12   16.17    1.49
   7 -13 -12    4.28    0.80
  -7 -13  12    4.09    1.07
  -7  13  12    3.64    0.70
   7  13 -12    3.28    0.65
  -5 -13  12    8.46    1.50
   5 -13 -12    8.51    1.11
  -5  13  12    8.84    1.04
   5  13 -12    5.70    0.95
  -3 -13  12    5.07    1.16
   3 -13 -12    5.09    0.88
  -3  13  12    5.41    0.78
   3  13 -12    4.36    0.80
   1 -13 -12    7.79    1.12
  -1 -13  12   10.79    1.62
   1  13 -12    6.92    0.99
  -1  13  12    6.75    0.98
   1 -13  12    5.21    1.15
   3 -13  12   14.13    1.98
   3  13  12   11.57    1.38
   5 -13  12   10.64    1.93
  30   0 -13    0.33    0.45
 -30   0  13    0.05    0.46
 -28   0  13   -0.08    0.47
  28   0 -13    0.10    0.41
  26   0 -13   -0.21    0.40
 -26   0  13    0.04    0.44
  24   0 -13    0.53    0.46
 -24   0  13   -0.05    0.44
  22   0 -13   -0.08    0.36
 -22   0  13   -0.19    0.41
  20   0 -13   -0.26    0.37
 -20   0  13    0.43    0.44
  18   0 -13    0.39    0.39
 -18   0  13   -0.21    0.37
 -16   0  13    0.43    0.41
  16   0 -13    0.01    0.38
  14   0 -13   -0.06    0.34
 -14   0  13    0.37    0.43
  14   0 -13   -0.30    0.34
  12   0 -13    0.14    0.38
 -12   0  13   -0.17    0.35
  12   0 -13   -0.35    0.32
  10   0 -13    0.69    0.38
 -10   0  13    0.17    0.36
  10   0 -13    0.04    0.34
   8   0 -13    0.13    0.36
  -8   0  13   -0.43    0.33
   8   0 -13   -0.16    0.35
  -6   0  13   -0.19    0.38
   6   0 -13   -0.09    0.33
   6   0 -13   -0.08    0.35
  -4   0  13    0.04    0.34
   4   0 -13    0.16    0.35
   4   0 -13    0.16    0.37
   2   0 -13   -0.07    0.33
   2   0 -13   -0.07    0.36
  -2   0  13    0.22    0.36
   0   0  13   -0.02    0.33
   0   0 -13    0.18    0.38
  -2   0 -13    0.22    0.39
   2   0  13    0.14    0.35
  -4   0 -13   -0.01    0.36
   4   0  13    0.23    0.36
  -6   0 -13   -0.25    0.35
   6   0  13    0.29    0.48
   6   0  13   -0.28    0.33
   8   0  13   -0.36    0.33
  -8   0 -13   -0.16    0.37
   8   0  13    0.13    0.44
  10   0  13   -0.19    0.32
 -10   0 -13   -0.10    0.39
  10   0  13    0.06    0.45
  12   0  13    0.16    0.54
 -12   0 -13    0.02    0.40
  12   0  13    0.03    0.35
  14   0  13    0.06    0.38
 -14   0 -13    0.74    0.50
  14   0  13    0.06    0.57
  16   0  13    0.20    0.38
 -16   0 -13   -0.20    0.41
  16   0  13    0.17    0.56
 -18   0 -13   -0.25    0.41
  18   0  13   -0.01    0.40
  18   0  13    0.43    0.56
 -20   0 -13    1.48    0.58
  20   0  13   -0.42    0.51
  20   0  13    0.17    0.41
 -22   0 -13    0.09    0.44
  22   0  13    0.05    0.37
  22   0  13    0.14    0.65
 -24   0 -13    0.23    0.54
  24   0  13    0.30    0.58
  31  -1 -13   35.39    3.41
 -31  -1  13   41.09    3.63
  31   1 -13   38.11    3.42
 -31   1  13   39.07    3.65
  29  -1 -13   28.34    2.67
 -29  -1  13   26.44    2.78
  29   1 -13   26.93    2.64
 -29   1  13   34.62    2.91
 -27  -1  13   28.07    2.73
 -27   1  13   28.25    2.77
  27   1 -13   27.58    2.60
 -25  -1  13   28.64    2.86
  25  -1 -13   26.11    2.67
 -25   1  13   31.86    2.91
  25   1 -13   31.63    2.73
  23  -1 -13   66.40    5.81
 -23  -1  13   73.09    6.15
  23   1 -13   66.96    5.80
 -23   1  13   70.02    6.13
 -21  -1  13    4.74    0.87
  21  -1 -13    4.20    0.79
  21   1 -13    3.55    0.74
 -21   1  13    3.72    0.78
 -19  -1  13  107.47    8.84
  19  -1 -13   97.94    8.38
  19   1 -13  102.07    8.39
 -19   1  13   99.85    8.81
  17  -1 -13   40.54    3.45
 -17  -1  13   38.11    3.60
 -17   1  13   38.31    3.60
  17   1 -13   39.58    3.44
  15  -1 -13  113.56    9.28
  15  -1 -13  120.21    9.24
 -15  -1  13  108.03    9.72
  15   1 -13  112.40    9.27
 -15   1  13  111.91    9.76
  13  -1 -13   19.70    1.77
 -13  -1  13   15.17    1.88
  13  -1 -13   18.19    1.82
 -13   1  13   19.87    1.92
  13   1 -13   20.18    1.83
  11  -1 -13   88.09    7.28
 -11  -1  13   85.77    7.64
  11  -1 -13   84.32    7.22
  11   1 -13   87.91    7.27
  11   1 -13   90.83    7.26
 -11   1  13   92.72    7.66
  -9  -1  13   16.00    1.56
   9  -1 -13   12.97    1.53
   9  -1 -13   14.21    1.43
   9   1 -13   14.71    1.47
  -9   1  13   12.66    1.51
   9   1 -13   14.58    1.47
   7  -1 -13  200.52   16.70
  -7  -1  13  200.51   17.54
   7  -1 -13  224.31   16.71
  -7   1  13  201.34   17.54
   7   1 -13  211.70   16.70
   7   1 -13  207.32   16.71
  -5  -1  13    3.53    0.65
   5  -1 -13    2.69    0.59
   5  -1 -13    3.10    0.64
   5   1 -13    3.06    0.61
   5   1 -13    3.32    0.67
  -5   1  13    4.52    0.72
   3  -1 -13  129.65   10.32
   3  -1 -13  118.44   10.28
  -3  -1  13  132.98   10.82
   3   1 -13  123.28   10.31
  -3   1  13  125.71   10.82
   3   1 -13  130.65   10.29
   1  -1 -13   18.19    1.68
  -1  -1  13   16.15    1.74
   1  -1 -13   15.09    1.65
   1   1 -13   16.94    1.67
  -1   1  13   15.98    1.73
   1   1 -13   20.27    1.71
  -1  -1 -13  117.16    9.92
   1  -1  13  115.16   10.40
  -1   1 -13  133.62    9.97
   1   1  13  122.61   10.39
   3  -1  13    0.36    0.47
   3  -1  13   -0.16    0.35
  -3  -1 -13    0.81    0.44
  -3   1 -13    0.29    0.39
   3   1  13    0.37    0.38
   5  -1  13  116.58   11.31
  -5  -1 -13  122.72    9.91
   5  -1  13  122.29   10.38
   5   1  13  128.84   10.38
  -5   1 -13  115.81    9.91
   7  -1  13    5.45    1.10
  -7  -1 -13    6.13    0.91
   7  -1  13    4.97    0.86
   7   1  13    7.52    0.92
  -7   1 -13    5.31    0.88
  -9  -1 -13  110.26    9.19
   9  -1  13  110.23   10.54
   9   1  13  108.56   10.51
  -9   1 -13  117.63    9.21
   9   1  13  113.06    9.60
 -11  -1 -13    0.07    0.42
  11  -1  13    0.07    0.37
  11  -1  13   -0.12    0.49
  11   1  13    0.39    0.53
 -11   1 -13    1.18    0.52
  11   1  13    0.52    0.42
  13  -1  13   74.21    7.66
 -13  -1 -13  107.59    7.45
  13  -1  13  100.46    8.51
  13   1  13   84.13    7.69
 -13   1 -13   84.95    7.37
  13   1  13   87.65    8.46
  15  -1  13   12.12    1.84
  15  -1  13   14.19    1.50
 -15  -1 -13   14.90    1.60
  15   1  13   12.01    1.83
  15   1  13   11.65    1.51
 -15   1 -13   14.02    1.59
  17  -1  13   40.43    4.84
 -17  -1 -13   47.17    4.21
  17  -1  13   49.46    4.37
  17   1  13   52.28    4.38
  17   1  13   50.75    4.93
 -17   1 -13   49.62    4.23
 -19  -1 -13    3.77    0.80
  19  -1  13    2.86    0.69
  19  -1  13    2.77    0.87
  19   1  13    3.30    0.70
  19   1  13    2.94    0.87
 -19   1 -13    3.45    0.79
  21  -1  13   39.57    4.69
  21  -1  13   49.97    4.33
 -21  -1 -13   49.71    4.16
  21   1  13   48.38    4.79
  21   1  13   50.43    4.28
 -21   1 -13   44.03    4.12
  23  -1  13    8.59    1.18
  23  -1  13    8.24    1.45
 -23  -1 -13    8.31    1.19
 -23   1 -13    7.95    1.16
  23   1  13    6.47    1.08
  23   1  13    8.77    1.44
 -25  -1 -13   24.52    2.37
  25  -1  13   21.03    2.74
  25   1  13   24.10    2.77
 -25   1 -13   22.19    2.40
 -25   1 -13   28.94    2.46
 -30  -2  13    0.47    0.50
  30  -2 -13    0.08    0.43
  30   2 -13    0.49    0.47
 -30   2  13    0.64    0.56
 -28  -2  13  138.89   12.02
  28  -2 -13  134.21   11.42
 -28   2  13  151.06   12.08
  28   2 -13  136.31   11.41
 -26  -2  13    0.40    0.47
  26  -2 -13    0.43    0.46
 -26   2  13    0.66    0.51
  26   2 -13    0.02    0.41
 -24  -2  13  135.98   11.89
  24  -2 -13  137.96   11.32
 -24   2  13  137.44   11.90
  24   2 -13  142.57   11.31
 -22  -2  13    8.98    1.30
  22  -2 -13    9.53    1.27
 -22   2  13   10.56    1.35
  22   2 -13   10.46    1.25
  20  -2 -13  142.49   12.06
 -20  -2  13  158.61   12.72
 -20   2  13  147.59   12.68
  20   2 -13  145.00   12.05
  18  -2 -13   25.76    2.29
 -18  -2  13   26.17    2.42
  18   2 -13   27.54    2.31
 -18   2  13   18.87    2.34
  16  -2 -13  219.05   17.30
 -16  -2  13  222.08   18.17
 -16   2  13  203.63   17.18
  16   2 -13  224.27   17.30
 -16   2  13  204.47   18.14
  14  -2 -13   20.54    2.00
 -14  -2  13   24.67    2.13
 -14   2  13   20.09    2.12
  14   2 -13   22.88    2.01
 -14   2  13   17.84    1.88
 -12  -2  13  184.48   16.13
  12  -2 -13  188.98   15.36
 -12   2  13  190.36   15.26
  12   2 -13  184.73   15.34
 -12   2  13  202.74   16.15
  10  -2 -13   57.25    4.68
 -10  -2  13   52.18    4.91
  10   2 -13   60.20    4.66
  10   2 -13   54.52    4.65
 -10   2  13   51.36    4.88
   8  -2 -13  132.92   10.80
  -8  -2  13  132.71   11.40
   8  -2 -13  128.43   10.86
  -8   2  13  132.64   11.39
   8   2 -13  141.13   10.85
   8   2 -13  133.31   10.84
   6  -2 -13   73.10    7.10
   6  -2 -13   85.04    7.09
  -6  -2  13  103.80    7.53
   6   2 -13   79.40    7.12
   6   2 -13   98.51    7.15
  -6   2  13   81.95    7.47
   4  -2 -13   81.87    8.01
  -4  -2  13   99.49    8.49
   4  -2 -13  109.85    8.11
   4   2 -13   91.20    8.07
  -4   2  13  109.83    8.52
   4   2 -13  102.03    8.06
  -2  -2  13   87.19    7.51
   2  -2 -13   85.41    7.13
   2  -2 -13   85.06    7.12
  -2   2  13   90.69    7.52
   2   2 -13   88.65    7.17
   2   2 -13   84.09    7.10
   0  -2  13  137.37   12.03
   0  -2 -13  135.42   11.47
   0   2  13  137.53   12.04
   0   2 -13  156.35   11.52
   2  -2  13   60.46    6.25
   2  -2  13   70.30    5.70
  -2  -2 -13   61.59    5.44
   2   2  13   65.95    5.71
  -2   2 -13   67.29    5.48
   4  -2  13  114.22    8.43
  -4  -2 -13   97.57    8.01
   4  -2  13   94.55    9.18
  -4   2 -13   92.55    8.02
   4   2  13   89.14    8.36
   6  -2  13  142.98   10.53
  -6  -2 -13  115.87   10.02
   6  -2  13  109.46   11.46
  -6   2 -13  133.04   10.06
   6   2  13  113.44   10.48
   8  -2  13   77.62    8.76
  -8  -2 -13   91.89    7.67
   8  -2  13  104.49    8.05
   8   2  13   91.78    8.02
  -8   2 -13   98.64    7.71
  10  -2  13  119.34    9.92
 -10  -2 -13  113.01    9.50
  10  -2  13  115.81   10.93
  10   2  13  127.35    9.95
 -10   2 -13  103.62    9.48
  12  -2  13   43.23    4.00
 -12  -2 -13   34.70    3.35
  12  -2  13   28.38    3.43
  12   2  13   46.75    3.96
 -12   2 -13   37.19    3.37
  12   2  13   43.38    3.52
  14  -2  13  126.70   11.00
  14  -2  13  143.14   12.15
 -14  -2 -13  123.87   10.52
  14   2  13  132.75   12.06
 -14   2 -13  124.60   10.52
  14   2  13  123.01   10.99
  16  -2  13   20.56    2.16
 -16  -2 -13   23.53    2.16
  16  -2  13   18.37    2.39
 -16   2 -13   22.92    2.16
  16   2  13   21.06    2.47
  16   2  13   23.32    2.16
  18  -2  13   96.93    8.67
 -18  -2 -13  102.97    8.34
  18  -2  13   99.85    9.57
 -18   2 -13  104.86    8.32
  18   2  13   96.77    9.53
  18   2  13  100.33    8.66
 -20  -2 -13   12.77    1.71
  20  -2  13   15.78    1.72
  20  -2  13   14.26    2.16
  20   2  13   17.69    1.75
 -20   2 -13   15.18    1.78
  20   2  13   18.10    2.27
 -22  -2 -13   77.45    6.47
  22  -2  13   76.71    7.43
  22  -2  13   73.86    6.71
  22   2  13   72.43    6.66
 -22   2 -13   83.43    6.46
  22   2  13   73.94    7.41
 -24  -2 -13    5.71    1.02
  24  -2  13    5.39    1.16
  24   2  13    5.94    1.26
 -24   2 -13    5.19    0.98
 -29  -3  13    6.75    1.16
  29  -3 -13    8.62    1.21
 -29   3  13   10.08    1.32
  29   3 -13    9.64    1.19
  27  -3 -13    4.88    0.93
 -27  -3  13    6.62    1.07
  27   3 -13    6.72    0.98
 -27   3  13    6.84    1.11
  25  -3 -13   25.76    2.56
 -25  -3  13   28.50    2.69
  25   3 -13   27.44    2.54
 -25   3  13   28.29    2.72
  23  -3 -13   19.73    1.86
 -23  -3  13   20.27    1.99
 -23   3  13   18.62    1.97
  23   3 -13   15.56    1.80
 -21  -3  13   16.68    1.76
  21  -3 -13   17.55    1.69
 -21   3  13   14.58    1.73
  21   3 -13   15.55    1.63
  19  -3 -13   36.85    3.26
 -19  -3  13   43.46    3.49
 -19   3  13   32.10    3.42
  19   3 -13   35.39    3.22
  17  -3 -13   14.34    1.63
 -17  -3  13   17.19    1.67
 -17   3  13   13.36    1.68
  17   3 -13   13.95    1.51
 -17   3  13   14.00    1.40
 -15  -3  13   32.49    3.01
  15  -3 -13   31.73    2.87
 -15   3  13   38.22    3.06
 -15   3  13   30.01    2.75
  15   3 -13   28.64    2.81
  13  -3 -13    8.99    1.15
 -13  -3  13    8.74    1.18
  13   3 -13    8.33    1.06
 -13   3  13    7.74    1.12
 -13   3  13    8.40    1.00
  11  -3 -13  110.29    8.41
 -11  -3  13  112.46    8.82
 -11   3  13   88.98    8.26
  11   3 -13   96.86    8.34
 -11   3  13  105.10    8.81
   9  -3 -13    0.14    0.38
  -9  -3  13    0.79    0.44
  -9   3  13    0.06    0.36
   9   3 -13    0.34    0.41
  -9   3  13    0.60    0.32
   9   3 -13    0.80    0.41
  -7  -3  13   99.21    9.02
   7  -3 -13  115.08    8.62
   7   3 -13  102.64    8.60
   7   3 -13   99.79    8.56
  -7   3  13  108.76    9.03
   5  -3 -13    0.79    0.39
  -5  -3  13    1.17    0.46
   5  -3 -13    1.28    0.47
   5   3 -13    0.72    0.43
   5   3 -13    0.89    0.45
  -5   3  13    0.19    0.40
   3  -3 -13   88.20    6.16
   3  -3 -13   73.91    6.14
  -3  -3  13   69.76    6.44
   3   3 -13   67.27    6.10
  -3   3  13   73.50    6.46
   3   3 -13   73.30    6.17
  -1  -3  13    0.96    0.44
   1  -3 -13    1.24    0.46
   1  -3 -13    0.67    0.41
  -1  -3  13    1.19    0.57
   1   3 -13    0.85    0.41
   1   3 -13    1.20    0.48
  -1   3  13    0.43    0.44
   1  -3  13   42.84    3.76
  -1  -3 -13   41.07    3.59
   1  -3  13   40.22    4.16
   1   3  13   40.77    3.76
  -1   3 -13   43.91    3.64
   3  -3  13    0.99    0.55
   3  -3  13    0.74    0.42
  -3  -3 -13    1.04    0.44
  -3   3 -13    0.71    0.44
   3   3  13    0.82    0.42
   5  -3  13   28.94    3.16
   5  -3  13   32.83    2.85
  -5  -3 -13   31.46    2.72
  -5   3 -13   28.40    2.72
   5   3  13   28.96    2.81
   7  -3  13   -0.15    0.52
  -7  -3 -13    0.20    0.41
   7  -3  13    0.62    0.41
  -7   3 -13    0.80    0.46
   7   3  13    0.20    0.38
   9  -3  13   35.11    3.34
  -9  -3 -13   37.21    3.24
   9  -3  13   40.38    3.81
   9   3  13   35.86    3.32
  -9   3 -13   34.69    3.23
 -11  -3 -13    0.38    0.44
  11  -3  13   -0.25    0.38
  11  -3  13   -0.15    0.49
 -11   3 -13   -0.19    0.43
  11   3  13   -0.59    0.32
  13  -3  13   18.85    2.13
 -13  -3 -13   16.28    1.75
  13  -3  13   18.16    1.77
 -13   3 -13   13.53    1.78
  15  -3  13    0.86    0.47
  15  -3  13    0.04    0.59
 -15  -3 -13    0.20    0.48
 -15   3 -13    0.64    0.48
  15   3  13    0.32    0.62
  15   3  13    0.27    0.40
 -17  -3 -13   18.53    2.01
  17  -3  13   18.56    2.02
  17  -3  13   19.54    2.36
  17   3  13   21.66    2.02
  17   3  13   16.57    2.42
 -17   3 -13   22.52    2.03
  19  -3  13    2.58    0.83
 -19  -3 -13    2.49    0.70
  19   3  13    1.52    0.57
  19   3  13    2.38    0.79
 -19   3 -13    3.87    0.77
  21  -3  13   13.59    2.18
 -21  -3 -13   19.11    1.90
  21   3  13   14.32    2.15
  21   3  13   21.94    1.92
 -21   3 -13   14.91    1.88
  23  -3  13   11.38    1.71
 -23  -3 -13    9.92    1.38
  23   3  13   11.39    1.72
 -23   3 -13    9.44    1.33
  23   3  13    9.48    1.33
 -28  -4  13   10.21    1.38
  28  -4 -13    8.03    1.22
 -28   4  13   10.45    1.44
  28   4 -13   11.47    1.37
  26  -4 -13    0.28    0.42
 -26  -4  13    0.03    0.43
 -26   4  13    0.44    0.48
  26   4 -13    0.46    0.45
 -24  -4  13   17.98    1.96
  24  -4 -13   17.31    1.88
 -24   4  13   21.74    2.07
  24   4 -13   18.91    1.86
 -22  -4  13    0.38    0.47
  22  -4 -13    1.22    0.52
 -22   4  13    0.89    0.56
  22   4 -13    0.21    0.40
 -20  -4  13   15.97    1.72
  20  -4 -13   16.93    1.64
 -20   4  13   14.04    1.76
  20   4 -13   14.12    1.55
  18  -4 -13    5.74    0.91
 -18  -4  13    5.30    0.95
 -18   4  13    5.43    0.78
 -18   4  13    6.05    1.00
  18   4 -13    3.74    0.75
  16  -4 -13   91.91    7.40
 -16  -4  13   92.73    7.79
 -16   4  13   95.94    7.80
  16   4 -13   80.67    7.34
 -16   4  13   87.35    7.30
 -14  -4  13   28.10    2.68
  14  -4 -13   24.87    2.53
 -14   4  13   27.34    2.69
 -14   4  13   30.46    2.48
  14   4 -13   28.86    2.54
 -12  -4  13   14.68    1.72
  12  -4 -13   16.67    1.70
 -12   4  13   16.94    1.76
 -12   4  13   16.96    1.57
  12   4 -13   17.90    1.67
 -10  -4  13    8.85    1.21
  10  -4 -13    8.83    1.16
  10   4 -13    9.12    1.14
 -10   4  13    8.78    1.18
 -10   4  13   10.03    1.03
  -8  -4  13    9.03    1.18
   8  -4 -13    8.68    1.14
  -8   4  13    9.77    0.98
   8   4 -13    7.62    1.05
  -8   4  13    6.74    1.11
   8   4 -13   10.89    1.17
  -6  -4  13   24.60    2.27
   6  -4 -13   23.31    2.15
   6   4 -13   23.56    2.17
   6   4 -13   26.21    2.15
  -6   4  13   22.63    2.25
  -6   4  13   19.71    2.04
  -4  -4  13   21.73    1.95
  -4  -4  13   18.33    2.11
   4  -4 -13   17.93    1.81
   4   4 -13   17.88    1.86
  -4   4  13   18.53    1.92
   4   4 -13   20.06    1.81
   2  -4 -13   42.23    3.44
  -2  -4  13   40.81    4.06
  -2  -4  13   36.14    3.62
   2  -4 -13   37.44    3.43
  -2   4  13   42.10    3.65
   2   4 -13   44.43    3.42
   2   4 -13   36.23    3.47
   0  -4  13    8.39    1.37
   0  -4 -13    8.66    1.09
   0  -4  13    8.81    1.16
   0   4  13    9.25    1.18
   0   4 -13    8.94    1.16
   2  -4  13    1.74    0.51
   2  -4  13    1.57    0.66
  -2  -4 -13    1.98    0.52
  -2   4 -13    1.16    0.52
   2   4  13    1.31    0.48
   4  -4  13   10.27    1.51
   4  -4  13   10.05    1.25
  -4  -4 -13   10.27    1.23
  -4   4 -13   10.69    1.25
   4   4  13    8.06    1.17
  -6  -4 -13    1.45    0.50
   6  -4  13    1.20    0.46
   6  -4  13    0.77    0.57
   6   4  13    1.14    0.46
  -6   4 -13    0.95    0.49
   8  -4  13    6.00    1.20
  -8  -4 -13    6.24    0.93
   8  -4  13    6.42    0.96
  -8   4 -13    5.98    0.93
   8   4  13    6.18    0.92
 -10  -4 -13   15.58    1.62
  10  -4  13   15.63    2.07
  10  -4  13   15.33    1.64
  10   4  13   14.91    1.61
 -10   4 -13   14.70    1.70
  12  -4  13    9.46    1.29
 -12  -4 -13   10.17    1.29
  12  -4  13   10.43    1.63
  12   4  13   10.28    1.28
 -12   4 -13   10.15    1.30
  14  -4  13   15.62    2.16
 -14  -4 -13   14.76    1.78
  14   4  13   17.47    1.73
 -14   4 -13   16.57    1.72
  16  -4  13    4.35    1.06
 -16  -4 -13    4.76    0.85
  16   4  13    3.01    0.71
 -16   4 -13    4.96    0.87
  18  -4  13    5.54    1.25
 -18  -4 -13    7.25    1.12
  18   4  13    6.22    0.99
 -18   4 -13    8.28    1.13
 -20  -4 -13    1.89    0.71
  20  -4  13    2.29    0.84
  20   4  13    2.06    0.79
  20   4  13    1.93    0.60
 -20   4 -13    2.44    0.68
  22  -4  13   12.35    1.89
  22   4  13   12.53    1.85
  22   4  13   14.19    1.47
 -22   4 -13   10.98    1.50
 -29  -5  13   24.43    2.60
  29  -5 -13   24.81    2.53
 -29   5  13   28.49    2.67
  27  -5 -13   61.91    5.62
 -27  -5  13   66.55    5.94
  27   5 -13   71.21    5.62
 -25  -5  13   35.25    3.67
  25  -5 -13   41.39    3.54
  25   5 -13   42.17    3.50
 -25   5  13   39.73    3.74
 -23  -5  13   56.63    5.55
  23  -5 -13   60.62    5.30
 -23   5  13   71.40    5.65
 -21  -5  13   37.85    3.84
  21  -5 -13   47.17    3.72
  21   5 -13   42.33    3.64
 -21   5  13   41.70    3.90
 -21   5  13   40.53    3.58
  19  -5 -13  100.57    7.85
 -19  -5  13  104.07    8.29
 -19   5  13   93.90    7.73
  19   5 -13  101.65    7.82
 -19   5  13   75.29    8.17
 -17  -5  13   51.79    4.46
  17  -5 -13   46.22    4.20
 -17   5  13   47.00    4.09
 -17   5  13   47.29    4.41
  17   5 -13   51.90    4.18
 -15  -5  13  178.13   14.46
  15  -5 -13  181.53   13.78
 -15   5  13  173.06   13.67
  15   5 -13  145.29   13.68
 -15   5  13  172.52   14.45
  13  -5 -13   23.77    2.41
 -13  -5  13   21.91    2.50
 -13   5  13   29.16    2.36
 -13   5  13   30.95    2.62
  13   5 -13   27.11    2.41
 -11  -5  13  169.54   14.45
  11  -5 -13  154.22   13.75
  11   5 -13  175.30   13.73
 -11   5  13  178.97   14.47
 -11   5  13  171.70   13.68
  -9  -5  13   15.64    1.49
   9  -5 -13   12.55    1.45
   9   5 -13   13.26    1.36
  -9   5  13   12.89    1.53
  -9   5  13   10.74    1.24
   7  -5 -13  110.54    8.85
  -7  -5  13  114.38   10.19
  -7  -5  13  100.62    9.27
  -7   5  13  102.97    8.76
  -7   5  13  113.46    9.29
   7   5 -13  107.02    8.79
  -5  -5  13    4.97    0.81
   5  -5 -13    6.62    0.89
  -5  -5  13    4.98    1.03
  -5   5  13    5.00    0.71
  -5   5  13    4.68    0.83
   5   5 -13    3.93    0.79
   5   5 -13    4.73    0.74
  -3  -5  13  169.38   16.11
  -3  -5  13  182.01   14.74
   3  -5 -13  174.76   14.04
  -3   5  13  168.75   14.72
   3   5 -13  171.34   14.05
   3   5 -13  169.31   13.97
  -3   5  13  179.16   13.96
  -1  -5  13    0.57    0.55
  -1  -5  13    0.15    0.38
   1  -5 -13    0.13    0.41
   1  -5 -13    0.63    0.38
   1   5 -13    0.57    0.45
   1   5 -13    0.77    0.42
  -1   5  13    0.52    0.40
  -1  -5 -13  168.86   14.26
   1  -5  13  186.24   15.02
   1  -5  13  192.60   16.45
   1   5  13  170.70   15.00
  -1   5 -13  168.68   14.32
   3  -5  13    0.17    0.39
   3  -5  13    0.64    0.56
  -3  -5 -13    0.01    0.33
   3   5  13   -0.23    0.36
  -3   5 -13   -0.22    0.39
   5  -5  13  141.88   13.52
  -5  -5 -13  147.91   11.76
   5  -5  13  140.84   12.32
  -5   5 -13  153.62   11.82
   5   5  13  140.24   12.33
  -7  -5 -13    0.83    0.48
   7  -5  13    0.81    0.64
   7   5  13    0.31    0.40
  -7   5 -13    0.30    0.43
  -9  -5 -13  134.76    9.87
   9  -5  13  100.65   11.28
  -9   5 -13  136.22    9.90
   9   5  13  110.03   10.27
  11  -5  13    0.77    0.62
 -11  -5 -13    1.29    0.55
 -11   5 -13    0.07    0.42
  11   5  13    0.13    0.40
  13  -5  13  119.64   10.89
 -13  -5 -13  117.17    9.43
  13   5  13  114.89    9.83
 -13   5 -13  107.26    9.40
  15  -5  13    4.42    1.06
 -15  -5 -13    3.94    0.84
 -15   5 -13    2.58    0.75
  15   5  13    6.17    0.90
  17  -5  13   86.30    8.90
 -17  -5 -13   89.98    7.74
 -17   5 -13  110.89    7.78
  17   5  13   85.49    8.01
 -19  -5 -13    9.64    1.28
  19  -5  13   10.01    1.58
  19   5  13    5.92    1.07
 -19   5 -13    9.34    1.23
  21  -5  13   49.23    5.33
 -21   5 -13   53.82    4.60
  21   5  13   54.92    4.77
  23  -5  13    6.73    1.33
 -23   5 -13    8.79    1.23
 -28  -6  13  121.88   10.55
 -26  -6  13   11.64    1.45
  26  -6 -13    9.27    1.32
 -26   6  13    8.06    1.38
  26   6 -13   11.63    1.28
 -24  -6  13  114.55    9.63
  24  -6 -13   97.04    9.13
  24   6 -13  121.09    9.14
 -24   6  13  112.29    9.65
  22  -6 -13    2.68    0.69
 -22  -6  13    3.92    0.83
  22   6 -13    4.05    0.75
 -22   6  13    4.36    0.69
 -22   6  13    4.02    0.85
 -20  -6  13   95.45    8.84
 -20   6  13   96.04    8.31
  20   6 -13  122.89    8.42
 -20   6  13   94.29    8.82
 -18  -6  13   11.37    1.58
  18  -6 -13   11.89    1.48
 -18   6  13   12.03    1.55
 -18   6  13   13.50    1.33
  18   6 -13   13.35    1.46
  16  -6 -13   65.46    5.56
 -16  -6  13   64.05    5.84
 -16   6  13   69.20    5.86
 -16   6  13   64.47    5.47
  16   6 -13   66.56    5.51
  14  -6 -13   12.13    1.39
 -14  -6  13   12.67    1.47
 -14   6  13    9.90    1.35
  14   6 -13    9.58    1.24
 -14   6  13   10.90    1.15
  12  -6 -13  107.15    8.46
 -12  -6  13  105.32    8.89
 -12   6  13   83.03    8.32
  12   6 -13  104.97    8.41
 -12   6  13  117.12    8.89
 -10  -6  13   31.72    3.27
  10  -6 -13   30.61    2.81
 -10  -6  13   31.54    2.95
  10   6 -13   30.15    2.75
 -10   6  13   28.49    2.93
 -10   6  13   33.67    2.72
  -8  -6  13   78.66    8.32
  -8  -6  13   95.37    9.19
   8  -6 -13   97.96    7.98
   8   6 -13   97.40    7.92
  -8   6  13   99.02    8.38
  -8   6  13  111.81    7.91
   6  -6 -13   16.14    1.55
  -6  -6  13   12.85    1.55
  -6  -6  13   15.39    1.99
  -6   6  13   15.14    1.43
   6   6 -13   15.99    1.48
  -6   6  13   12.41    1.61
  -4  -6  13  105.87    9.48
  -4  -6  13   94.88    8.59
   4  -6 -13  105.32    8.20
   4   6 -13   92.94    8.13
   4   6 -13  104.91    8.22
  -4   6  13  103.72    8.13
  -4   6  13   91.96    8.57
   2  -6 -13   47.74    4.28
  -2  -6  13   49.11    4.49
  -2  -6  13   53.16    5.07
  -2   6  13   47.34    4.21
  -2   6  13   51.52    4.50
   2   6 -13   56.75    4.35
   2   6 -13   49.19    4.23
   0  -6  13  107.32   10.45
   0   6 -13  106.97    9.07
   0   6  13  116.76    9.52
  -2  -6 -13   71.44    6.05
  -2   6 -13   73.70    6.13
   2   6  13   73.77    6.38
   4  -6  13   63.63    6.27
  -4  -6 -13   59.54    5.32
  -4   6 -13   63.70    5.39
   4   6  13   68.45    5.64
  -6  -6 -13   95.86    7.76
   6  -6  13   91.51    8.93
  -6   6 -13   98.05    7.82
   6   6  13   90.76    8.11
   8  -6  13   33.89    3.43
  -8  -6 -13   34.93    2.89
   8   6  13   25.47    2.92
  -8   6 -13   34.23    2.91
  10  -6  13   67.35    6.63
 -10  -6 -13   69.94    5.71
 -10   6 -13   69.20    5.74
  10   6  13   64.33    5.94
 -12  -6 -13   22.80    2.28
  12  -6  13   24.63    2.75
 -12   6 -13   25.67    2.32
  12   6  13   22.11    2.30
  14  -6  13   65.48    7.38
  14   6  13   81.56    6.69
 -14   6 -13   80.59    6.45
  16  -6  13   18.96    2.35
 -16  -6 -13   18.08    2.02
  16   6  13   18.60    1.99
 -16   6 -13   23.41    2.06
  18  -6  13   84.45    7.86
 -18  -6 -13   78.13    6.81
  18   6  13   75.89    7.03
 -18   6 -13   85.09    6.78
  20  -6  13    5.74    1.24
  20   6  13    5.49    0.94
 -20   6 -13    5.83    0.98
 -25  -7  13    5.76    0.99
  25  -7 -13    4.83    0.91
  25   7 -13    6.70    0.93
  23  -7 -13    3.54    0.79
 -23  -7  13    2.79    0.75
 -23   7  13    4.11    0.70
  23   7 -13    3.57    0.70
 -21  -7  13    1.09    0.57
  21  -7 -13    0.42    0.46
 -21   7  13    0.78    0.42
  21   7 -13    0.59    0.42
 -21   7  13    0.60    0.59
 -19  -7  13    3.49    0.77
  19  -7 -13    1.87    0.57
  19   7 -13    2.55    0.61
 -19   7  13    1.50    0.50
 -19   7  13    1.03    0.57
 -17  -7  13    0.71    0.53
  17  -7 -13    0.56    0.47
  17   7 -13    1.07    0.48
 -17   7  13    1.61    0.43
 -17   7  13    1.30    0.54
  15  -7 -13   12.02    1.36
 -15  -7  13   10.04    1.40
 -15   7  13   10.81    1.22
 -15   7  13   10.36    1.39
  15   7 -13    9.47    1.21
 -13  -7  13    1.91    0.63
  13  -7 -13    1.86    0.58
 -13  -7  13    1.45    0.75
 -13   7  13    3.18    0.68
 -13   7  13    3.04    0.57
  13   7 -13    1.97    0.55
 -11  -7  13    8.51    1.19
  11  -7 -13    6.51    1.02
 -11  -7  13    8.53    1.40
 -11   7  13    9.39    1.01
  11   7 -13    8.57    1.03
 -11   7  13    6.06    1.05
   9  -7 -13   10.47    1.20
  -9  -7  13    9.18    1.23
  -9  -7  13    7.09    1.35
  -9   7  13    7.45    1.13
  -9   7  13    8.64    1.03
   9   7 -13    8.47    1.08
  -7  -7  13    0.26    0.55
   7  -7 -13    1.01    0.47
  -7   7  13    0.85    0.49
   7   7 -13    0.38    0.42
  -7   7  13    0.97    0.39
   5  -7 -13    0.35    0.41
  -5  -7  13    0.41    0.54
  -5   7  13    0.93    0.37
   5   7 -13   -0.03    0.35
  -5   7  13    0.32    0.41
  -3  -7  13    0.64    0.58
   3  -7 -13    0.28    0.38
   3   7 -13    0.48    0.38
   3   7 -13    0.25    0.48
  -3   7  13    0.33    0.41
  -3   7  13    0.31    0.35
   1  -7 -13    0.15    0.39
  -1  -7  13    0.77    0.60
  -1   7  13    0.49    0.41
  -1   7  13    0.41    0.34
   1   7 -13    0.43    0.50
   1   7 -13    0.68    0.40
   1  -7  13    3.05    0.89
   1   7  13    2.66    0.64
  -1   7 -13    3.66    0.78
  -3  -7 -13    0.46    0.39
   3  -7  13    1.33    0.65
  -3   7 -13    0.92    0.51
   3   7  13    0.86    0.46
  -5  -7 -13    3.98    0.72
   5  -7  13    3.61    0.99
  -5   7 -13    3.75    0.77
   5   7  13    3.08    0.68
   7  -7  13    4.35    1.02
  -7  -7 -13    4.47    0.77
  -7   7 -13    3.29    0.76
   7   7  13    4.61    0.81
  -9  -7 -13    4.40    0.79
   9  -7  13    3.42    0.95
  -9   7 -13    3.11    0.74
   9   7  13    2.87    0.69
  11  -7  13    0.88    0.62
 -11  -7 -13    0.93    0.52
 -11   7 -13    1.77    0.62
  11   7  13    2.47    0.59
 -13  -7 -13    4.19    0.82
  13  -7  13    2.95    0.95
  13   7  13    3.00    0.72
 -13   7 -13    4.57    0.83
  15  -7  13    0.04    0.62
 -15  -7 -13    0.93    0.58
  15   7  13    1.37    0.53
 -15   7 -13    1.02    0.53
 -17  -7 -13    4.47    0.95
  17  -7  13    4.41    1.15
  17   7  13    6.34    0.93
 -17   7 -13    4.93    0.93
  19  -7  13   -0.39    0.54
 -19   7 -13    0.26    0.48
  19   7  13   -0.14    0.44
 -24  -8  13   27.32    2.74
  24  -8 -13   32.63    2.66
 -24   8  13   25.33    2.47
  24   8 -13   26.57    2.51
 -22  -8  13    9.08    1.33
  22  -8 -13    8.41    1.19
  22   8 -13    9.53    1.17
 -22   8  13    8.84    1.09
 -20  -8  13   56.53    5.37
  20  -8 -13   70.52    5.15
  20   8 -13   59.48    5.03
 -20   8  13   54.44    4.97
  18  -8 -13    5.67    0.90
 -18  -8  13    5.63    1.00
  18   8 -13    4.46    0.80
 -18   8  13    4.93    0.79
  16  -8 -13   51.21    4.54
  16   8 -13   52.87    4.49
 -16   8  13   54.22    4.46
 -14  -8  13    9.97    1.69
  14  -8 -13   11.17    1.40
 -14   8  13   12.63    1.25
  14   8 -13   11.30    1.33
 -14   8  13   11.62    1.50
 -12  -8  13   60.74    5.75
  12  -8 -13   55.10    4.90
 -12   8  13   57.27    4.84
  12   8 -13   57.89    4.86
 -12   8  13   58.38    5.18
  10  -8 -13   22.99    2.17
 -10  -8  13   21.29    2.56
  10   8 -13   20.69    2.09
 -10   8  13   24.14    2.27
 -10   8  13   23.52    2.06
  -8  -8  13   69.35    6.97
   8  -8 -13   65.14    6.00
  -8   8  13   72.38    5.95
  -8   8  13   73.77    6.30
   8   8 -13   78.28    5.98
   6  -8 -13   10.88    1.40
  -6  -8  13   13.25    1.84
   6   8 -13   13.10    1.33
  -6   8  13   11.35    1.27
  -6   8  13   13.82    1.56
  -4  -8  13   69.62    6.04
   4  -8 -13   60.71    5.15
   4   8 -13   56.46    5.07
  -4   8  13   59.41    5.36
  -2  -8  13   12.66    1.89
   2  -8 -13   13.25    1.53
  -2   8  13   13.42    1.49
   2   8 -13   12.35    1.38
  -2   8  13   14.47    1.37
   0  -8  13   28.09    2.98
   0   8  13   27.35    2.42
   0   8  13   27.82    2.60
   0   8 -13   25.56    2.55
   2  -8  13   51.97    4.77
   2   8  13   47.20    4.19
  -2   8 -13   41.03    4.02
  -4  -8 -13   17.87    1.84
   4  -8  13   17.36    2.22
   4   8  13   20.45    1.96
  -4   8 -13   19.70    1.95
  -6  -8 -13   23.41    2.22
   6  -8  13   24.32    2.73
  -6   8 -13   26.10    2.33
   6   8  13   21.61    2.32
  -8  -8 -13   25.08    2.28
   8  -8  13   18.31    2.59
  -8   8 -13   28.54    2.36
   8   8  13   24.12    2.35
  10  -8  13   38.04    4.18
 -10  -8 -13   39.53    3.57
  10   8  13   38.73    3.68
 -10   8 -13   45.26    3.62
  12  -8  13    8.09    1.68
 -12  -8 -13   14.64    1.62
 -12   8 -13   13.42    1.58
  12   8  13   15.90    1.52
  14  -8  13   40.55    4.41
 -14  -8 -13   45.76    3.82
 -14   8 -13   44.81    3.77
  14   8  13   39.07    3.86
  16  -8  13    4.82    1.20
 -16   8 -13    8.54    1.14
  16   8  13    6.16    0.98
  18  -8  13   11.91    1.82
  18   8  13   11.41    1.42
 -18   8 -13    9.28    1.31
  23  -9 -13   58.57    4.48
 -23   9  13   44.49    4.26
  23   9 -13   51.48    4.37
  21  -9 -13   42.58    3.74
  21   9 -13   42.50    3.66
 -21   9  13   41.96    3.64
  19  -9 -13   72.26    6.55
  19   9 -13   73.52    6.48
 -19   9  13   88.85    6.49
 -17  -9  13   19.75    2.34
  17  -9 -13   20.29    1.94
 -17   9  13   18.78    1.81
  17   9 -13   17.43    1.82
 -15  -9  13  121.17   11.17
  15  -9 -13  125.75    9.69
  15   9 -13  110.84    9.60
 -15   9  13  115.09    9.58
 -13  -9  13    6.75    1.21
  13  -9 -13    5.07    0.88
  13   9 -13    4.73    0.78
 -13   9  13    4.67    0.76
 -11  -9  13  190.17   15.94
  11  -9 -13  163.72   13.81
  11   9 -13  155.34   13.73
 -11   9  13  175.45   13.73
   9  -9 -13    4.19    0.79
  -9  -9  13    6.03    1.19
   9   9 -13    3.42    0.68
  -9   9  13    4.46    0.69
  -7  -9  13  122.71   11.26
   7  -9 -13  116.95    9.75
  -7   9  13  106.42   10.20
  -7   9  13  125.18    9.66
   7   9 -13  122.79    9.68
  -5  -9  13   11.06    1.71
   5  -9 -13   11.69    1.42
   5   9 -13   11.99    1.35
  -5   9  13   11.01    1.28
  -5   9  13   12.63    1.49
  -3  -9  13  127.83   12.01
   3  -9 -13  128.83   10.42
  -3   9  13  126.85   10.92
   3   9 -13  127.62   10.35
  -3   9  13  125.07   10.32
  -1  -9  13    0.59    0.59
  -1   9  13    0.82    0.46
  -1   9  13    0.22    0.34
   1  -9  13  128.29   12.68
   1   9  13  132.23   11.54
  -1   9 -13  132.90   11.05
   1   9  13  144.75   10.95
   3  -9  13    1.13    0.73
   3   9  13    1.20    0.52
  -3   9 -13    0.37    0.50
  -5  -9 -13   89.09    7.69
   5  -9  13   92.79    8.94
   5   9  13   98.23    8.11
  -5   9 -13   92.73    7.75
  -7  -9 -13    5.43    0.90
   7  -9  13    6.43    1.29
  -7   9 -13    8.06    1.11
   7   9  13    6.80    1.02
  -9  -9 -13  102.48    8.64
   9  -9  13  102.03    9.95
  -9   9 -13  108.62    8.67
   9   9  13  105.37    9.04
 -11  -9 -13    4.93    0.91
  11  -9  13    5.80    1.23
  11   9  13    4.51    0.83
 -11   9 -13    4.87    0.89
 -13  -9 -13   78.66    7.00
  13  -9  13   73.31    8.03
  13   9  13   95.34    7.34
 -13   9 -13   86.05    7.01
  15  -9  13    7.84    1.51
  15   9  13    8.67    1.20
 -15   9 -13    6.98    1.11
  17  -9  13   85.11    7.50
 -17   9 -13   67.13    6.49
  17   9  13   76.55    6.70
  20 -10 -13   52.89    4.72
  20  10 -13   59.18    4.66
 -20  10  13   52.27    4.61
 -18 -10  13    5.59    1.22
  18 -10 -13    4.74    0.92
  18  10 -13    7.08    0.92
 -18  10  13    5.23    0.80
  16 -10 -13   28.78    2.85
 -16 -10  13   38.98    3.53
 -16  10  13   31.35    2.80
  16  10 -13   29.84    2.80
  14 -10 -13    4.02    0.81
 -14 -10  13    3.67    1.03
  14  10 -13    4.48    0.74
 -14  10  13    4.76    0.76
 -12 -10  13   34.07    3.54
  12 -10 -13   34.48    2.97
 -12  10  13   31.55    2.87
  12  10 -13   31.27    2.88
 -10 -10  13   24.47    2.75
  10 -10 -13   23.78    2.30
 -10  10  13   23.36    2.19
  10  10 -13   24.68    2.24
  -8 -10  13   49.60    5.47
   8 -10 -13   53.94    4.72
  -8  10  13   62.04    4.65
   8  10 -13   53.67    4.65
  -6 -10  13   18.46    2.22
   6 -10 -13   19.63    1.87
   6  10 -13   14.70    1.74
  -6  10  13   20.00    1.75
  -4 -10  13   31.01    3.98
   4 -10 -13   41.86    3.50
   4  10 -13   41.57    3.40
  -4  10  13   41.55    3.39
   2 -10 -13   16.94    1.82
  -2 -10  13   11.88    2.00
  -2  10  13   17.29    1.56
   2  10 -13   15.57    1.57
   0 -10  13   39.86    4.23
   0  10  13   39.04    3.72
   0  10  13   41.84    3.48
   2 -10  13   37.09    4.14
   2  10  13   38.68    3.44
   2  10  13   40.88    3.70
  -2  10 -13   43.68    3.61
   4 -10  13    8.67    1.63
   4  10  13   13.37    1.54
  -4  10 -13   13.42    1.53
  -6 -10 -13   27.43    2.59
   6 -10  13   27.86    3.13
  -6  10 -13   33.77    2.71
   6  10  13   24.54    2.69
  -8 -10 -13   10.08    1.37
   8 -10  13   11.04    1.80
   8  10  13   12.03    1.44
  10 -10  13   21.47    2.39
 -10 -10 -13   19.50    2.03
 -10  10 -13   17.36    2.00
  10  10  13   21.43    2.07
 -12 -10 -13    7.28    1.16
  12 -10  13    6.63    1.40
 -12  10 -13    9.48    1.23
  12  10  13    7.93    1.16
  14 -10  13   31.63    2.97
 -14  10 -13   25.14    2.41
  14  10  13   20.94    2.44
 -17 -11  13    2.49    0.87
  17 -11 -13    1.04    0.52
 -17  11  13    2.06    0.52
  17  11 -13    1.46    0.51
  15 -11 -13    9.82    1.34
 -15 -11  13   10.22    1.69
 -15  11  13   11.28    1.29
  15  11 -13   10.91    1.30
  13 -11 -13    0.83    0.46
 -13 -11  13    0.27    0.58
  13  11 -13    1.10    0.47
 -13  11  13    0.53    0.40
  11 -11 -13    6.27    1.04
 -11 -11  13    6.27    1.35
 -11  11  13    8.81    1.04
  11  11 -13    8.60    1.05
  -9 -11  13    2.06    0.81
   9 -11 -13    1.17    0.52
   9  11 -13    1.10    0.49
  -9  11  13    0.34    0.38
   7 -11 -13    0.74    0.48
  -7 -11  13    1.03    0.70
  -7  11  13    1.37    0.49
   7  11 -13    0.67    0.42
  -5 -11  13    0.87    0.68
   5 -11 -13    0.38    0.46
   5  11 -13    0.30    0.43
  -5  11  13    1.08    0.41
  -3 -11  13    3.27    0.95
   3 -11 -13    2.31    0.65
   3  11 -13    2.91    0.64
  -3  11  13    2.95    0.59
  -1 -11  13    3.39    0.97
  -1  11  13    3.68    0.67
   1 -11  13    1.62    0.77
   1  11  13    1.77    0.50
   3 -11  13    1.04    0.64
   3  11  13    0.47    0.37
  -5 -11 -13    1.04    0.55
   5 -11  13    2.88    0.86
  -5  11 -13    2.79    0.70
  -7 -11 -13   -0.14    0.41
   7 -11  13    0.05    0.59
  -7  11 -13   -0.01    0.49
   9 -11  13    2.56    0.96
  -9 -11 -13    4.56    0.91
  -9  11 -13    5.16    0.92
   9  11  13    5.13    0.89
  11 -11  13    2.20    0.91
 -11  11 -13    3.93    0.81
  11  11  13    3.36    0.73
  12 -12 -13   72.39    5.73
 -12 -12  13   66.66    6.63
 -12  12  13   63.49    5.59
  12  12 -13   66.77    5.61
 -10 -12  13   13.27    1.99
  10 -12 -13   14.39    1.63
 -10  12  13   14.42    1.41
  10  12 -13   11.41    1.42
  -8 -12  13   71.99    7.06
   8 -12 -13   81.49    6.12
  -8  12  13   70.29    5.95
   8  12 -13   66.11    5.97
   6 -12 -13   25.49    2.29
  -6 -12  13   24.04    2.72
   6  12 -13   18.99    2.11
  -6  12  13   25.38    2.15
  -4 -12  13   35.78    4.12
   4 -12 -13   40.32    3.54
   4  12 -13   36.61    3.44
  -4  12  13   45.63    3.47
  -2 -12  13   40.24    4.06
  -2  12  13   36.70    3.31
   0 -12  13   27.28    3.24
   0  12  13   31.67    2.69
   2 -12  13   51.55    5.72
   2  12  13   61.87    4.85
   4 -12  13   34.93    3.74
   6 -12  13   32.63    3.56
  -6 -12 -13   33.82    3.03
  -6  12 -13   32.50    3.12
 -28   0  14   20.78    1.95
  28   0 -14   12.90    1.72
  26   0 -14  136.34   11.49
 -26   0  14  145.51   12.12
  24   0 -14   38.23    3.55
 -24   0  14   42.98    3.80
 -22   0  14  168.28   14.27
  22   0 -14  166.11   13.57
 -20   0  14   13.97    1.62
  20   0 -14   11.63    1.45
  18   0 -14  179.09   14.26
 -18   0  14  172.63   14.97
 -16   0  14    6.95    1.12
  16   0 -14    9.39    1.14
 -14   0  14  191.88   15.65
  14   0 -14  176.52   14.87
  12   0 -14    4.76    0.80
  12   0 -14    5.22    0.83
 -12   0  14    5.19    0.87
 -10   0  14  254.71   20.73
  10   0 -14  244.38   19.70
  10   0 -14  237.03   19.71
   8   0 -14    5.70    0.91
  -8   0  14    6.74    0.99
   8   0 -14    6.64    0.93
   6   0 -14  262.35   22.12
   6   0 -14  255.56   22.11
  -6   0  14  311.93   23.29
   4   0 -14    4.16    0.74
   4   0 -14    4.54    0.74
  -4   0  14    3.75    0.77
  -2   0  14  250.33   21.04
   2   0 -14  248.40   20.04
   0   0 -14    2.00    0.58
   0   0  14    2.21    0.57
   2   0  14  242.82   20.71
  -2   0 -14  248.51   19.75
  -4   0 -14   55.59    5.15
   4   0  14   66.64    5.39
   6   0  14   95.71    7.78
  -6   0 -14   83.58    7.41
   8   0  14   31.45    3.09
  -8   0 -14   35.11    3.00
  10   0  14   80.26    7.83
 -10   0 -14  104.74    7.60
 -12   0 -14   51.29    4.75
  12   0  14   54.35    4.95
  12   0  14   63.47    5.59
  14   0  14  102.52    8.15
  14   0  14   88.97    8.93
 -14   0 -14   89.06    7.77
  16   0  14   25.96    3.25
 -16   0 -14   33.54    2.88
  16   0  14   32.37    2.91
 -18   0 -14   49.29    4.16
  18   0  14   51.45    4.32
  18   0  14   40.39    4.73
  20   0  14   11.01    1.41
 -20   0 -14   12.83    1.51
  20   0  14    9.44    1.64
 -22   0 -14   44.48    4.06
  22   0  14   46.23    4.22
  22   0  14   47.80    4.73
  29  -1 -14    1.25    0.53
 -29  -1  14    1.86    0.67
 -29   1  14    1.84    0.66
  29   1 -14    1.62    0.57
  27  -1 -14   54.46    5.07
 -27  -1  14   67.70    5.43
  27   1 -14   65.91    5.11
 -27   1  14   52.63    5.34
  25  -1 -14    4.74    0.86
 -25  -1  14    4.16    0.90
 -25   1  14    5.41    0.95
  25   1 -14    5.00    0.88
 -23  -1  14   48.68    4.28
  23  -1 -14   49.00    4.05
 -23   1  14   48.09    4.27
  23   1 -14   41.03    4.02
 -21  -1  14   12.19    1.54
  21  -1 -14   10.68    1.41
  21   1 -14   16.14    1.45
 -21   1  14   10.87    1.48
  19  -1 -14   68.14    5.68
 -19  -1  14   67.38    5.97
 -19   1  14   63.04    5.95
  19   1 -14   71.17    5.69
 -17  -1  14   21.73    2.11
  17  -1 -14   20.93    2.00
  17   1 -14   20.16    1.98
 -17   1  14   18.89    2.06
 -15  -1  14   52.56    4.49
  15  -1 -14   49.31    4.24
  15  -1 -14   42.39    4.16
  15   1 -14   50.05    4.24
 -15   1  14   53.84    4.49
  13  -1 -14   26.75    2.40
  13  -1 -14   26.09    2.36
 -13  -1  14   23.55    2.48
  13   1 -14   25.04    2.37
 -13   1  14   27.42    2.53
  11  -1 -14   26.95    2.48
  11  -1 -14   26.81    2.52
 -11  -1  14   26.62    2.62
  11   1 -14   27.21    2.50
  11   1 -14   27.06    2.51
 -11   1  14   30.95    2.69
   9  -1 -14   15.45    1.59
   9  -1 -14   16.09    1.63
  -9  -1  14   18.47    1.73
   9   1 -14   13.52    1.58
  -9   1  14   12.41    1.71
   9   1 -14   20.17    1.66
   7  -1 -14   12.92    1.41
   7  -1 -14   11.92    1.47
  -7  -1  14   12.98    1.47
   7   1 -14   15.20    1.44
  -7   1  14   14.61    1.51
   7   1 -14   13.14    1.51
  -5  -1  14   21.87    2.32
   5  -1 -14   25.42    2.24
   5  -1 -14   24.02    2.24
   5   1 -14   24.99    2.26
   5   1 -14   23.80    2.23
  -5   1  14   25.16    2.36
   3  -1 -14   12.86    1.49
   3  -1 -14   13.69    1.43
  -3  -1  14   12.59    1.47
   3   1 -14   13.25    1.44
   3   1 -14   15.96    1.44
  -3   1  14   13.48    1.49
   1  -1 -14   73.43    6.29
  -1  -1  14   72.73    6.60
  -1   1  14   80.71    6.61
   1   1 -14   76.55    6.32
  -1  -1 -14   24.80    2.36
   1  -1  14   24.64    2.43
  -1   1 -14   27.53    2.41
  -3  -1 -14   43.33    3.77
   3  -1  14   44.61    3.92
   3   1  14   41.99    3.91
  -3   1 -14   43.79    3.78
   5  -1  14   58.36    5.14
  -5  -1 -14   57.27    4.93
  -5   1 -14   59.05    4.95
  -7  -1 -14   50.11    3.78
   7  -1  14   43.56    3.87
  -7   1 -14   39.39    3.73
   7   1  14   39.26    3.84
   9  -1  14   43.74    3.89
  -9  -1 -14   38.99    3.31
   9  -1  14   33.29    3.40
  -9   1 -14   37.05    3.30
   9   1  14   34.71    3.37
  11  -1  14   43.51    3.89
 -11  -1 -14   40.74    3.76
  11  -1  14   41.46    4.31
 -11   1 -14   46.00    3.80
  13  -1  14    7.16    1.01
  13  -1  14    6.78    1.22
 -13  -1 -14    7.67    1.07
 -13   1 -14    7.92    1.04
  13   1  14    3.28    0.81
  15  -1  14   48.87    4.59
  15  -1  14   34.33    3.98
 -15  -1 -14   51.35    3.97
  15   1  14   40.51    4.00
 -15   1 -14   50.16    3.95
  15   1  14   47.88    4.56
  17  -1  14    4.99    0.86
  17  -1  14    5.36    1.15
 -17  -1 -14    6.13    0.96
  17   1  14    5.41    1.15
  17   1  14    3.30    0.76
 -17   1 -14    4.62    0.87
 -19  -1 -14   35.44    3.11
  19  -1  14   29.52    3.13
  19  -1  14   33.91    3.61
  19   1  14   34.96    3.59
  19   1  14   31.98    3.14
 -19   1 -14   37.08    3.13
  21  -1  14    0.47    0.60
 -21  -1 -14    0.56    0.53
  21  -1  14    0.28    0.51
  21   1  14    0.24    0.43
 -21   1 -14    0.02    0.48
  21   1  14    0.03    0.57
  23  -1  14   25.22    2.39
 -23  -1 -14   25.20    2.36
  23  -1  14   16.39    2.70
 -23   1 -14   24.81    2.33
  23   1  14   23.98    2.71
  23   1  14   23.50    2.33
  28  -2 -14    5.93    0.98
 -28  -2  14    7.26    1.13
 -28   2  14    6.13    1.08
  28   2 -14    7.75    1.03
  26  -2 -14    2.49    0.67
 -26  -2  14    2.14    0.70
  26   2 -14    1.61    0.59
 -26   2  14    1.78    0.64
 -24  -2  14    0.39    0.50
  24  -2 -14    0.18    0.44
  24   2 -14   -0.18    0.36
 -24   2  14    0.36    0.46
  22  -2 -14    0.55    0.46
 -22  -2  14    0.24    0.46
 -22   2  14    1.45    0.55
  22   2 -14    0.88    0.48
  20  -2 -14    0.21    0.43
 -20  -2  14    0.18    0.43
 -20   2  14    0.54    0.52
  20   2 -14   -0.01    0.39
  18  -2 -14   10.30    1.31
 -18  -2  14   11.55    1.40
  18   2 -14    8.28    1.18
 -18   2  14   12.30    1.45
 -16  -2  14    1.04    0.52
  16  -2 -14    1.36    0.52
 -16   2  14    1.45    0.57
  16   2 -14    1.95    0.54
  14  -2 -14   13.44    1.60
 -14  -2  14   14.68    1.63
 -14   2  14   16.76    1.62
  14   2 -14   13.44    1.49
  12  -2 -14    0.74    0.41
  12  -2 -14    0.90    0.45
 -12  -2  14    1.62    0.57
  12   2 -14    1.35    0.48
 -12   2  14    0.67    0.46
  10  -2 -14    0.27    0.41
  10  -2 -14   -0.33    0.33
 -10  -2  14    0.33    0.42
  10   2 -14    0.26    0.40
  10   2 -14   -0.16    0.36
 -10   2  14    1.06    0.51
   8  -2 -14    1.75    0.50
   8  -2 -14    1.76    0.55
  -8  -2  14    1.42    0.51
   8   2 -14    1.48    0.50
   8   2 -14    1.37    0.53
  -8   2  14    1.37    0.55
   6  -2 -14    1.90    0.53
   6  -2 -14    1.83    0.51
  -6  -2  14    2.53    0.58
   6   2 -14    1.89    0.52
   6   2 -14    1.69    0.56
  -6   2  14    1.59    0.53
   4  -2 -14    1.38    0.47
   4  -2 -14    2.10    0.53
  -4  -2  14    0.83    0.49
   4   2 -14    1.66    0.50
  -4   2  14    2.60    0.61
   4   2 -14    1.52    0.53
  -2  -2  14   10.90    1.44
   2  -2 -14   13.36    1.46
   2   2 -14   12.40    1.44
  -2   2  14   13.65    1.44
   0  -2 -14    0.10    0.36
   0  -2  14   -0.07    0.36
   0   2 -14   -0.01    0.38
   0   2  14   -0.18    0.36
  -2  -2 -14    9.69    1.19
   2  -2  14    9.32    1.22
  -2   2 -14    9.04    1.19
   2   2  14    9.76    1.23
   4  -2  14   -0.14    0.37
  -4  -2 -14   -0.18    0.40
  -4   2 -14   -0.11    0.41
   4   2  14    0.41    0.38
   6  -2  14    7.92    1.06
   6  -2  14    7.79    1.27
  -6  -2 -14    8.73    1.11
   6   2  14    6.74    1.03
  -6   2 -14    7.09    1.04
  -8  -2 -14   -0.32    0.41
   8  -2  14   -0.08    0.51
   8  -2  14    0.79    0.45
  -8   2 -14    0.25    0.45
   8   2  14    0.49    0.39
  10  -2  14    8.27    1.22
  10  -2  14   11.65    1.65
 -10  -2 -14   10.47    1.33
  10   2  14    9.79    1.25
 -10   2 -14   10.53    1.30
 -12  -2 -14   -0.10    0.43
  12  -2  14    0.06    0.39
  12  -2  14   -0.04    0.58
  12   2  14    0.14    0.39
 -12   2 -14   -0.21    0.40
  14  -2  14    0.92    0.50
  14  -2  14    1.21    0.68
 -14  -2 -14    0.46    0.52
 -14   2 -14    0.57    0.53
  14   2  14    0.66    0.46
 -16  -2 -14    0.28    0.45
  16  -2  14   -0.43    0.51
  16  -2  14    0.06    0.44
  16   2  14    0.74    0.46
 -16   2 -14    0.15    0.46
  18  -2  14    1.77    0.80
 -18  -2 -14    1.40    0.62
  18  -2  14    1.80    0.60
  18   2  14    0.46    0.71
 -18   2 -14    1.53    0.59
  18   2  14    1.41    0.56
  20  -2  14    2.61    0.69
  20  -2  14    1.88    0.81
 -20  -2 -14    1.43    0.63
  20   2  14    2.08    0.80
  20   2  14    1.60    0.57
 -20   2 -14    1.23    0.59
 -22  -2 -14    2.16    0.72
  22  -2  14    2.40    0.89
  22   2  14    3.89    1.02
 -22   2 -14    2.33    0.68
  22   2  14    2.17    0.66
  29  -3 -14    1.31    0.59
 -29  -3  14    0.42    0.55
 -29   3  14    0.44    0.54
  29   3 -14    0.99    0.52
  27  -3 -14  104.39    8.35
 -27  -3  14   93.80    8.76
  27   3 -14   95.08    8.30
 -27   3  14  110.74    8.81
  25  -3 -14    6.69    1.02
 -25  -3  14    5.22    1.03
 -25   3  14    7.34    1.12
  25   3 -14    7.65    1.05
 -23  -3  14   44.68    4.05
  23  -3 -14   42.15    3.80
 -23   3  14   42.04    4.02
  23   3 -14   44.98    3.80
 -21  -3  14   46.33    4.26
  21  -3 -14   52.01    4.05
  21   3 -14   43.58    4.00
 -21   3  14   44.24    4.23
  19  -3 -14   55.45    4.91
 -19  -3  14   62.48    5.21
  19   3 -14   46.14    4.84
 -19   3  14   70.75    5.23
 -17  -3  14   53.76    4.80
  17  -3 -14   57.18    4.59
 -17   3  14   48.65    4.77
  17   3 -14   53.24    4.54
 -17   3  14   54.17    4.48
 -15  -3  14   90.88    9.17
  15  -3 -14  103.64    8.78
  15   3 -14   96.07    8.72
 -15   3  14  120.52    9.26
 -15   3  14  123.24    8.71
  13  -3 -14   58.08    4.94
 -13  -3  14   47.72    5.12
 -13   3  14   59.10    5.19
  13   3 -14   63.03    4.94
 -13   3  14   63.36    4.85
  11  -3 -14   54.12    4.89
 -11  -3  14   70.87    5.20
  11   3 -14   54.67    4.87
 -11   3  14   54.02    4.79
 -11   3  14   58.06    5.15
   9  -3 -14   49.63    4.25
  -9  -3  14   50.58    4.44
  -9   3  14   44.85    4.43
   9   3 -14   51.77    4.27
   9   3 -14   50.90    4.22
   7  -3 -14   53.57    4.98
  -7  -3  14   62.77    5.30
   7  -3 -14   54.36    5.04
   7   3 -14   61.60    5.07
  -7   3  14   62.97    5.32
   7   3 -14   65.34    5.05
   5  -3 -14   63.97    5.72
  -5  -3  14   66.73    6.01
   5  -3 -14   60.99    5.68
  -5   3  14   72.02    6.04
   5   3 -14   75.98    5.74
   5   3 -14   73.28    5.77
   3  -3 -14  103.80    8.12
  -3  -3  14   89.64    8.49
   3  -3 -14   98.16    8.08
  -3   3  14  100.99    8.52
   3   3 -14   98.60    8.14
   3   3 -14  101.04    8.07
  -1  -3  14   62.76    5.46
   1  -3 -14   59.24    5.18
   1   3 -14   64.16    5.26
   1  -3  14   56.71    5.14
  -1  -3 -14   59.37    4.92
   1   3  14   58.80    5.13
  -1   3 -14   57.34    4.92
  -3  -3 -14   65.00    5.97
   3  -3  14   82.76    6.99
   3  -3  14   69.29    6.27
   3   3  14   75.56    6.30
  -3   3 -14   69.26    6.03
   5  -3  14   19.98    2.20
  -5  -3 -14   17.20    1.79
   5  -3  14   16.11    1.82
  -5   3 -14   18.60    1.84
   5   3  14   20.30    1.88
  -7  -3 -14  111.46    9.34
   7  -3  14  117.77   10.78
   7  -3  14  113.27    9.77
   7   3  14  119.30    9.80
  -7   3 -14  108.05    9.35
   9  -3  14   26.04    2.39
  -9  -3 -14   28.46    2.37
   9  -3  14   24.20    2.74
  -9   3 -14   25.37    2.36
   9   3  14   20.48    2.35
  11  -3  14  104.52    8.46
  11  -3  14   88.33    9.25
 -11  -3 -14   90.31    8.04
 -11   3 -14  100.74    8.09
  11   3  14  102.30    8.43
  13  -3  14    6.64    1.23
  13  -3  14    6.91    0.96
 -13  -3 -14    5.53    0.89
  13   3  14    5.23    0.89
 -13   3 -14    3.51    0.82
  15  -3  14   67.04    6.49
 -15  -3 -14   69.50    5.59
  15  -3  14   60.09    5.76
  15   3  14   67.92    5.77
 -15   3 -14   63.23    5.54
 -17  -3 -14    3.22    0.77
  17  -3  14    2.64    0.88
  17   3  14    2.95    0.68
 -17   3 -14    3.63    0.78
  19  -3  14   73.17    6.00
 -19  -3 -14   61.27    5.13
 -19   3 -14   58.33    5.08
  19   3  14   49.93    5.22
 -21  -3 -14    7.16    1.11
  21  -3  14    5.89    1.26
  21   3  14    6.02    0.98
 -21   3 -14    4.23    0.92
 -28  -4  14   23.95    2.27
  28  -4 -14   22.15    2.14
  28   4 -14   20.95    2.10
 -28   4  14   19.26    2.25
 -26  -4  14   94.67    8.47
  26  -4 -14   83.16    7.99
  26   4 -14  117.56    8.08
 -26   4  14   94.48    8.50
 -24  -4  14   22.09    2.44
  24  -4 -14   21.86    2.28
  24   4 -14   22.62    2.29
 -24   4  14   33.09    2.57
 -22  -4  14   92.77    8.99
  22  -4 -14  105.99    8.56
  22   4 -14  111.19    8.55
 -22   4  14  104.55    9.01
  20  -4 -14    6.31    0.92
 -20  -4  14    5.15    0.93
  20   4 -14    4.08    0.77
 -20   4  14    4.09    0.88
  18  -4 -14  126.71   10.94
 -18  -4  14  139.81   11.53
  18   4 -14  140.21   10.93
 -18   4  14  132.03   11.50
 -18   4  14  131.99   10.85
 -16  -4  14   11.49    1.61
  16  -4 -14   14.73    1.56
 -16   4  14   12.87    1.68
 -16   4  14   15.89    1.47
  16   4 -14   17.02    1.54
 -14  -4  14  235.75   19.13
  14  -4 -14  261.09   18.23
  14   4 -14  226.58   18.15
 -14   4  14  217.31   19.07
 -14   4  14  192.54   18.06
  12  -4 -14    1.11    0.48
 -12  -4  14    1.91    0.56
 -12   4  14    2.45    0.51
 -12   4  14    0.88    0.49
  12   4 -14    1.33    0.50
  10  -4 -14  166.94   13.97
 -10  -4  14  176.88   14.68
 -10   4  14  167.24   13.87
  10   4 -14  176.67   13.96
 -10   4  14  175.48   14.69
   8  -4 -14    0.35    0.42
  -8  -4  14    0.48    0.43
   8   4 -14    0.40    0.40
  -8   4  14    0.42    0.31
  -8   4  14    0.49    0.48
   6  -4 -14  202.28   17.83
  -6  -4  14  233.01   18.73
   6   4 -14  225.64   17.81
  -6   4  14  223.46   18.74
   6   4 -14  223.47   17.86
   4  -4 -14    2.25    0.58
   4  -4 -14    1.21    0.46
  -4  -4  14    2.46    0.59
   4   4 -14    2.98    0.56
   4   4 -14    1.80    0.60
  -4   4  14    2.52    0.61
   2  -4 -14  168.21   15.29
   2   4 -14  214.60   15.40
   0  -4  14    0.82    0.60
   0  -4 -14    0.35    0.41
   0  -4  14    0.35    0.42
   0   4  14    0.66    0.44
   0   4 -14    0.74    0.48
   2  -4  14  100.54    9.62
   2  -4  14   99.78    8.76
  -2   4 -14  114.53    8.43
   2   4  14   93.37    8.75
   4  -4  14    5.08    1.13
  -4  -4 -14    6.83    0.96
   4  -4  14    6.71    0.97
   4   4  14    5.86    0.96
  -4   4 -14    7.01    1.00
  -6  -4 -14  109.84    9.08
   6  -4  14  113.68    9.54
   6  -4  14  111.63   10.49
   6   4  14  109.82    9.53
  -6   4 -14  108.59    9.10
   8  -4  14   26.49    2.68
  -8  -4 -14   35.91    2.68
   8  -4  14   24.02    3.00
   8   4  14   25.36    2.63
  -8   4 -14   30.21    2.63
  10  -4  14  102.95    8.85
  10  -4  14   99.81    9.75
 -10  -4 -14  101.91    8.46
 -10   4 -14  100.93    8.47
  10   4  14  106.31    8.85
 -12  -4 -14   28.22    2.59
  12  -4  14   21.55    2.93
  12   4  14   30.09    2.65
 -12   4 -14   29.10    2.57
  14  -4  14   51.48    5.61
 -14  -4 -14   64.39    4.91
 -14   4 -14   53.46    4.83
  16  -4  14   30.58    3.30
 -16  -4 -14   31.45    2.81
 -16   4 -14   29.11    2.77
  16   4  14   28.45    2.83
  18  -4  14   46.16    5.20
 -18  -4 -14   51.39    4.53
 -18   4 -14   57.41    4.54
 -20  -4 -14   34.50    3.37
  20  -4  14   36.12    3.85
  20   4  14   38.31    3.44
 -20   4 -14   37.12    3.32
  22  -4  14   44.41    4.59
 -27  -5  14    3.49    0.85
  27  -5 -14    5.27    0.88
  27   5 -14    4.62    0.83
 -27   5  14    5.63    1.02
  25  -5 -14   -0.32    0.38
 -25  -5  14   -0.18    0.41
  25   5 -14    0.16    0.43
 -25   5  14    0.33    0.50
  23  -5 -14    6.73    1.09
 -23  -5  14    7.12    1.16
  23   5 -14    9.64    1.16
 -23   5  14    8.77    1.22
  21  -5 -14    5.77    0.95
 -21  -5  14    5.11    0.97
  21   5 -14    5.37    0.87
 -21   5  14    6.09    1.00
 -19  -5  14    3.05    0.72
  19  -5 -14    1.82    0.61
  19   5 -14    2.23    0.59
 -19   5  14    3.21    0.72
 -19   5  14    1.57    0.48
  17  -5 -14   16.67    1.67
 -17  -5  14   16.15    1.74
 -17   5  14   16.55    1.77
  17   5 -14   16.22    1.63
 -17   5  14   14.70    1.55
 -15  -5  14    1.05    0.54
  15  -5 -14    1.97    0.58
 -15   5  14    1.45    0.44
 -15   5  14    1.66    0.61
  15   5 -14    1.57    0.54
  13  -5 -14    0.96    0.49
 -13  -5  14    0.66    0.46
 -13   5  14    0.59    0.46
  13   5 -14    0.40    0.40
 -13   5  14    0.73    0.37
 -11  -5  14   42.76    4.00
  11  -5 -14   41.86    3.80
 -11   5  14   43.65    3.72
 -11   5  14   43.02    3.99
  11   5 -14   47.30    3.79
  -9  -5  14    4.91    0.82
   9  -5 -14    2.95    0.70
  -9   5  14    3.82    0.65
  -9   5  14    4.19    0.80
   9   5 -14    3.39    0.68
   7  -5 -14    1.45    0.52
  -7  -5  14    2.02    0.58
   7   5 -14    1.52    0.50
  -7   5  14    2.18    0.59
  -7   5  14    1.37    0.44
   5  -5 -14    2.33    0.58
  -5  -5  14    1.44    0.55
  -5   5  14    2.31    0.60
   5   5 -14    2.34    0.63
  -5   5  14    2.03    0.48
   5   5 -14    2.96    0.58
   3  -5 -14    6.67    0.89
  -3  -5  14    7.01    1.00
   3  -5 -14    6.75    0.95
  -3  -5  14    7.03    1.25
   3   5 -14    4.69    0.89
   3   5 -14    5.42    0.84
  -3   5  14    6.21    0.96
  -1  -5  14   11.00    1.67
   1  -5 -14   13.25    1.32
  -1  -5  14   10.78    1.43
  -1   5  14   12.55    1.38
   1   5 -14   12.66    1.49
   1  -5  14   13.90    1.97
  -1  -5 -14   14.70    1.46
   1  -5  14   14.45    1.54
  -1   5 -14   14.64    1.65
   1   5  14   13.91    1.57
   3  -5  14   14.99    1.34
   3  -5  14    7.43    1.40
  -3  -5 -14    9.35    1.20
  -3   5 -14    9.91    1.28
   3   5  14    8.91    1.25
  -5  -5 -14    2.22    0.58
   5  -5  14    2.71    0.86
  -5   5 -14    2.36    0.63
   5   5  14    1.78    0.55
   7  -5  14   17.14    2.21
  -7  -5 -14   19.44    1.87
  -7   5 -14   19.46    1.91
   7   5  14   19.06    1.91
  -9  -5 -14    3.33    0.68
   9  -5  14    2.00    0.84
   9   5  14    2.76    0.65
  -9   5 -14    1.40    0.60
  11  -5  14    4.55    1.03
 -11  -5 -14    2.11    0.65
 -11   5 -14    3.04    0.72
  11   5  14    2.98    0.67
  13  -5  14   11.44    1.88
 -13  -5 -14   10.23    1.51
  13   5  14   15.35    1.53
 -13   5 -14   16.34    1.57
 -15  -5 -14    8.42    1.29
  15  -5  14    9.63    1.60
  15   5  14    9.77    1.28
 -15   5 -14   11.42    1.36
  17  -5  14    2.08    0.82
 -17  -5 -14    1.17    0.59
  17   5  14    0.78    0.50
 -17   5 -14    1.93    0.64
 -19  -5 -14    5.04    0.99
  19  -5  14    6.35    1.30
  19   5  14    4.74    0.91
 -19   5 -14    6.93    1.04
  21  -5  14    0.05    0.61
  21   5  14    0.24    0.50
 -21   5 -14    0.10    0.47
  26  -6 -14   30.10    2.45
 -26  -6  14   22.95    2.50
 -26   6  14   21.89    2.51
  24  -6 -14    0.64    0.50
 -24  -6  14    0.53    0.52
 -24   6  14    0.48    0.54
  24   6 -14    0.91    0.47
 -22  -6  14   26.27    2.97
  22  -6 -14   33.59    2.85
  22   6 -14   33.29    2.79
 -22   6  14   29.60    2.96
 -20  -6  14    0.27    0.50
  20  -6 -14    1.52    0.54
  20   6 -14    1.41    0.51
 -20   6  14    0.48    0.52
 -20   6  14    1.13    0.45
 -18  -6  14   28.41    2.99
  18  -6 -14   30.18    2.87
 -18   6  14   32.04    2.78
 -18   6  14   33.19    3.03
  18   6 -14   32.70    2.82
 -16  -6  14    1.32    0.50
  16  -6 -14    1.65    0.56
 -16   6  14    0.87    0.50
  16   6 -14    0.68    0.43
 -16   6  14    0.39    0.36
 -14  -6  14   31.45    3.50
  14  -6 -14   40.20    3.35
  14   6 -14   37.52    3.29
 -14   6  14   35.64    3.50
 -14   6  14   42.60    3.27
  12  -6 -14    0.70    0.47
 -12  -6  14    0.00    0.42
 -12   6  14    0.31    0.43
 -12   6  14    0.15    0.29
  12   6 -14   -0.07    0.37
 -10  -6  14   23.82    2.20
  10  -6 -14   21.53    2.08
 -10   6  14   19.04    1.96
 -10   6  14   23.48    2.19
  10   6 -14   21.17    2.03
   8  -6 -14    0.38    0.44
  -8  -6  14    0.77    0.50
  -8   6  14    0.79    0.38
   8   6 -14    0.21    0.39
  -8   6  14    1.03    0.50
   6  -6 -14   20.87    2.01
  -6  -6  14   19.92    2.06
  -6  -6  14   20.64    2.37
  -6   6  14   20.80    1.89
  -6   6  14   18.19    2.06
   6   6 -14   22.84    1.98
  -4  -6  14    0.21    0.59
  -4  -6  14    0.18    0.41
   4  -6 -14    0.56    0.46
   4   6 -14    0.54    0.47
   4   6 -14    0.09    0.37
  -4   6  14    0.38    0.44
  -4   6  14    0.19    0.30
  -2  -6  14   39.71    3.87
   2   6 -14   34.19    3.27
  -2   6  14   37.43    3.41
   0  -6  14    3.30    0.89
   0  -6 -14    3.19    0.63
   0   6 -14    2.88    0.70
   0   6  14    3.30    0.69
  -2  -6 -14   57.76    5.04
   2  -6  14   64.86    5.98
  -2   6 -14   60.12    5.13
   2   6  14   58.89    5.32
   4  -6  14    1.11    0.66
  -4  -6 -14    0.54    0.43
   4   6  14    0.62    0.46
  -4   6 -14    0.48    0.47
  -6  -6 -14   52.34    3.70
   6  -6  14   44.75    4.30
   6   6  14   37.88    3.74
  -6   6 -14   33.19    3.61
   8  -6  14    1.17    0.71
  -8  -6 -14    1.52    0.54
  -8   6 -14    0.30    0.47
   8   6  14    0.63    0.48
 -10  -6 -14   17.96    1.89
  10  -6  14   16.25    2.39
  10   6  14   21.48    1.98
 -10   6 -14   17.94    1.92
  12  -6  14    5.95    1.27
 -12  -6 -14    6.52    1.04
  12   6  14    7.62    1.06
 -12   6 -14    7.55    1.11
  14  -6  14   17.19    2.57
 -14  -6 -14   23.98    2.11
  14   6  14   20.67    2.06
 -14   6 -14   18.75    2.05
  16  -6  14    4.40    1.18
 -16  -6 -14    5.47    1.01
  16   6  14    8.65    1.11
 -16   6 -14    6.38    1.01
  18  -6  14   14.17    1.98
 -18  -6 -14   12.28    1.56
 -18   6 -14   12.80    1.57
  18   6  14   12.05    1.51
  20  -6  14    0.41    0.65
 -25  -7  14   20.11    2.17
 -23  -7  14  113.21    9.77
  23  -7 -14  117.99    9.25
  23   7 -14  106.13    9.18
  21  -7 -14   14.98    1.58
 -21  -7  14   10.75    1.53
 -21   7  14   12.22    1.37
  21   7 -14   10.65    1.36
 -21   7  14   11.63    1.58
 -19  -7  14  101.55    8.74
  19  -7 -14   95.90    8.28
 -19   7  14  103.52    8.20
  19   7 -14  104.62    8.25
 -19   7  14   94.88    8.69
 -17  -7  14   17.13    1.82
  17  -7 -14   13.82    1.74
  17   7 -14   15.36    1.64
 -17   7  14   15.47    1.57
 -17   7  14   20.63    1.88
  15  -7 -14   93.73    6.77
 -15  -7  14   89.71    7.12
 -15   7  14   64.88    6.59
  15   7 -14   80.16    6.66
 -15   7  14   79.80    7.07
 -13  -7  14   73.29    6.57
  13  -7 -14   71.21    6.23
 -13   7  14   75.71    6.56
  13   7 -14   75.93    6.18
 -13   7  14   75.42    6.14
 -11  -7  14   53.82    5.84
  11  -7 -14   67.60    5.62
 -11   7  14   69.17    5.90
  11   7 -14   78.26    5.59
 -11   7  14   64.57    5.52
   9  -7 -14   61.92    5.70
   9   7 -14   78.05    5.69
  -9   7  14   64.39    5.60
  -9   7  14   67.51    5.98
  -7  -7  14   82.38    7.96
   7  -7 -14   87.56    6.91
  -7   7  14   75.33    6.77
   7   7 -14   87.42    6.83
  -7   7  14   81.57    7.21
  -5  -7  14   73.59    6.90
   5  -7 -14   73.93    5.94
  -5   7  14   71.75    5.83
   5   7 -14   67.38    5.84
  -5   7  14   66.76    6.19
  -3  -7  14   44.10    4.49
   3  -7 -14   48.84    3.83
   3   7 -14   44.97    3.75
  -3   7  14   36.64    3.67
  -3   7  14   46.43    3.98
  -1  -7  14  115.23    9.04
  -1   7  14   77.44    8.03
   1   7 -14   95.03    7.76
  -1  -7 -14   53.25    3.90
   1  -7  14   37.77    4.50
  -1   7 -14   43.40    3.94
   1   7  14   44.08    4.07
   3  -7  14  118.66   10.45
  -3  -7 -14  101.16    8.94
  -3   7 -14  101.47    9.01
   3   7  14  118.07    9.44
   5  -7  14   42.44    4.66
  -5  -7 -14   52.81    4.01
   5   7  14   44.17    4.11
  -5   7 -14   43.52    4.01
   7  -7  14   92.51    9.43
  -7  -7 -14   97.11    8.16
  -7   7 -14  106.17    8.22
   7   7  14   99.35    8.56
   9  -7  14   17.06    2.24
  -9  -7 -14   16.40    1.69
   9   7  14   14.12    1.67
  -9   7 -14   16.97    1.75
  11  -7  14  125.42   10.23
 -11  -7 -14   97.87    8.73
 -11   7 -14  106.69    8.77
  11   7  14   99.19    9.13
 -13  -7 -14    9.01    1.25
  13  -7  14    9.49    1.58
  13   7  14    8.64    1.18
 -13   7 -14    7.93    1.19
 -15  -7 -14   78.02    6.49
  15  -7  14   73.20    7.47
 -15   7 -14   76.44    6.45
  15   7  14   78.43    6.74
 -17  -7 -14    8.11    1.20
  17  -7  14    8.20    1.47
 -17   7 -14    8.72    1.16
  17   7  14    5.32    0.96
  22  -8 -14   51.82    4.53
 -22  -8  14   50.62    4.78
 -22   8  14   54.10    4.45
  20  -8 -14   12.75    1.71
 -20  -8  14   14.90    1.89
  20   8 -14   17.00    1.65
 -20   8  14   17.40    1.60
  18  -8 -14   60.06    5.65
 -18   8  14   67.68    5.58
  18   8 -14   73.23    5.65
  16  -8 -14    3.29    0.77
  16   8 -14    5.27    0.80
 -16   8  14    5.02    0.75
  14  -8 -14   51.51    4.38
  14   8 -14   54.55    4.33
 -14   8  14   50.03    4.59
 -14   8  14   46.75    4.24
  12  -8 -14    1.22    0.53
 -12   8  14    0.38    0.36
 -12   8  14    0.47    0.51
  12   8 -14    0.72    0.46
 -10  -8  14  108.89   10.94
  10  -8 -14  120.92    9.54
  10   8 -14  115.99    9.46
 -10   8  14  124.96   10.02
 -10   8  14  109.22    9.41
   8  -8 -14    0.21    0.41
  -8  -8  14    0.23    0.56
   8   8 -14   -0.09    0.36
  -8   8  14   -0.02    0.31
  -8   8  14   -0.47    0.35
  -6  -8  14  105.87    9.01
   6  -8 -14   91.46    7.75
   6   8 -14   91.67    7.68
  -6   8  14   87.76    8.10
  -4  -8  14    2.14    0.83
   4  -8 -14    2.43    0.67
   4   8 -14    1.70    0.52
  -4   8  14    1.40    0.58
  -4   8  14    2.53    0.55
  -2  -8  14   73.25    7.75
  -2   8  14   73.96    7.00
  -2   8  14   92.53    6.65
   0  -8  14    2.38    0.91
   0   8 -14    4.91    0.89
   0   8  14    3.99    0.74
   2  -8  14   82.41    8.08
  -2  -8 -14   89.85    6.96
  -2   8 -14   78.25    7.02
   2   8  14   84.37    7.32
   4  -8  14    7.68    1.40
  -4  -8 -14    5.28    0.98
   4   8  14   11.65    1.28
  -4   8 -14   10.48    1.26
   6  -8  14   54.92    6.53
  -6   8 -14   73.49    5.74
   6   8  14   72.20    5.95
   8  -8  14    8.33    1.50
  -8  -8 -14    7.30    1.12
   8   8  14    8.83    1.20
  -8   8 -14   10.24    1.26
 -10  -8 -14   32.82    2.92
  10  -8  14   28.37    3.39
  10   8  14   33.93    2.99
 -10   8 -14   30.16    2.90
 -12  -8 -14    6.82    1.08
  12  -8  14    6.87    1.34
 -12   8 -14    7.21    1.11
  12   8  14    6.95    1.05
  14  -8  14   26.40    3.16
 -14  -8 -14   27.72    2.73
  14   8  14   29.21    2.78
 -14   8 -14   31.20    2.73
  16  -8  14    9.74    1.63
 -16   8 -14   10.32    1.32
  16   8  14    9.88    1.30
  21  -9 -14    1.97    0.61
 -21   9  14    0.52    0.42
  21   9 -14    1.77    0.51
  19  -9 -14   -0.02    0.43
 -19   9  14   -0.06    0.36
  19   9 -14    0.20    0.41
  17  -9 -14   -0.03    0.41
 -17   9  14    0.01    0.34
  15  -9 -14    1.01    0.55
 -15   9  14    1.76    0.50
  15   9 -14    1.20    0.49
  13  -9 -14    0.23    0.45
  13   9 -14    1.18    0.45
 -13   9  14    0.39    0.37
 -11  -9  14    0.20    0.60
  11  -9 -14   -0.13    0.39
 -11   9  14   -0.11    0.32
  11   9 -14    0.26    0.41
  -9  -9  14    0.10    0.57
   9  -9 -14    0.52    0.46
  -9   9  14    0.07    0.51
  -9   9  14    0.38    0.38
   9   9 -14   -0.22    0.36
  -7  -9  14    0.69    0.61
   7  -9 -14    0.26    0.47
  -7   9  14    0.49    0.37
  -7   9  14    1.53    0.55
   7   9 -14    0.69    0.43
  -5  -9  14   -0.08    0.60
   5  -9 -14   -0.35    0.37
  -5   9  14    0.46    0.43
   5   9 -14    0.10    0.39
  -5   9  14    0.34    0.34
  -3  -9  14    3.35    0.93
  -3   9  14    1.92    0.52
  -3   9  14    2.95    0.70
  -1  -9  14    1.74    0.80
  -1   9  14    4.37    0.68
  -1   9  14    4.26    0.81
   1  -9  14    0.05    0.60
   1   9  14    0.62    0.47
  -1   9 -14    0.43    0.51
  -3  -9 -14    2.05    0.59
   3  -9  14    1.55    0.72
   3   9  14    1.72    0.60
  -3   9 -14    2.32    0.68
  -5  -9 -14    0.55    0.46
   5  -9  14    0.27    0.63
  -5   9 -14    1.06    0.57
   5   9  14    0.66    0.47
   7  -9  14    0.21    0.63
  -7  -9 -14    0.75    0.48
   7   9  14    0.28    0.43
  -7   9 -14    0.29    0.48
   9  -9  14    2.06    0.77
  -9  -9 -14    0.25    0.48
   9   9  14    0.19    0.44
  -9   9 -14    1.03    0.57
 -11  -9 -14    2.64    0.69
  11  -9  14    3.31    0.94
 -11   9 -14    3.42    0.75
  11   9  14    2.06    0.64
  13  -9  14    4.26    1.10
 -13   9 -14    3.56    0.78
  13   9  14    3.02    0.73
  18 -10 -14   67.03    5.92
  18  10 -14   72.24    5.86
 -18  10  14   70.54    5.84
  16 -10 -14    0.78    0.50
 -16  10  14    1.20    0.44
  16  10 -14    0.76    0.46
  14 -10 -14   79.78    6.52
 -14 -10  14   78.43    7.60
  14  10 -14   72.87    6.41
 -14  10  14   79.76    6.41
  12 -10 -14    0.32    0.44
 -12 -10  14   -0.20    0.55
  12  10 -14   -0.27    0.36
 -12  10  14    0.54    0.37
  10 -10 -14   61.62    5.17
 -10 -10  14   54.76    5.95
 -10  10  14   63.19    5.05
  -8 -10  14    0.49    0.66
   8 -10 -14    0.30    0.43
  -8  10  14    0.73    0.39
   8  10 -14    0.47    0.43
  -6 -10  14   39.17    4.05
   6 -10 -14   38.51    3.45
   6  10 -14   39.22    3.40
  -6  10  14   38.24    3.34
  -4 -10  14    6.87    1.32
   4 -10 -14    6.00    1.00
  -4  10  14    5.47    0.84
   4  10 -14    5.57    0.85
  -2 -10  14   60.43    5.85
  -2  10  14   56.79    4.87
   0 -10  14   13.25    2.03
   0  10  14   13.75    1.72
   0  10  14   15.95    1.50
   2 -10  14   24.25    2.85
   2  10  14   25.59    2.49
  -4 -10 -14   -0.21    0.37
   4 -10  14    0.80    0.65
  -4  10 -14   -0.08    0.49
   4  10  14    0.37    0.48
  -6 -10 -14   67.17    6.05
   6 -10  14   75.52    7.13
   6  10  14   74.15    6.39
  -6  10 -14   73.19    6.13
   8 -10  14    1.21    0.71
  -8 -10 -14    1.30    0.58
  -8  10 -14    2.14    0.69
   8  10  14    2.02    0.65
 -10 -10 -14   73.54    5.82
  10 -10  14   52.17    6.62
  10  10  14   71.66    6.04
 -10  10 -14   74.55    5.83
  12 -10  14   11.46    1.98
 -12 -10 -14   16.04    1.82
  12  10  14   16.98    1.77
 -12  10 -14   16.92    1.83
 -15  11  14   33.95    3.05
 -13 -11  14   24.32    3.28
  13 -11 -14   29.28    2.81
 -13  11  14   33.52    2.72
  13  11 -14   32.36    2.74
 -11 -11  14   61.77    5.72
  11 -11 -14   49.16    4.83
  11  11 -14   59.69    4.79
   9 -11 -14   51.08    4.48
  -9 -11  14   44.02    5.16
  -9  11  14   55.71    4.40
   9  11 -14   54.68    4.43
   7 -11 -14   67.06    5.72
  -7 -11  14   64.01    6.64
  -7  11  14   69.89    5.62
  -5 -11  14   40.05    4.74
   5 -11 -14   49.56    4.11
   5  11 -14   45.70    4.01
  -5  11  14   50.22    4.00
  -3 -11  14   49.28    5.06
  -3  11  14   49.80    4.22
  -1 -11  14   77.87    7.13
  -1  11  14   69.19    6.01
   1 -11  14   21.16    2.61
   1  11  14   22.93    2.07
   3 -11  14   63.45    6.16
  -3 -11 -14   60.51    5.24
  -5 -11 -14   13.81    1.51
   5 -11  14   12.01    1.89
  -5  11 -14   10.38    1.50
   7 -11  14   43.86    5.18
  -7 -11 -14   58.48    4.51
  -7  11 -14   51.62    4.52
  -8 -12  14    0.68    0.66
   8 -12 -14    0.27    0.49
   8  12 -14    0.47    0.45
   6 -12 -14   16.82    1.68
  -6 -12  14   12.98    2.05
   6  12 -14   14.74    1.64
  -6  12  14   14.68    1.50
  -4 -12  14   -0.11    0.59
  -4  12  14    0.04    0.35
  -2 -12  14   20.18    2.27
  -2  12  14   15.65    1.68
   0 -12  14    2.57    0.92
   0  12  14    3.11    0.60
 -28   0  15   -0.29    0.40
  28   0 -15    0.64    0.47
  26   0 -15   -0.18    0.41
 -26   0  15   -0.27    0.41
 -24   0  15   -0.13    0.44
  24   0 -15   -0.08    0.41
  22   0 -15   -0.03    0.39
 -22   0  15   -0.02    0.45
 -20   0  15   -0.50    0.38
  20   0 -15   -0.06    0.40
 -18   0  15    0.03    0.41
  18   0 -15   -0.37    0.36
 -16   0  15    0.69    0.48
  16   0 -15   -0.41    0.36
  14   0 -15    0.02    0.39
 -14   0  15   -0.18    0.38
  12   0 -15   -0.25    0.35
  12   0 -15    0.63    0.44
 -12   0  15    0.10    0.43
  10   0 -15    0.30    0.40
  10   0 -15   -0.02    0.39
 -10   0  15   -0.53    0.31
   8   0 -15   -0.30    0.39
  -8   0  15    0.87    0.43
   8   0 -15    0.11    0.40
   6   0 -15   -0.47    0.35
  -6   0  15   -0.10    0.38
   6   0 -15    0.14    0.39
  -4   0  15    0.19    0.38
   4   0 -15    0.13    0.42
   2   0 -15   -0.01    0.40
  -2   0  15   -0.44    0.34
   0   0  15    0.16    0.38
   0   0 -15   -0.62    0.35
  -2   0 -15   -0.21    0.39
   2   0  15    0.37    0.41
   4   0  15   -0.13    0.36
  -4   0 -15   -0.24    0.43
   6   0  15    0.39    0.39
  -6   0 -15   -0.12    0.39
  -8   0 -15   -0.26    0.40
   8   0  15   -0.17    0.36
 -10   0 -15   -0.12    0.42
  10   0  15    0.08    0.40
 -12   0 -15    0.25    0.42
  12   0  15   -0.80    0.32
 -14   0 -15   -0.16    0.42
  14   0  15   -0.32    0.40
 -16   0 -15   -0.05    0.44
  16   0  15   -0.22    0.35
 -18   0 -15   -0.15    0.43
  18   0  15    0.58    0.45
  18   0  15    0.50    0.62
 -20   0 -15   -0.04    0.49
  20   0  15    0.30    0.65
  20   0  15   -0.17    0.37
 -27  -1  15    5.07    0.90
  27  -1 -15    4.36    0.81
 -27   1  15    4.02    0.85
  27   1 -15    2.87    0.71
 -25  -1  15   53.30    4.61
  25  -1 -15   39.82    4.27
 -25   1  15   59.40    4.62
  25   1 -15   51.19    4.33
  23  -1 -15    2.03    0.59
 -23  -1  15    1.48    0.59
  23   1 -15    1.75    0.56
 -23   1  15    1.07    0.54
  21  -1 -15   76.67    6.86
 -21  -1  15   88.35    7.25
  21   1 -15   82.25    6.89
 -21   1  15   83.47    7.28
  19  -1 -15    2.30    0.63
 -19  -1  15    3.30    0.75
  19   1 -15    2.79    0.65
 -19   1  15    3.01    0.74
  17  -1 -15   72.77    6.08
 -17  -1  15   84.99    6.41
  17   1 -15   63.08    6.02
 -17   1  15   69.80    6.38
 -15  -1  15    1.31    0.55
  15  -1 -15    0.64    0.46
 -15   1  15    0.12    0.40
  15   1 -15    0.69    0.44
  13  -1 -15   74.84    6.50
  13  -1 -15   80.35    6.53
 -13  -1  15   80.94    6.85
  13   1 -15   82.20    6.53
 -13   1  15   72.92    6.83
 -11  -1  15    1.05    0.51
  11  -1 -15    0.51    0.46
  11  -1 -15    1.32    0.47
  11   1 -15    0.71    0.48
 -11   1  15    1.09    0.47
  11   1 -15    0.71    0.46
  -9  -1  15   90.23    9.63
   9  -1 -15  114.61    9.21
   9  -1 -15  129.64    9.26
   9   1 -15  109.31    9.22
  -9   1  15  119.25    9.68
   9   1 -15  114.17    9.22
   7  -1 -15    3.51    0.69
  -7  -1  15    2.62    0.65
   7  -1 -15    3.15    0.65
   7   1 -15    2.59    0.61
   7   1 -15    2.91    0.66
  -7   1  15    2.71    0.66
  -5  -1  15  106.84    9.46
   5  -1 -15  123.08    9.06
   5  -1 -15  109.76    9.03
  -5   1  15  110.31    9.49
   5   1 -15  103.42    9.02
   5   1 -15  108.78    9.02
  -3  -1  15   14.99    1.61
   3  -1 -15   14.90    1.53
  -3   1  15   13.66    1.56
   3   1 -15   14.77    1.56
   1  -1 -15   85.11    7.48
  -1  -1  15  102.53    7.89
   1   1 -15  102.41    7.55
  -1   1  15   75.47    7.83
   1  -1  15   23.80    2.21
  -1  -1 -15   20.28    2.11
  -1   1 -15   22.13    2.15
   1   1  15   23.05    2.21
  -3  -1 -15  115.58    8.60
  -3   1 -15  101.62    8.58
   3   1  15   96.46    8.94
  -5  -1 -15   70.57    5.87
   5  -1  15   80.47    6.16
  -5   1 -15   70.69    5.88
   5   1  15   59.17    6.07
  -7  -1 -15   46.52    3.73
   7   1  15   45.10    3.86
  -7   1 -15   35.20    3.67
  -9  -1 -15   17.83    1.90
   9  -1  15   17.87    1.93
  -9   1 -15   18.71    1.89
   9   1  15   20.51    1.93
 -11  -1 -15   32.80    2.80
  11  -1  15   26.82    2.81
 -11   1 -15   31.27    2.79
 -13  -1 -15   16.37    1.80
  13   1  15   16.29    1.66
 -13   1 -15   12.41    1.67
  15  -1  15   19.62    2.16
 -15  -1 -15   21.49    2.16
  15  -1  15   26.05    2.62
 -15   1 -15   21.94    2.16
  15   1  15   20.48    2.14
  17  -1  15   22.05    2.23
 -17  -1 -15   20.47    2.18
  17  -1  15   22.51    2.60
 -17   1 -15   22.50    2.19
  17   1  15   22.64    2.22
 -19  -1 -15   18.19    1.89
  19  -1  15   16.86    2.32
  19  -1  15   20.21    1.93
 -19   1 -15   16.06    1.93
  19   1  15   16.33    1.87
  21  -1  15   20.13    1.99
  21  -1  15   14.87    2.30
 -21  -1 -15   18.22    1.93
  21   1  15   17.86    1.90
 -28  -2  15   27.95    2.74
 -28   2  15   24.41    2.58
  26  -2 -15   61.58    6.01
 -26  -2  15   76.34    6.41
  26   2 -15   78.99    6.07
 -26   2  15   72.33    6.40
  24  -2 -15   32.33    3.00
 -24  -2  15   31.85    3.15
 -24   2  15   34.49    3.21
  24   2 -15   33.75    3.01
  22  -2 -15   72.86    5.82
 -22  -2  15   68.24    6.10
 -22   2  15   68.16    6.09
  22   2 -15   65.88    5.78
  20  -2 -15   76.06    6.49
 -20  -2  15   87.74    6.86
  20   2 -15   77.59    6.49
 -20   2  15   70.08    6.80
  18  -2 -15   67.97    5.50
 -18  -2  15   62.32    5.74
 -18   2  15   71.20    5.78
  18   2 -15   58.31    5.43
 -16  -2  15   88.64    7.97
  16  -2 -15   93.78    7.62
  16  -2 -15   92.34    7.63
 -16   2  15   93.38    7.99
  16   2 -15   90.94    7.58
  14  -2 -15   52.87    4.74
 -14  -2  15   55.56    5.00
  14  -2 -15   55.09    4.70
 -14   2  15   61.44    5.01
  14   2 -15   53.55    4.72
  12  -2 -15  132.98    9.74
  12  -2 -15  122.26    9.75
 -12  -2  15  113.51   10.21
 -12   2  15  108.59   10.19
  12   2 -15  118.22    9.73
  10  -2 -15   48.38    3.93
 -10  -2  15   36.57    4.05
  10  -2 -15   48.58    3.88
  10   2 -15   49.36    3.97
  10   2 -15   42.01    3.89
 -10   2  15   47.52    4.09
  -8  -2  15  127.29   10.60
   8  -2 -15  125.46   10.10
   8  -2 -15  111.93   10.05
   8   2 -15  127.19   10.08
  -8   2  15  136.85   10.63
   8   2 -15  113.61   10.08
   6  -2 -15   20.58    1.86
  -6  -2  15   20.33    1.98
   6  -2 -15   17.50    1.84
   6   2 -15   19.21    1.84
  -6   2  15   19.19    1.96
   6   2 -15   17.17    1.87
   4  -2 -15  143.72   13.10
  -4  -2  15  178.36   13.82
   4   2 -15  150.26   13.13
  -4   2  15  177.32   13.82
  -2  -2  15   37.62    3.46
   2  -2 -15   37.94    3.31
   2   2 -15   38.62    3.35
  -2   2  15   36.36    3.45
   0  -2 -15  137.69   11.92
   0  -2  15  153.86   12.56
   0   2 -15  162.38   11.99
   0   2  15  135.62   12.52
  -2  -2 -15   41.05    3.52
   2  -2  15   41.11    3.68
   2   2  15   40.32    3.67
  -2   2 -15   38.10    3.53
   4  -2  15   78.90    7.93
  -4  -2 -15   94.53    7.63
  -4   2 -15   92.51    7.65
   4   2  15  103.94    8.00
   6  -2  15    6.54    1.01
  -6  -2 -15    6.99    0.99
  -6   2 -15    5.14    0.93
   6   2  15    8.13    1.01
  -8  -2 -15  115.01    8.06
   8  -2  15   91.28    8.36
   8   2  15   90.65    8.35
  -8   2 -15   92.32    8.00
  10  -2  15    0.35    0.43
 -10  -2 -15    0.29    0.45
  10  -2  15    0.92    0.65
  10   2  15    0.53    0.44
 -10   2 -15    0.88    0.52
  12  -2  15   87.89    8.73
 -12  -2 -15   94.91    7.59
  12  -2  15   91.86    7.93
  12   2  15   91.05    7.91
 -12   2 -15   89.50    7.58
  14  -2  15    2.55    0.68
  14  -2  15    1.74    0.79
 -14  -2 -15    2.31    0.65
  14   2  15    3.21    0.70
 -14   2 -15    3.18    0.73
  16  -2  15  144.38   11.28
 -16  -2 -15  101.70    9.65
  16  -2  15  117.17   10.14
 -16   2 -15  113.97    9.69
  18  -2  15   -0.17    0.40
  18  -2  15    0.05    0.64
 -18  -2 -15    0.39    0.51
  18   2  15    0.14    0.43
 -18   2 -15    0.09    0.44
  20  -2  15   72.83    7.28
 -20  -2 -15   72.01    6.31
  20  -2  15   73.90    6.72
  20   2  15   81.31    6.57
 -20   2 -15   71.79    6.29
 -27  -3  15    2.16    0.68
  27  -3 -15    1.51    0.58
  27   3 -15    1.61    0.55
 -27   3  15    0.32    0.57
 -25  -3  15   39.95    3.49
  25  -3 -15   33.39    3.25
 -25   3  15   37.91    3.47
  25   3 -15   35.75    3.25
 -23  -3  15    0.41    0.50
  23  -3 -15    0.49    0.44
  23   3 -15    1.14    0.50
 -23   3  15    0.45    0.50
  21  -3 -15   23.11    2.23
 -21  -3  15   23.95    2.35
 -21   3  15   22.22    2.36
  21   3 -15   23.54    2.22
  19  -3 -15    0.58    0.45
 -19  -3  15   -0.05    0.41
  19   3 -15    0.21    0.42
 -19   3  15    0.39    0.46
 -17  -3  15   38.25    3.34
  17  -3 -15   39.10    3.14
  17   3 -15   34.66    3.09
 -17   3  15   31.98    3.25
 -17   3  15   31.47    3.00
  15  -3 -15    0.82    0.49
 -15  -3  15    0.95    0.51
  15   3 -15    0.43    0.44
 -15   3  15    0.47    0.45
  13  -3 -15   71.43    6.02
 -13  -3  15   73.74    6.32
  13   3 -15   71.62    5.99
 -13   3  15   70.16    6.32
  11  -3 -15   -0.44    0.35
  11  -3 -15    0.55    0.38
 -11  -3  15    0.36    0.45
 -11   3  15    0.16    0.44
  11   3 -15    0.46    0.42
   9  -3 -15   31.49    2.79
   9  -3 -15   33.27    2.86
  -9  -3  15   30.45    2.95
   9   3 -15   27.34    2.77
  -9   3  15   34.97    3.00
   7  -3 -15    2.09    0.59
   7  -3 -15    2.42    0.58
  -7  -3  15    2.19    0.59
   7   3 -15    1.49    0.53
  -7   3  15    2.15    0.62
   7   3 -15    1.77    0.59
   5  -3 -15   13.22    1.59
  -5  -3  15   13.04    1.67
   5  -3 -15   17.12    1.67
   5   3 -15   17.43    1.66
  -5   3  15   18.26    1.76
   5   3 -15   20.36    1.76
   3  -3 -15    5.83    0.91
  -3  -3  15    6.69    0.99
   3   3 -15    7.65    1.05
  -3   3  15    7.41    1.04
  -1  -3  15   24.09    2.07
   1  -3 -15   17.69    1.90
   1   3 -15   23.02    2.01
  -1   3  15   16.31    1.97
   1  -3  15    6.29    0.93
  -1  -3 -15    5.34    0.85
   1   3  15    4.52    0.83
  -1   3 -15    5.37    0.89
   3  -3  15   37.86    3.35
  -3  -3 -15   32.22    3.16
  -3   3 -15   34.29    3.22
   3   3  15   39.77    3.34
  -5  -3 -15   22.57    2.01
   5  -3  15   19.73    2.03
  -5   3 -15   20.35    2.01
   5   3  15   18.38    2.02
   7  -3  15   26.86    3.06
   7  -3  15   27.34    2.68
  -7  -3 -15   31.40    2.61
  -7   3 -15   26.64    2.59
   7   3  15   27.30    2.67
   9  -3  15   18.71    2.10
   9  -3  15   16.46    1.74
  -9  -3 -15   13.36    1.76
   9   3  15   17.02    1.74
  -9   3 -15   17.31    1.76
  11  -3  15   27.43    3.32
  11  -3  15   28.89    2.93
 -11  -3 -15   29.47    2.84
 -11   3 -15   33.12    2.88
  11   3  15   34.78    2.95
  13  -3  15    9.34    1.14
  13  -3  15    6.58    1.31
 -13  -3 -15    6.18    1.01
  13   3  15    4.88    0.90
 -13   3 -15    6.65    1.05
  15  -3  15   22.44    2.62
  15  -3  15   21.47    2.27
 -15  -3 -15   24.27    2.26
  15   3  15   21.53    2.24
 -15   3 -15   23.06    2.21
  17  -3  15    4.75    1.07
 -17  -3 -15    4.58    0.88
  17   3  15    4.88    0.83
 -17   3 -15    3.89    0.82
 -19  -3 -15    2.13    0.71
  19  -3  15    2.28    0.90
 -19   3 -15    3.27    0.75
  19   3  15    2.69    0.68
 -26  -4  15   13.12    1.68
  26  -4 -15   12.68    1.55
 -26   4  15   14.58    1.71
  26   4 -15   11.98    1.50
 -24  -4  15    6.34    1.08
  24  -4 -15    7.57    1.04
  24   4 -15    7.33    1.02
 -24   4  15    5.34    1.06
 -22  -4  15    6.82    1.09
  22  -4 -15    7.93    1.07
  22   4 -15    6.24    0.96
 -22   4  15    6.20    1.07
 -20  -4  15   10.23    1.41
  20  -4 -15   11.09    1.36
  20   4 -15   11.54    1.34
 -20   4  15    8.77    1.35
 -18  -4  15   10.50    1.37
  18  -4 -15    9.05    1.28
 -18   4  15   11.27    1.23
  18   4 -15   10.02    1.27
 -18   4  15   10.23    1.40
 -16  -4  15   16.91    1.93
  16  -4 -15   20.01    1.87
 -16   4  15   16.84    1.89
  16   4 -15   18.35    1.82
 -16   4  15   18.76    1.73
  14  -4 -15   12.55    1.49
 -14  -4  15   12.96    1.57
 -14   4  15   12.20    1.53
  14   4 -15   14.80    1.42
 -14   4  15   11.46    1.29
 -12  -4  15    8.59    1.15
  12  -4 -15    7.98    1.09
 -12   4  15    7.51    0.95
 -12   4  15    6.39    1.04
  12   4 -15    6.62    1.03
 -10  -4  15    9.60    1.24
  10  -4 -15    9.81    1.24
  10   4 -15    7.95    1.12
 -10   4  15    9.05    1.24
  -8  -4  15    4.95    0.89
   8  -4 -15    4.09    0.76
   8  -4 -15    6.08    0.93
   8   4 -15    4.49    0.80
  -8   4  15    6.52    0.94
  -6  -4  15   11.71    1.31
   6  -4 -15    8.29    1.17
   6  -4 -15    7.96    1.08
  -6   4  15    6.24    1.11
   6   4 -15    8.63    1.20
   6   4 -15   11.76    1.20
   4  -4 -15   10.78    1.25
  -4  -4  15    9.58    1.32
  -4   4  15   10.24    1.33
   4   4 -15   11.28    1.36
   2  -4 -15    1.50    0.48
  -2  -4  15    0.55    0.46
   2   4 -15    0.82    0.51
  -2   4  15    0.23    0.42
   0  -4  15    3.14    0.79
   0  -4 -15    5.38    0.84
   0   4  15    7.37    0.97
   0   4 -15    6.61    0.96
  -2  -4 -15    0.95    0.46
   2  -4  15    0.09    0.42
   2   4  15    0.94    0.42
  -2   4 -15   -0.09    0.40
  -4  -4 -15   31.91    2.66
   4  -4  15   30.03    2.79
   4  -4  15   32.58    3.20
   4   4  15   28.01    2.74
  -4   4 -15   23.27    2.63
   6  -4  15    2.21    0.81
  -6  -4 -15    2.31    0.62
   6  -4  15    1.89    0.61
  -6   4 -15    1.43    0.58
   6   4  15    1.94    0.59
  -8  -4 -15   22.91    2.37
   8  -4  15   22.73    2.80
   8  -4  15   26.36    2.49
  -8   4 -15   25.42    2.40
   8   4  15   28.02    2.47
  10  -4  15    3.77    0.98
 -10  -4 -15    4.53    0.82
  10   4  15    4.03    0.79
 -10   4 -15    3.64    0.79
 -12  -4 -15   20.70    2.03
  12  -4  15   15.14    2.40
 -12   4 -15   22.55    2.03
  12   4  15   20.26    2.03
  14  -4  15    0.97    0.69
 -14  -4 -15    0.92    0.52
 -14   4 -15    0.24    0.46
  14   4  15    0.15    0.41
 -16  -4 -15    6.95    1.07
  16  -4  15    5.85    1.31
  16   4  15    5.88    0.97
 -16   4 -15    7.89    1.11
 -18  -4 -15    0.32    0.52
  18  -4  15   -0.26    0.62
 -18   4 -15   -0.39    0.43
  18   4  15    0.71    0.47
 -20  -4 -15   13.59    1.70
  25  -5 -15   80.37    7.03
 -25  -5  15   86.55    7.44
 -25   5  15   82.74    7.43
  25   5 -15   88.06    7.02
 -23  -5  15    0.62    0.50
  23  -5 -15   -0.50    0.37
 -23   5  15   -0.11    0.46
  23   5 -15    0.34    0.41
  21  -5 -15  107.78    8.78
 -21  -5  15  115.53    9.26
  21   5 -15  116.82    8.76
 -21   5  15   86.51    9.16
  19  -5 -15    0.23    0.43
 -19  -5  15    0.10    0.43
 -19   5  15   -0.29    0.33
  19   5 -15    0.36    0.43
 -19   5  15   -0.08    0.45
  17  -5 -15  111.47    9.34
 -17  -5  15  110.34    9.81
  17   5 -15  114.90    9.30
 -17   5  15  120.79    9.85
 -17   5  15  110.82    9.24
 -15  -5  15    0.52    0.49
  15  -5 -15    0.76    0.50
 -15   5  15    0.57    0.40
  15   5 -15    0.54    0.43
 -15   5  15    0.59    0.48
  13  -5 -15   96.31    7.70
 -13  -5  15   90.33    8.06
  13   5 -15   93.39    7.65
 -13   5  15   92.09    8.05
 -13   5  15   91.61    7.59
 -11  -5  15    0.36    0.45
  11  -5 -15    0.14    0.45
 -11   5  15    0.28    0.32
 -11   5  15    0.22    0.42
  11   5 -15    0.17    0.39
  -9  -5  15  150.83   12.75
   9  -5 -15  142.76   12.15
  -9   5  15  134.19   12.72
   9   5 -15  164.88   12.12
  -9   5  15  153.04   12.06
  -7  -5  15    4.98    0.87
   7  -5 -15    4.80    0.88
  -7   5  15    5.83    0.93
   7   5 -15    5.17    0.80
   5  -5 -15  141.25   10.84
   5  -5 -15  134.99   10.75
  -5  -5  15  136.83   11.35
   5   5 -15  133.66   10.75
   5   5 -15  138.23   10.84
  -5   5  15  110.36   11.29
   3  -5 -15   14.68    1.43
  -3  -5  15   13.87    1.65
   3   5 -15   13.77    1.60
  -3   5  15   11.93    1.57
  -1  -5  15   87.76    7.45
   1  -5 -15   84.32    7.05
  -1   5  15   79.63    7.43
   1   5 -15   91.46    7.17
  -1  -5 -15   10.60    1.22
   1  -5  15    6.12    1.13
   1   5  15    9.43    1.22
  -1   5 -15   12.33    1.35
  -3  -5 -15  127.26    9.05
   3  -5  15  103.38   10.40
   3  -5  15   95.28    9.41
  -3   5 -15  123.29    9.09
   3   5  15  101.78    9.42
  -5  -5 -15   49.98    3.64
   5  -5  15   30.76    4.09
   5   5  15   42.76    3.76
  -5   5 -15   40.22    3.63
  -7  -5 -15   65.08    5.34
   7  -5  15   66.60    6.28
   7   5  15   60.93    5.56
  -7   5 -15   60.44    5.35
  -9  -5 -15   31.55    2.47
   9  -5  15   22.68    2.80
  -9   5 -15   19.91    2.36
   9   5  15   27.10    2.49
  11  -5  15   38.51    3.59
  11   5  15   28.57    3.02
 -13  -5 -15   56.23    4.16
  13  -5  15   38.93    4.72
  13   5  15   42.67    4.20
 -13   5 -15   49.87    4.10
 -15  -5 -15   34.58    3.51
  15  -5  15   30.90    4.10
  15   5  15   42.82    3.67
 -15   5 -15   50.91    3.65
  17  -5  15   42.07    4.02
 -17  -5 -15   32.03    3.33
 -17   5 -15   37.48    3.33
  17   5  15   36.83    3.42
 -19  -5 -15   42.72    3.77
  19  -5  15   39.99    4.34
  24  -6 -15   32.79    2.98
 -24  -6  15   33.78    3.16
 -24   6  15   30.90    3.12
  22  -6 -15   57.11    5.10
 -22  -6  15   57.63    5.38
  22   6 -15   63.98    5.06
 -22   6  15   59.98    5.37
  20  -6 -15   45.81    3.92
 -20  -6  15   44.50    4.12
 -20   6  15   39.93    4.09
 -20   6  15   44.69    3.82
  20   6 -15   47.60    3.86
 -18  -6  15   59.04    5.22
  18  -6 -15   60.98    4.96
 -18   6  15   54.10    5.17
  18   6 -15   54.49    4.87
 -18   6  15   60.80    4.85
 -16  -6  15   41.47    3.93
  16  -6 -15   46.49    3.76
 -16   6  15   45.27    3.94
 -16   6  15   46.23    3.63
  16   6 -15   34.18    3.62
 -14  -6  15   24.84    2.35
  14  -6 -15   21.47    2.19
 -14   6  15   21.79    2.07
  14   6 -15   23.58    2.14
 -14   6  15   22.22    2.31
 -12  -6  15   43.52    4.15
  12  -6 -15   48.78    3.99
 -12   6  15   48.47    4.17
 -12   6  15   45.82    3.87
  12   6 -15   41.56    3.88
  10  -6 -15   50.31    4.60
 -10  -6  15   60.72    4.88
 -10   6  15   56.41    4.85
  10   6 -15   42.84    4.50
 -10   6  15   60.63    4.53
  -8  -6  15  101.19    8.78
   8  -6 -15   95.16    8.35
   8   6 -15  112.84    8.33
  -8   6  15   89.93    8.25
  -8   6  15  109.90    8.80
  -6  -6  15   20.67    2.09
   6  -6 -15   21.78    2.03
   6   6 -15   20.69    1.96
  -6   6  15   17.71    2.07
  -6   6  15   21.19    1.89
  -4  -6  15   85.57    7.76
   4  -6 -15   94.32    7.36
  -4   6  15   87.42    7.76
   2  -6 -15   17.93    1.66
   2   6 -15   15.50    1.81
  -2   6  15   15.60    1.73
   0  -6  15   84.75    8.30
   0  -6 -15   86.47    7.12
   0   6 -15   86.92    7.19
   2  -6  15    8.15    1.43
  -2  -6 -15    8.28    1.09
   2   6  15    7.40    1.09
  -2   6 -15    6.87    1.09
   4  -6  15   95.52    9.98
  -4  -6 -15  104.36    8.66
   4   6  15  106.44    9.10
  -4   6 -15  114.47    8.74
  -6  -6 -15    3.72    0.75
   6  -6  15    3.93    1.03
   6   6  15    3.81    0.73
  -6   6 -15    3.70    0.81
   8  -6  15   78.21    7.85
  -8  -6 -15   76.95    6.73
   8   6  15   77.56    7.05
  -8   6 -15   91.28    6.81
 -10  -6 -15    1.70    0.61
  10  -6  15    2.36    0.87
  10   6  15    1.97    0.59
 -10   6 -15    1.14    0.59
  12  -6  15   49.54    4.97
 -12  -6 -15   45.72    4.21
 -12   6 -15   49.96    4.27
  12   6  15   48.93    4.39
  14  -6  15    0.70    0.63
 -14  -6 -15    0.08    0.45
  14   6  15    0.24    0.45
 -14   6 -15    1.04    0.57
  16  -6  15   53.70    5.51
 -16  -6 -15   54.01    4.76
 -16   6 -15   55.19    4.74
  16   6  15   55.71    4.93
  23  -7 -15    1.63    0.64
 -23  -7  15    1.30    0.60
  23   7 -15    2.54    0.61
 -21  -7  15    4.46    0.89
  21  -7 -15    4.14    0.81
 -21   7  15    3.84    0.72
 -21   7  15    3.35    0.80
  21   7 -15    5.32    0.81
  19  -7 -15    1.47    0.57
 -19  -7  15    0.62    0.56
  19   7 -15    1.07    0.48
 -19   7  15    1.04    0.57
 -19   7  15    0.33    0.37
 -17  -7  15    2.14    0.71
  17  -7 -15    1.10    0.53
 -17   7  15    1.26    0.47
  17   7 -15    1.94    0.56
 -17   7  15    2.10    0.66
 -15  -7  15    0.48    0.51
  15  -7 -15    0.16    0.44
 -15   7  15    0.62    0.52
  15   7 -15    0.65    0.43
 -15   7  15    0.63    0.38
  13  -7 -15    3.90    0.75
 -13  -7  15    2.89    0.77
 -13   7  15    4.38    0.66
 -13   7  15    3.57    0.82
  13   7 -15    3.64    0.70
  11  -7 -15    0.42    0.46
 -11   7  15    0.09    0.32
  11   7 -15   -0.10    0.40
 -11   7  15   -0.47    0.38
   9  -7 -15    8.24    1.28
  -9   7  15   11.60    1.27
  -9   7  15   10.13    1.39
   9   7 -15   13.81    1.30
   7  -7 -15    0.17    0.44
  -7   7  15    0.18    0.33
  -7   7  15   -0.17    0.42
   7   7 -15   -0.11    0.37
   5  -7 -15    0.18    0.44
  -5   7  15    0.38    0.44
  -5   7  15    0.88    0.39
   5   7 -15    0.41    0.40
  -3  -7  15   -0.27    0.52
  -3   7  15    0.35    0.43
  -1  -7  15    0.88    0.64
   1  -7 -15    1.37    0.47
   1   7 -15    0.86    0.54
  -1   7  15    1.08    0.51
  -1  -7 -15    0.12    0.38
   1  -7  15   -0.26    0.57
  -1   7 -15    0.56    0.53
   1   7  15    0.31    0.40
  -3  -7 -15    1.35    0.52
   3  -7  15    0.62    0.65
   3   7  15    1.85    0.57
  -3   7 -15    1.13    0.58
   5  -7  15    1.58    0.74
  -5  -7 -15    2.09    0.60
   5   7  15    2.19    0.60
  -5   7 -15    2.09    0.69
   7  -7  15    5.17    1.18
  -7  -7 -15    6.31    0.96
   7   7  15    4.60    0.87
  -7   7 -15    5.53    0.95
   9  -7  15    0.57    0.66
  -9  -7 -15    0.05    0.45
   9   7  15    0.08    0.42
  -9   7 -15    0.82    0.58
 -11  -7 -15    2.17    0.65
  11  -7  15    4.37    1.09
  11   7  15    2.05    0.61
 -11   7 -15    2.21    0.70
  13  -7  15    2.30    0.92
 -13  -7 -15    1.38    0.57
 -13   7 -15    2.39    0.67
  13   7  15    1.09    0.54
 -15  -7 -15    0.73    0.58
  15  -7  15    0.53    0.65
  15   7  15    0.70    0.50
 -15   7 -15    0.91    0.56
  20  -8 -15   21.39    1.97
  20   8 -15   16.49    1.84
 -20   8  15   19.50    1.84
  18  -8 -15   13.83    1.60
 -18   8  15   11.86    1.36
  18   8 -15   14.83    1.48
  16  -8 -15   19.56    1.97
  16   8 -15   18.73    1.90
 -16   8  15   20.47    1.86
  14  -8 -15   15.38    1.68
  14   8 -15   17.59    1.67
 -14   8  15   16.30    1.92
 -14   8  15   15.23    1.58
  12  -8 -15   33.83    2.93
 -12   8  15   32.17    3.04
  12   8 -15   33.65    2.85
 -12   8  15   28.31    2.76
  10  -8 -15   21.26    1.96
 -10   8  15   19.46    1.81
 -10   8  15   14.74    1.92
  10   8 -15   21.47    1.89
   8  -8 -15   30.99    3.02
   8   8 -15   29.95    2.92
  -8   8  15   34.09    3.17
  -8   8  15   37.77    2.94
  -6  -8  15   28.45    3.64
   6  -8 -15   41.15    3.20
   6   8 -15   34.06    3.05
  -6   8  15   33.24    3.26
  -6   8  15   36.05    3.02
  -4  -8  15   53.30    5.73
  -4   8  15   59.12    4.83
  -4   8  15   59.42    5.17
  -2  -8  15    6.29    1.32
  -2   8  15    8.90    1.19
   0  -8 -15   55.08    4.27
   0  -8  15   47.24    5.03
   0   8 -15   53.83    4.39
   0   8  15   43.27    4.47
   2  -8  15    4.44    1.09
  -2  -8 -15    4.66    0.80
   2   8  15    4.07    0.83
  -2   8 -15    4.17    0.85
  -4  -8 -15   62.03    4.97
   4  -8  15   58.69    5.84
   4   8  15   58.55    5.19
  -4   8 -15   52.97    5.00
  -6  -8 -15    0.55    0.45
   6  -8  15    0.63    0.65
   6   8  15    0.37    0.46
  -6   8 -15    1.28    0.59
   8  -8  15   37.93    4.00
  -8  -8 -15   42.92    3.41
  -8   8 -15   35.05    3.38
   8   8  15   34.82    3.47
  10  -8  15    0.64    0.62
 -10  -8 -15   -0.42    0.41
 -10   8 -15   -0.10    0.45
  10   8  15    0.31    0.43
 -12  -8 -15   22.32    2.38
  12  -8  15   24.44    2.87
 -12   8 -15   27.97    2.44
  12   8  15   24.06    2.43
 -14  -8 -15    0.34    0.53
  14  -8  15   -0.11    0.58
  14   8  15    0.21    0.47
 -14   8 -15   -0.41    0.42
  19  -9 -15    2.23    0.67
 -19   9  15    2.73    0.58
  19   9 -15    1.75    0.57
  17  -9 -15  102.56    8.27
  17   9 -15   97.52    8.18
 -17   9  15   98.77    8.15
  15  -9 -15    0.55    0.51
  15   9 -15    0.42    0.43
 -15   9  15    0.67    0.40
  13  -9 -15  103.76    7.97
  13   9 -15   79.25    7.81
 -13   9  15  106.12    7.86
  11  -9 -15    6.70    1.08
  11   9 -15    7.88    1.04
 -11   9  15    8.11    0.98
   9  -9 -15   81.44    6.97
  -9   9  15   79.29    7.30
   9   9 -15   88.96    6.90
  -9   9  15   82.55    6.85
  -7  -9  15    5.72    1.27
   7  -9 -15    4.82    0.92
  -7   9  15    6.87    0.90
  -7   9  15    6.51    1.03
   7   9 -15    5.92    0.88
  -5  -9  15   88.17    7.79
  -5   9  15   87.28    6.57
  -5   9  15   65.38    6.91
  -3  -9  15   16.44    2.22
  -3   9  15   16.87    1.77
  -3   9  15   14.83    1.56
  -1  -9  15   93.29    8.06
  -1   9  15   74.20    7.19
  -1  -9 -15   21.12    1.97
   1  -9  15   17.46    2.51
   1   9  15   21.07    2.08
  -3  -9 -15   50.23    4.35
   3  -9  15   49.94    5.14
   3   9  15   49.96    4.55
  -3   9 -15   51.95    4.45
   5  -9  15    1.82    0.84
  -5  -9 -15    2.56    0.65
   5   9  15    1.94    0.63
  -5   9 -15    0.65    0.57
  -7  -9 -15   79.68    6.68
   7  -9  15   89.14    7.81
  -7   9 -15   92.95    6.77
   7   9  15   63.24    6.92
  -9  -9 -15   35.83    3.79
   9  -9  15   42.64    4.51
   9   9  15   54.26    4.07
  -9   9 -15   41.95    3.85
  11  -9  15   45.26    4.44
 -11  -9 -15   41.36    3.75
 -11   9 -15   42.44    3.76
  11   9  15   40.29    3.87
  14 -10 -15   10.74    1.39
  14  10 -15    8.78    1.23
 -14  10  15   12.96    1.24
  12 -10 -15   42.16    3.48
  12  10 -15   39.88    3.37
 -12  10  15   34.55    3.31
  10 -10 -15    9.22    1.34
  10  10 -15   10.15    1.27
 -10  10  15   11.80    1.26
  -8 -10  15   32.56    3.42
   8 -10 -15   29.96    2.88
  -8  10  15   32.85    2.78
   8  10 -15   29.90    2.79
  -6 -10  15   11.28    1.77
   6 -10 -15   10.35    1.39
   6  10 -15   10.01    1.27
  -6  10  15   11.60    1.29
  -4 -10  15   33.84    3.57
  -4  10  15   31.99    2.86
  -2 -10  15    9.69    1.67
  -2  10  15   11.42    1.26
   0 -10  15   28.19    3.32
   0  10  15   32.04    2.94
  -2 -10 -15    2.28    0.62
   2 -10  15    2.70    0.85
   2  10  15    2.21    0.68
   4 -10  15   14.80    2.35
  -4 -10 -15   21.30    1.93
   4  10  15   16.61    1.96
  -4  10 -15   22.15    2.03
   6 -10  15    4.22    1.12
  -6 -10 -15    6.18    0.96
   6  10  15    5.54    0.97
  -6  10 -15    4.64    0.94
   8 -10  15   38.21    4.50
  -8 -10 -15   43.63    3.90
   8  10  15   40.01    4.01
  -8  10 -15   56.69    4.02
  -9 -11  15    5.54    1.21
   9 -11 -15    3.28    0.78
  -9  11  15    4.53    0.71
   9  11 -15    4.43    0.77
   7 -11 -15    1.51    0.60
  -7 -11  15    0.71    0.70
   7  11 -15    0.78    0.48
  -7  11  15    1.28    0.47
  -5 -11  15    2.33    0.88
  -5  11  15    2.36    0.57
  -3 -11  15    0.31    0.60
  -3  11  15    0.10    0.33
  -1 -11  15    2.26    0.86
  -1  11  15    1.56    0.48
   1 -11  15    0.59    0.64
  -1 -11 -15    0.75    0.47
   3 -11  15    3.36    0.96
  -3 -11 -15    2.94    0.71
 -26   0  16    0.45    0.51
  26   0 -16    0.23    0.44
  24   0 -16  165.76   13.47
  22   0 -16    2.74    0.66
 -22   0  16    3.19    0.75
 -20   0  16  107.33    9.43
  20   0 -16  110.56    8.98
 -18   0  16   10.30    1.36
  18   0 -16   10.40    1.31
  16   0 -16   75.37    6.75
 -16   0  16   87.28    7.12
  14   0 -16   32.36    2.90
 -14   0  16   31.63    3.04
 -12   0  16  129.36   11.22
  12   0 -16  135.06   10.71
  12   0 -16  128.68   10.70
  10   0 -16   15.31    1.59
 -10   0  16   14.76    1.63
  10   0 -16   15.22    1.60
   8   0 -16  145.02   13.23
  -8   0  16  186.78   13.96
   8   0 -16  160.05   13.27
  -6   0  16   84.49    7.90
   6   0 -16   98.10    7.56
  -4   0  16   73.16    6.35
   4   0 -16   71.34    6.06
  -2   0  16   55.41    4.66
   2   0 -16   48.19    4.42
   0   0 -16  110.54    9.12
   0   0  16  111.32    9.55
   2   0  16   49.59    4.31
  -2   0 -16   45.45    4.11
   4   0  16  156.33   13.41
  -4   0 -16  158.76   12.81
  -6   0 -16  106.08    8.76
   6   0  16  106.10    9.16
   8   0  16   14.21    1.53
  -8   0 -16   12.47    1.56
  10   0  16   21.98    2.27
 -10   0 -16   24.00    2.26
  12   0  16   34.39    3.36
 -12   0 -16   38.17    3.29
  14   0  16   44.60    4.09
  16   0  16   23.10    2.38
 -16   0 -16   25.08    2.35
 -18   0 -16   73.90    6.27
 -25  -1  16    8.60    1.22
  25  -1 -16    8.76    1.14
 -25   1  16    6.48    1.15
  25   1 -16    7.33    1.08
 -23  -1  16   36.34    3.10
  23  -1 -16   28.50    2.85
 -23   1  16   30.21    3.04
  23   1 -16   31.90    2.86
  21  -1 -16   16.05    1.78
 -21  -1  16   17.98    1.92
 -21   1  16   19.18    1.92
  21   1 -16   17.61    1.79
 -19  -1  16   21.98    2.15
  19  -1 -16   19.67    2.02
  19   1 -16   21.04    2.02
 -19   1  16   19.68    2.09
 -17  -1  16   26.28    2.56
  17  -1 -16   24.95    2.41
  17   1 -16   25.89    2.43
 -17   1  16   26.42    2.55
  15  -1 -16   50.19    4.17
 -15   1  16   48.27    4.37
  15   1 -16   45.70    4.15
  13  -1 -16   11.94    1.55
 -13  -1  16   14.89    1.62
  13  -1 -16   13.38    1.57
  13   1 -16   15.72    1.54
 -13   1  16   14.03    1.57
  11  -1 -16   65.79    5.33
 -11  -1  16   66.08    5.58
  11  -1 -16   62.11    5.31
 -11   1  16   61.71    5.57
  11   1 -16   58.86    5.29
   9  -1 -16   21.16    2.08
   9  -1 -16   20.94    2.08
  -9  -1  16   20.41    2.14
   9   1 -16   20.56    2.06
  -9   1  16   23.00    2.20
   9   1 -16   24.22    2.13
  -7  -1  16   50.41    4.62
   7  -1 -16   52.24    4.42
   7  -1 -16   46.89    4.40
   7   1 -16   55.85    4.44
  -7   1  16   45.52    4.62
   7   1 -16   60.16    4.48
   5  -1 -16    1.19    0.49
  -5  -1  16    1.94    0.59
   5   1 -16    1.53    0.55
  -5   1  16    1.36    0.54
   3  -1 -16   33.62    3.22
  -3  -1  16   41.99    3.43
  -3   1  16   37.51    3.40
   3   1 -16   33.53    3.25
  -1  -1  16    0.56    0.46
   1  -1 -16    0.83    0.49
   1   1 -16    0.85    0.50
  -1   1  16    0.37    0.40
   1  -1  16   23.83    2.29
  -1  -1 -16   22.99    2.21
   1   1  16   21.23    2.26
  -1   1 -16   25.09    2.26
   3  -1  16    4.47    0.79
  -3  -1 -16    3.71    0.74
  -3   1 -16    3.76    0.78
   3   1  16    4.37    0.80
  -5  -1 -16   66.59    5.24
   5  -1  16   58.73    5.41
  -5   1 -16   61.19    5.23
   5   1  16   59.66    5.44
   7  -1  16    0.59    0.46
  -7  -1 -16    0.61    0.47
  -7   1 -16    1.07    0.55
   7   1  16    0.60    0.47
   9  -1  16   36.72    3.23
  -9  -1 -16   36.17    3.14
  -9   1 -16   34.24    3.15
   9   1  16   31.33    3.20
  11  -1  16   -0.32    0.41
 -11  -1 -16   -0.18    0.44
  11   1  16    0.84    0.46
 -11   1 -16    0.24    0.48
 -13  -1 -16   37.59    3.36
  13  -1  16   39.21    3.50
 -13   1 -16   34.88    3.35
  13   1  16   37.51    3.47
 -15  -1 -16    0.00    0.48
  15  -1  16    0.29    0.48
 -15   1 -16    0.05    0.45
  15   1  16    0.73    0.49
  17  -1  16   38.01    3.78
 -17  -1 -16   47.50    3.73
  17   1  16   38.89    3.77
 -19  -1 -16    5.01    0.94
  19  -1  16    5.26    0.92
  19   1  16    4.69    0.88
 -19   1 -16    4.33    0.90
 -26  -2  16    1.21    0.59
  26  -2 -16    1.03    0.51
  26   2 -16    0.77    0.48
 -26   2  16    0.78    0.55
 -24  -2  16   -0.09    0.46
  24  -2 -16    0.54    0.47
 -24   2  16    0.96    0.54
  24   2 -16    1.15    0.50
  22  -2 -16    0.24    0.44
 -22  -2  16    0.46    0.47
  22   2 -16   -0.02    0.39
 -22   2  16   -0.28    0.43
 -20  -2  16    5.77    0.96
  20  -2 -16    4.44    0.84
 -20   2  16    4.85    0.94
  20   2 -16    5.15    0.88
  18  -2 -16    6.62    1.00
 -18  -2  16    5.29    0.97
  18   2 -16    6.83    0.98
 -18   2  16    6.11    1.01
  16  -2 -16    6.04    0.96
 -16  -2  16    5.70    0.98
 -16   2  16    8.08    1.08
  16   2 -16    5.81    0.95
  14  -2 -16    0.24    0.43
  14  -2 -16    0.06    0.41
 -14  -2  16   -0.37    0.38
 -14   2  16   -0.15    0.37
  14   2 -16   -0.29    0.37
 -12  -2  16    9.67    1.16
  12  -2 -16    6.28    1.00
  12  -2 -16    7.20    1.07
 -12   2  16    7.63    1.07
  12   2 -16    5.60    0.95
  10  -2 -16    1.30    0.50
  10  -2 -16    1.41    0.58
 -10  -2  16    1.74    0.61
  10   2 -16    1.39    0.51
 -10   2  16    1.40    0.54
   8  -2 -16    0.97    0.49
  -8  -2  16    1.40    0.55
   8  -2 -16    1.25    0.55
  -8   2  16    1.85    0.58
   8   2 -16    1.15    0.55
   8   2 -16    0.94    0.49
   6  -2 -16   -0.33    0.36
  -6  -2  16    0.34    0.41
  -6   2  16   -0.15    0.39
   6   2 -16    0.30    0.45
   4  -2 -16    4.80    0.83
  -4  -2  16    5.09    0.89
   4   2 -16    4.25    0.85
  -4   2  16    7.44    1.00
   2  -2 -16    0.63    0.45
  -2  -2  16    0.98    0.49
  -2   2  16    0.47    0.40
   2   2 -16    1.04    0.52
   0  -2 -16    0.22    0.41
   0  -2  16    0.15    0.38
   0   2  16    0.21    0.40
   0   2 -16    0.45    0.45
   2  -2  16    0.65    0.45
  -2  -2 -16    0.19    0.40
  -2   2 -16    0.70    0.51
   2   2  16    0.61    0.45
  -4  -2 -16    0.21    0.43
   4  -2  16   -0.37    0.35
   4   2  16    0.47    0.39
  -4   2 -16   -0.13    0.42
  -6  -2 -16    0.03    0.43
   6  -2  16    0.38    0.44
   6   2  16   -0.01    0.38
  -6   2 -16   -0.22    0.44
   8  -2  16    3.22    0.74
  -8  -2 -16    3.32    0.74
  -8   2 -16    4.18    0.79
   8   2  16    3.99    0.75
  10  -2  16    2.00    0.63
 -10  -2 -16    2.56    0.67
 -10   2 -16    2.65    0.70
  10   2  16    2.75    0.65
 -12  -2 -16    3.08    0.73
  12  -2  16    2.08    0.65
  12   2  16    2.99    0.67
 -12   2 -16    2.98    0.75
  14  -2  16    1.69    0.62
 -14  -2 -16    1.82    0.66
 -14   2 -16    2.85    0.72
  14   2  16    3.11    0.71
  16  -2  16    2.47    0.70
 -16  -2 -16    3.76    0.82
  16   2  16    2.21    0.65
 -16   2 -16    4.14    0.81
 -18  -2 -16    2.23    0.70
  18  -2  16    1.90    0.65
 -18   2 -16    1.25    0.60
  18   2  16    1.94    0.60
 -25  -3  16   23.78    2.43
  25  -3 -16   28.33    2.36
 -25   3  16   21.64    2.45
  25   3 -16   23.52    2.27
  23  -3 -16   37.74    2.96
 -23  -3  16   23.22    2.98
  23   3 -16   30.98    2.88
 -23   3  16   38.79    3.14
 -21  -3  16   27.99    2.32
  21  -3 -16   19.97    2.09
  21   3 -16   17.12    2.02
 -21   3  16   23.62    2.25
  19  -3 -16   71.52    6.52
 -19  -3  16   76.16    6.88
  19   3 -16   89.83    6.56
 -19   3  16   75.84    6.87
 -17  -3  16   25.89    2.50
  17  -3 -16   24.47    2.39
  17   3 -16   27.65    2.39
 -17   3  16   23.41    2.48
 -15  -3  16   61.09    4.75
  15  -3 -16   43.21    4.41
  15  -3 -16   49.97    4.44
 -15   3  16   58.58    4.74
  15   3 -16   49.58    4.43
  13  -3 -16   38.15    3.09
 -13  -3  16   36.48    3.25
  13  -3 -16   33.51    3.08
 -13   3  16   29.16    3.17
  13   3 -16   35.67    3.07
  11  -3 -16   74.48    6.80
  11  -3 -16   80.74    6.84
 -11  -3  16   81.90    7.18
 -11   3  16   84.22    7.18
  11   3 -16   90.55    6.85
  -9  -3  16   15.03    1.58
   9  -3 -16   12.14    1.56
   9  -3 -16   17.59    1.52
   9   3 -16   14.08    1.52
  -9   3  16   12.26    1.66
  -7  -3  16  114.60   10.52
   7  -3 -16  139.78   10.06
   7  -3 -16  125.31   10.04
   7   3 -16  118.88   10.06
  -7   3  16  120.52   10.54
   7   3 -16  117.76   10.02
   5  -3 -16    5.06    0.82
  -5  -3  16    5.09    0.91
  -5   3  16    5.61    0.92
   5   3 -16    4.82    0.87
   3  -3 -16  104.49    8.90
  -3  -3  16  109.52    9.36
   3   3 -16  112.36    8.97
  -3   3  16  107.98    9.36
  -1  -3  16    1.88    0.61
   1  -3 -16    2.50    0.62
  -1   3  16    2.76    0.65
   1   3 -16    2.66    0.66
   1  -3  16   95.62    8.30
  -1  -3 -16   96.37    7.90
  -1   3 -16   99.22    7.96
   1   3  16   92.25    8.28
   3  -3  16    0.30    0.43
  -3  -3 -16    0.21    0.43
  -3   3 -16    0.04    0.44
   3   3  16    0.14    0.38
   5  -3  16   98.83    8.54
  -5  -3 -16   93.16    8.15
  -5   3 -16  104.72    8.20
   7  -3  16    0.49    0.44
  -7  -3 -16    0.24    0.43
  -7   3 -16    1.16    0.53
   7   3  16    0.49    0.44
  -9  -3 -16   76.51    5.55
   9  -3  16   57.64    5.71
  -9   3 -16   64.58    5.51
   9   3  16   62.54    5.72
 -11  -3 -16    0.22    0.44
  11  -3  16    0.28    0.48
  11   3  16   -0.34    0.36
 -11   3 -16    0.49    0.50
  13  -3  16   44.82    4.54
 -13  -3 -16   52.95    4.40
 -13   3 -16   55.07    4.43
  13   3  16   49.87    4.54
 -15  -3 -16    1.40    0.64
  15  -3  16    0.91    0.72
  15   3  16    1.58    0.56
 -15   3 -16    2.30    0.63
 -17  -3 -16   46.07    4.46
  17  -3  16   55.26    5.27
  17   3  16   53.54    4.64
  24  -4 -16   86.94    7.67
 -24  -4  16   93.52    8.09
  24   4 -16   89.14    7.67
 -24   4  16  101.47    8.13
  22  -4 -16    0.63    0.51
 -22  -4  16    1.60    0.63
 -22   4  16    1.75    0.63
  22   4 -16    1.94    0.60
  20  -4 -16  124.06   10.03
 -20  -4  16  124.73   10.59
 -20   4  16  129.01   10.56
  20   4 -16  112.32    9.99
 -18  -4  16    3.51    0.83
  18  -4 -16    7.16    1.00
 -18   4  16    5.29    0.91
  18   4 -16    4.47    0.82
 -16  -4  16  102.87    8.52
  16  -4 -16   99.20    8.07
 -16   4  16  107.70    8.49
  16   4 -16   82.28    8.01
  14  -4 -16   11.84    1.40
 -14  -4  16   12.35    1.47
 -14   4  16    9.38    1.36
  14   4 -16    9.99    1.31
  12  -4 -16   97.85    9.50
 -12  -4  16  129.19   10.10
  12  -4 -16  112.37    9.59
 -12   4  16  134.01   10.11
  12   4 -16  114.19    9.56
  10  -4 -16   26.05    2.26
  10  -4 -16   20.99    2.14
 -10  -4  16   21.09    2.28
  10   4 -16   24.66    2.20
 -10   4  16   22.97    2.31
   8  -4 -16   94.95    7.39
   8  -4 -16   93.03    7.46
  -8  -4  16   83.51    7.77
   8   4 -16   86.39    7.38
  -8   4  16   89.92    7.80
   6  -4 -16   39.80    3.51
  -6  -4  16   37.25    3.70
   6   4 -16   41.30    3.61
  -6   4  16   43.91    3.75
  -4  -4  16   58.96    5.70
   4  -4 -16   68.69    5.47
  -4   4  16   66.70    5.74
   4   4 -16   65.24    5.50
   2  -4 -16   45.40    3.83
  -2  -4  16   43.20    4.03
  -2   4  16   42.78    4.03
   2   4 -16   45.87    3.91
   0  -4 -16   73.91    5.89
   0  -4  16   66.10    6.14
   0   4  16   71.24    6.16
   0   4 -16   69.07    5.92
  -2  -4 -16   44.90    4.19
   2  -4  16   45.32    4.40
   2   4  16   56.15    4.45
  -2   4 -16   49.92    4.26
  -4  -4 -16   57.05    4.99
   4  -4  16   62.19    5.26
   4   4  16   56.94    5.23
  -4   4 -16   59.57    5.05
   6  -4  16   61.56    5.01
  -6  -4 -16   55.81    4.76
   6   4  16   50.13    4.95
  -6   4 -16   55.20    4.80
  -8  -4 -16   47.44    4.06
  -8   4 -16   45.62    4.09
 -10  -4 -16   60.54    4.95
  10  -4  16   75.13    6.06
  10   4  16   44.45    5.06
 -10   4 -16   60.79    4.98
 -12  -4 -16   24.28    2.42
  12  -4  16   22.90    2.88
  12   4  16   23.03    2.44
 -12   4 -16   31.59    2.49
  14  -4  16   60.38    5.96
 -14  -4 -16   56.23    5.07
  14   4  16   60.63    5.27
  16  -4  16   23.54    2.66
 -16  -4 -16   19.14    2.18
  16   4  16   22.49    2.23
 -16   4 -16   23.47    2.21
  23  -5 -16    8.01    1.14
 -23  -5  16    8.55    1.21
 -23   5  16    7.90    1.21
  23   5 -16    7.59    1.08
 -21  -5  16    4.85    0.96
  21  -5 -16    6.55    0.98
 -21   5  16    4.67    0.94
  21   5 -16    7.18    0.97
  19  -5 -16   16.13    1.70
 -19  -5  16   18.31    1.86
  19   5 -16   14.94    1.62
 -19   5  16   14.83    1.84
  17  -5 -16    1.61    0.58
 -17  -5  16    1.21    0.57
 -17   5  16    1.10    0.52
  17   5 -16    1.35    0.53
 -17   5  16    1.88    0.51
  15  -5 -16    2.27    0.63
 -15  -5  16   -0.09    0.44
 -15   5  16    1.12    0.54
  15   5 -16    0.94    0.50
 -15   5  16    1.09    0.44
 -13  -5  16    8.67    1.25
  13  -5 -16    8.01    1.17
 -13   5  16    9.25    1.24
  13   5 -16   10.07    1.18
 -13   5  16    8.62    1.07
 -11  -5  16   17.83    1.92
  11  -5 -16   18.77    1.89
  11   5 -16   18.43    1.81
 -11   5  16   18.08    1.92
  -9  -5  16    7.21    1.01
   9  -5 -16    7.77    0.95
   9  -5 -16    7.01    1.02
   9   5 -16    3.76    0.79
  -9   5  16    4.67    0.92
  -7  -5  16    6.49    1.05
   7  -5 -16    7.52    1.10
   7  -5 -16    6.43    0.96
  -7   5  16    7.94    1.09
   7   5 -16    6.39    0.96
  -5  -5  16   -0.08    0.43
   5  -5 -16    0.33    0.40
  -5   5  16   -0.08    0.36
   3  -5 -16    4.41    0.75
  -3  -5  16    6.22    0.92
  -3   5  16    3.46    0.78
   3   5 -16    3.91    0.85
  -1  -5  16   10.64    1.40
   1  -5 -16    9.79    1.24
   1   5 -16   10.86    1.36
  -1   5  16    9.03    1.27
   1  -5  16   21.61    2.12
  -1  -5 -16   22.59    2.02
   1   5  16   16.73    2.02
  -1   5 -16   22.62    2.09
  -3  -5 -16    0.10    0.44
  -3   5 -16    0.34    0.48
   3   5  16    0.00    0.36
  -5  -5 -16    3.79    0.76
  -5   5 -16    3.61    0.82
   5   5  16    4.30    0.80
   7  -5  16   -0.03    0.58
  -7  -5 -16    0.11    0.45
   7   5  16    0.66    0.44
  -7   5 -16    0.45    0.49
   9  -5  16    6.35    1.32
  -9  -5 -16    7.39    1.07
   9   5  16    6.85    1.05
  -9   5 -16    6.47    1.05
 -11  -5 -16    0.93    0.52
  11  -5  16   -0.01    0.60
  11   5  16    0.74    0.48
 -11   5 -16    0.66    0.53
  13  -5  16   11.44    1.68
 -13  -5 -16    8.68    1.23
  13   5  16    8.97    1.22
 -13   5 -16    7.85    1.20
  15  -5  16    4.74    1.17
 -15  -5 -16    5.66    0.97
  15   5  16    4.27    0.86
 -15   5 -16    4.97    0.95
  22  -6 -16   -0.55    0.41
 -22  -6  16    0.37    0.49
 -22   6  16    0.04    0.48
  22   6 -16    0.06    0.41
 -20  -6  16   24.00    2.50
  20  -6 -16   24.16    2.35
 -20   6  16   26.03    2.47
  20   6 -16   22.82    2.28
 -20   6  16   25.58    2.32
 -18  -6  16    0.98    0.57
  18  -6 -16    0.98    0.52
  18   6 -16    0.86    0.46
 -18   6  16    0.99    0.44
 -18   6  16    0.51    0.50
  16  -6 -16   28.85    2.32
 -16  -6  16   25.18    2.42
 -16   6  16   19.47    2.32
 -16   6  16   21.50    2.13
  16   6 -16   23.07    2.19
  14  -6 -16    1.11    0.53
 -14  -6  16    1.51    0.56
 -14   6  16    0.90    0.42
  14   6 -16    1.68    0.53
 -14   6  16    0.93    0.54
 -12  -6  16   15.05    1.66
  12  -6 -16   15.64    1.60
  12   6 -16   16.22    1.55
 -12   6  16   12.89    1.43
 -12   6  16   12.95    1.70
  10  -6 -16   -0.05    0.43
 -10  -6  16    0.17    0.47
 -10   6  16    0.57    0.38
  10   6 -16    0.18    0.42
 -10   6  16    0.48    0.48
  -8  -6  16   30.42    3.63
   8  -6 -16   43.52    3.58
   8   6 -16   42.15    3.48
  -8   6  16   44.55    3.72
  -6  -6  16    8.28    1.37
   6  -6 -16   13.80    1.32
  -6   6  16   12.59    1.49
   4  -6 -16   25.04    2.22
  -4   6  16   22.35    2.34
   2  -6 -16   11.16    1.34
  -2   6  16   13.47    1.50
   2   6 -16   10.57    1.42
   0  -6 -16   16.09    1.69
   0   6  16   17.00    1.76
  -2  -6 -16   12.78    1.46
   2   6  16   13.36    1.45
  -2   6 -16   11.49    1.53
  -4  -6 -16   17.53    1.75
   4   6  16   15.51    1.78
  -4   6 -16   17.45    1.80
  -6  -6 -16   15.97    1.55
   6  -6  16   18.11    2.17
  -6   6 -16   13.31    1.64
   6   6  16   10.28    1.51
  -8  -6 -16    5.37    0.91
   8  -6  16    4.51    1.16
   8   6  16    4.56    0.87
  -8   6 -16    5.83    0.96
 -10  -6 -16    2.86    0.71
  10  -6  16    2.80    0.96
 -10   6 -16    3.61    0.81
  10   6  16    4.16    0.78
 -12  -6 -16    9.66    1.39
  12  -6  16   11.23    1.84
  12   6  16   13.22    1.53
 -12   6 -16   13.59    1.59
 -14  -6 -16    8.19    1.24
  14  -6  16   10.12    1.59
 -14   6 -16    8.61    1.26
  14   6  16    7.42    1.13
 -21  -7  16   40.59    3.72
  21  -7 -16   41.78    3.56
  21   7 -16   37.34    3.46
 -21   7  16   37.41    3.68
 -21   7  16   38.87    3.42
 -19  -7  16   79.43    5.66
  19  -7 -16   61.82    5.28
 -19   7  16   58.54    5.17
  19   7 -16   66.88    5.23
 -19   7  16   47.29    5.47
 -17  -7  16   22.05    2.21
  17  -7 -16   17.74    2.00
  17   7 -16   22.36    2.00
 -17   7  16   22.29    1.94
 -17   7  16   17.54    2.13
  15  -7 -16  109.18    8.82
 -15  -7  16   99.00    9.23
 -15   7  16   88.01    8.66
  15   7 -16  123.96    8.76
 -15   7  16  115.46    9.24
  13  -7 -16    7.69    1.12
 -13   7  16    6.52    0.95
  13   7 -16    7.49    1.01
 -13   7  16    9.17    1.24
  11  -7 -16   94.51    7.72
 -11   7  16   90.75    8.07
  11   7 -16   93.20    7.65
 -11   7  16   92.27    7.59
   9  -7 -16   14.58    1.79
   9   7 -16   17.27    1.69
  -9   7  16   15.30    1.57
  -9   7  16   17.92    1.81
   7  -7 -16   98.64    8.61
   7   7 -16  107.78    8.62
  -7   7  16  106.15    8.51
  -7   7  16  104.35    9.05
   5  -7 -16    3.16    0.67
  -5   7  16    4.27    0.82
   3  -7 -16   95.18    7.61
  -3   7  16   89.05    8.02
   1  -7 -16    1.61    0.55
  -1   7  16    3.22    0.70
   1   7 -16    2.25    0.70
  -1  -7 -16   79.21    6.53
   1   7  16   76.38    6.86
  -1   7 -16   79.19    6.61
  -3  -7 -16    3.94    0.74
   3  -7  16    2.71    0.94
   3   7  16    2.91    0.70
  -3   7 -16    3.19    0.79
   5  -7  16   72.68    7.36
  -5  -7 -16   73.62    6.30
   5   7  16   73.72    6.60
  -5   7 -16   81.33    6.41
  -7  -7 -16    0.57    0.46
   7  -7  16   -0.19    0.64
  -7   7 -16    0.58    0.54
   7   7  16   -0.07    0.44
   9  -7  16   62.25    6.06
  -9  -7 -16   67.09    5.17
  -9   7 -16   51.96    5.14
 -11  -7 -16    0.29    0.46
  11  -7  16    0.43    0.66
  11   7  16    0.18    0.42
 -11   7 -16    0.44    0.50
 -13  -7 -16   68.92    6.43
  13  -7  16   80.02    7.55
 -13   7 -16   78.09    6.48
  13   7  16   80.36    6.75
  18  -8 -16    1.36    0.58
  18   8 -16    1.58    0.54
 -18   8  16    0.96    0.45
  16  -8 -16   35.59    2.89
 -16   8  16   30.35    2.72
  16   8 -16   27.27    2.74
  14  -8 -16    8.86    1.20
 -14   8  16    8.65    1.04
  14   8 -16    7.16    1.05
 -14   8  16    7.86    1.22
  12  -8 -16   37.73    3.66
 -12   8  16   44.57    3.60
  12   8 -16   41.51    3.63
 -12   8  16   42.58    3.90
  10  -8 -16   13.03    1.68
  10   8 -16   16.11    1.57
 -10   8  16   14.47    1.49
 -10   8  16   15.64    1.70
   8  -8 -16   46.98    4.01
  -8   8  16   44.71    4.16
  -8   8  16   42.35    3.86
   8   8 -16   48.64    3.94
  -6   8  16   15.15    1.84
  -6   8  16   16.41    1.58
  -4   8  16   65.17    5.79
   2  -8 -16   16.14    1.69
  -2   8  16   17.84    1.85
   0  -8  16   45.49    5.07
   0  -8 -16   50.37    4.29
   0   8  16   52.62    4.54
   2  -8  16   19.11    2.79
  -2  -8 -16   19.62    2.15
  -2   8 -16   27.88    2.35
   2   8  16   25.11    2.32
   4  -8  16   21.72    2.65
  -4  -8 -16   22.39    2.21
   4   8  16   22.12    2.31
  -4   8 -16   26.52    2.35
  -6  -8 -16   26.58    2.54
   6  -8  16   24.53    3.03
   6   8  16   29.23    2.67
  -6   8 -16   27.58    2.61
   8  -8  16   17.16    2.57
  -8  -8 -16   22.40    2.10
  -8   8 -16   21.67    2.14
   8   8  16   21.14    2.13
  10  -8  16   27.84    3.27
 -10  -8 -16   29.81    2.74
 -10   8 -16   26.30    2.72
  10   8  16   32.37    2.85
  15  -9 -16    0.30    0.46
  15   9 -16   -0.05    0.38
 -15   9  16    0.50    0.36
  13  -9 -16   -0.59    0.42
  13   9 -16    0.16    0.40
 -13   9  16   -0.22    0.32
  11  -9 -16    0.09    0.45
  11   9 -16    0.37    0.45
 -11   9  16   -0.02    0.35
   9  -9 -16    0.42    0.49
   9   9 -16    0.00    0.39
  -9   9  16    0.04    0.32
  -9   9  16   -0.27    0.47
  -7   9  16    1.26    0.61
  -7   9  16    1.96    0.49
  -5   9  16    0.13    0.35
  -5   9  16    0.16    0.49
  -3   9  16   -0.20    0.39
  -1  -9  16    0.76    0.66
   1  -9 -16    0.42    0.40
  -1   9  16    0.13    0.46
   1  -9  16    0.25    0.62
  -1  -9 -16    0.11    0.41
   1   9  16    0.17    0.46
   3  -9  16   -0.57    0.51
  -3  -9 -16    0.05    0.41
   3   9  16    0.20    0.43
  -3   9 -16    0.39    0.55
  -5  -9 -16    0.33    0.45
   5  -9  16    0.54    0.65
   5   9  16    0.20    0.44
  -5   9 -16    0.02    0.50
  -7  -9 -16    1.55    0.58
   7  -9  16    0.94    0.78
   7   9  16    2.36    0.66
  -7   9 -16    2.66    0.71
  10 -10 -16   13.43    1.72
 -10  10  16   15.36    1.49
  10  10 -16   13.72    1.59
   8 -10 -16   39.68    3.85
  -8  10  16   45.45    3.70
  -6  10  16    6.32    0.87
  -4 -10  16   42.57    4.47
  -4  10  16   42.86    3.66
  -2 -10  16   10.04    1.73
   0 -10 -16   17.06    1.78
   0 -10  16   14.93    2.30
   0  10  16   19.77    1.95
   2 -10  16   15.14    2.24
  -2 -10 -16   13.93    1.72
   2  10  16   18.10    1.82
 -24   0  17    0.13    0.46
  24   0 -17   -0.36    0.38
 -22   0  17    0.05    0.48
  22   0 -17   -0.03    0.42
  20   0 -17    0.56    0.46
 -20   0  17   -0.20    0.45
  18   0 -17    0.64    0.45
 -18   0  17    0.49    0.47
 -16   0  17    0.46    0.47
  16   0 -17    0.25    0.43
 -14   0  17    0.78    0.49
  14   0 -17    0.07    0.43
  12   0 -17   -0.01    0.39
 -12   0  17   -0.52    0.32
 -10   0  17    0.51    0.45
  10   0 -17    0.13    0.44
  10   0 -17    0.07    0.42
  -8   0  17    0.07    0.43
   8   0 -17    0.16    0.42
   6   0 -17    0.14    0.43
  -6   0  17   -0.20    0.38
   4   0 -17    0.03    0.40
  -4   0  17   -0.12    0.42
  -2   0  17    0.28    0.44
   2   0 -17   -0.13    0.39
   0   0  17   -0.31    0.37
   0   0 -17   -0.67    0.39
   2   0  17    0.35    0.46
  -2   0 -17    0.63    0.47
  -4   0 -17    0.12    0.44
   4   0  17    0.42    0.44
  -6   0 -17   -0.24    0.42
   6   0  17   -0.17    0.37
   8   0  17    0.02    0.40
  -8   0 -17    0.12    0.45
 -10   0 -17   -0.18    0.42
  10   0  17   -0.10    0.38
  12   0  17    0.22    0.41
 -12   0 -17   -0.45    0.45
  14   0  17    0.27    0.42
 -14   0 -17   -0.21    0.41
 -16   0 -17   -0.20    0.45
  16   0  17    0.11    0.43
  23  -1 -17   43.86    3.89
 -23  -1  17   43.78    4.11
  23   1 -17   42.92    3.87
 -23   1  17   47.44    4.12
  21  -1 -17   21.61    2.18
 -21  -1  17   25.71    2.40
 -21   1  17   26.01    2.36
  21   1 -17   19.15    2.14
  19  -1 -17   35.11    3.38
 -19  -1  17   46.55    3.64
 -19   1  17   37.23    3.56
  19   1 -17   35.73    3.37
 -17  -1  17   10.23    1.44
  17  -1 -17   11.94    1.42
 -17   1  17   13.16    1.50
  17   1 -17   10.20    1.33
 -15  -1  17   60.67    5.16
  15  -1 -17   58.21    4.92
 -15   1  17   65.90    5.17
  15   1 -17   47.11    4.84
  13  -1 -17   23.09    2.41
 -13  -1  17   28.48    2.48
  13  -1 -17   23.46    2.35
 -13   1  17   23.15    2.42
  13   1 -17   26.27    2.35
  11  -1 -17   49.81    4.24
 -11  -1  17   52.92    4.44
  11  -1 -17   48.77    4.23
  11   1 -17   47.95    4.21
 -11   1  17   44.87    4.41
   9  -1 -17   16.22    1.83
   9  -1 -17   16.55    1.83
  -9  -1  17   24.98    2.01
  -9   1  17   16.49    1.88
   9   1 -17   18.04    1.85
   9   1 -17   19.78    1.91
  -7  -1  17   53.91    4.83
   7  -1 -17   54.40    4.60
   7   1 -17   50.83    4.61
  -7   1  17   55.24    4.81
   5  -1 -17   39.14    3.30
  -5  -1  17   35.97    3.42
  -5   1  17   34.68    3.41
   5   1 -17   37.71    3.32
   3  -1 -17   28.43    2.59
  -3  -1  17   26.67    2.66
   3   1 -17   28.09    2.60
   1  -1 -17   21.36    2.32
  -1  -1  17   26.01    2.47
  -1   1  17   27.33    2.49
   1   1 -17   25.71    2.39
  -1  -1 -17   26.89    2.49
   1  -1  17   28.90    2.61
   1   1  17   22.41    2.55
  -1   1 -17   28.92    2.54
  -3  -1 -17   73.71    5.95
   3  -1  17   67.81    6.20
  -3   1 -17   69.77    5.95
   3   1  17   70.64    6.19
  -5  -1 -17   21.07    2.15
   5  -1  17   22.61    2.25
   5   1  17   24.62    2.24
  -5   1 -17   19.39    2.15
   7  -1  17   45.75    4.42
  -7  -1 -17   46.06    4.24
   7   1  17   61.29    4.50
  -7   1 -17   43.51    4.21
  -9  -1 -17   13.01    1.59
   9  -1  17   14.58    1.55
  -9   1 -17   12.44    1.60
  11  -1  17   27.99    2.73
 -11  -1 -17   27.45    2.65
  11   1  17   29.94    2.75
 -11   1 -17   27.23    2.65
 -13  -1 -17    6.91    1.05
  13  -1  17    5.24    0.93
  13   1  17    7.12    1.01
 -13   1 -17    4.55    0.88
  15  -1  17   33.15    3.58
 -15  -1 -17   41.61    3.51
 -15   1 -17   43.08    3.53
  15   1  17   38.79    3.60
 -24  -2  17   24.73    2.34
  24  -2 -17   19.93    2.13
 -24   2  17   18.64    2.24
  24   2 -17   25.93    2.19
  22  -2 -17  109.93    7.74
 -22  -2  17   90.83    8.08
  22   2 -17   85.53    7.64
 -22   2  17   85.79    8.05
 -20  -2  17   20.66    2.20
  20  -2 -17   21.05    2.03
 -20   2  17   19.91    2.14
  20   2 -17   21.60    2.03
  18  -2 -17   67.98    5.75
 -18  -2  17   56.92    5.98
  18   2 -17   73.15    5.73
 -18   2  17   74.80    6.06
 -16  -2  17    6.16    1.00
  16  -2 -17    5.55    0.95
 -16   2  17    6.68    1.02
  16   2 -17    5.24    0.87
  14  -2 -17   87.46    7.86
 -14  -2  17   84.89    8.23
  14  -2 -17  105.07    7.91
 -14   2  17  104.36    8.28
 -12  -2  17    2.60    0.69
  12  -2 -17    1.64    0.59
  12  -2 -17    2.42    0.62
 -12   2  17    2.36    0.68
  12   2 -17    1.70    0.56
 -10  -2  17  124.54   10.91
  10  -2 -17  117.54   10.38
  10  -2 -17  121.13   10.40
 -10   2  17  137.39   10.93
  10   2 -17  135.30   10.41
  -8  -2  17    0.18    0.45
   8  -2 -17    0.09    0.40
  -8   2  17   -0.07    0.44
   8   2 -17    0.64    0.50
  -6  -2  17  105.99    9.09
   6  -2 -17   96.05    8.63
   6   2 -17  106.12    8.70
  -6   2  17  113.26    9.12
   4  -2 -17    0.37    0.44
  -4  -2  17    0.08    0.43
   4   2 -17    0.56    0.50
  -4   2  17    0.02    0.42
  -2  -2  17  104.56    9.02
   2  -2 -17  108.10    8.59
  -2   2  17   96.38    8.99
   2   2 -17  108.83    8.64
   0  -2 -17    0.60    0.46
   0  -2  17    0.25    0.47
   0   2 -17    0.78    0.51
   0   2  17    0.68    0.48
   2  -2  17   99.97    8.98
  -2   2 -17  107.59    8.62
   2   2  17  104.69    8.99
   4  -2  17    3.26    0.69
  -4  -2 -17    2.05    0.58
   4   2  17    1.59    0.59
  -4   2 -17    1.16    0.56
  -6  -2 -17   99.00    8.06
   6  -2  17   95.01    8.42
  -6   2 -17   97.92    8.09
  -8  -2 -17    4.70    0.85
   8  -2  17    5.13    0.91
  -8   2 -17    4.17    0.84
   8   2  17    3.73    0.77
  10  -2  17   75.07    6.30
 -10  -2 -17   72.22    6.02
 -10   2 -17   74.64    6.04
  10   2  17   63.83    6.25
  12  -2  17   17.73    1.84
 -12  -2 -17   12.36    1.76
  12   2  17   22.23    1.89
 -12   2 -17   14.43    1.81
  14  -2  17   61.32    5.61
 -14  -2 -17   64.41    5.36
  14   2  17   62.31    5.58
 -16  -2 -17   12.56    1.52
  16  -2  17   11.93    1.48
  16   2  17    9.78    1.36
 -16   2 -17   10.05    1.38
 -23  -3  17   27.06    2.66
  23  -3 -17   24.54    2.48
  23   3 -17   26.18    2.46
 -23   3  17   28.00    2.63
  21  -3 -17    4.81    0.86
 -21  -3  17    5.23    0.95
 -21   3  17    3.93    0.86
  21   3 -17    4.87    0.82
 -19  -3  17   20.67    2.26
  19  -3 -17   24.48    2.17
 -19   3  17   21.99    2.25
  19   3 -17   21.15    2.10
  17  -3 -17    9.81    1.48
 -17  -3  17   15.15    1.58
  17   3 -17   16.62    1.49
 -17   3  17   11.72    1.58
 -15  -3  17   18.23    1.81
  15  -3 -17   18.81    1.78
  15  -3 -17   17.31    1.74
  15   3 -17   16.56    1.71
 -15   3  17   13.40    1.72
  13  -3 -17   15.66    1.85
 -13  -3  17   17.91    1.86
  13  -3 -17   15.84    1.72
  13   3 -17   19.38    1.77
 -13   3  17   16.40    1.81
  11  -3 -17   38.18    3.11
 -11  -3  17   33.56    3.20
  11  -3 -17   33.03    3.05
  11   3 -17   35.93    3.06
 -11   3  17   30.00    3.17
   9  -3 -17   10.23    1.43
  -9  -3  17   15.58    1.59
   9  -3 -17   13.43    1.57
   9   3 -17   12.98    1.55
  -9   3  17   14.94    1.57
  -7  -3  17    8.98    1.21
   7  -3 -17    7.75    1.11
   7   3 -17    6.58    1.22
  -7   3  17   10.09    1.25
  -5  -3  17   18.73    2.12
   5  -3 -17   22.10    2.05
   5   3 -17   21.65    2.12
  -5   3  17   21.57    2.16
  -3  -3  17    3.48    0.77
   3  -3 -17    5.07    0.81
   3   3 -17    4.07    0.81
  -3   3  17    4.32    0.80
   1  -3 -17   14.51    1.55
  -1  -3  17   15.81    1.62
   1   3 -17   16.23    1.76
  -1   3  17   12.27    1.64
  -1  -3 -17   18.35    1.73
   1  -3  17   15.97    1.76
   1   3  17   15.60    1.76
  -1   3 -17   16.79    1.88
  -3  -3 -17    8.29    1.21
   3  -3  17   10.08    1.34
   3   3  17   12.35    1.39
  -3   3 -17    9.48    1.30
  -5  -3 -17   15.46    1.58
   5  -3  17   12.33    1.67
  -5   3 -17   15.94    1.75
   5   3  17   14.90    1.62
   7  -3  17    5.64    0.95
  -7  -3 -17    4.63    0.86
  -7   3 -17    4.80    0.92
   7   3  17    5.29    0.91
  -9  -3 -17    5.54    0.97
   9  -3  17    6.05    1.01
  -9   3 -17    5.28    0.97
   9   3  17    7.03    1.01
  11  -3  17   16.95    1.78
 -11  -3 -17   13.89    1.73
  11   3  17   15.76    1.69
 -13  -3 -17    3.90    0.81
 -13   3 -17    3.52    0.81
  13   3  17    4.49    0.83
 -15  -3 -17   11.23    1.47
 -15   3 -17   11.34    1.43
  22  -4 -17    7.21    1.14
 -22  -4  17    8.80    1.27
  22   4 -17   10.08    1.22
 -22   4  17    8.49    1.25
 -20  -4  17    0.36    0.47
  20  -4 -17    0.41    0.48
 -20   4  17    0.37    0.46
  20   4 -17    0.47    0.45
 -18  -4  17   19.87    1.81
  18  -4 -17   15.26    1.65
  18   4 -17   17.58    1.66
 -18   4  17   10.80    1.68
  16  -4 -17    7.56    1.12
 -16  -4  17    9.95    1.28
  16  -4 -17    8.12    1.15
 -16   4  17    9.07    1.25
  14  -4 -17   68.82    5.53
  14  -4 -17   61.78    5.47
 -14  -4  17   63.04    5.77
 -14   4  17   65.03    5.77
  14   4 -17   66.58    5.48
  12  -4 -17    2.71    0.69
  12  -4 -17    2.75    0.64
 -12  -4  17    3.19    0.71
 -12   4  17    2.91    0.74
  12   4 -17    3.26    0.68
  10  -4 -17    8.93    1.26
  10  -4 -17   10.00    1.23
 -10  -4  17   12.44    1.37
  10   4 -17    8.65    1.19
 -10   4  17    8.84    1.29
   8  -4 -17    0.34    0.40
  -8  -4  17   -0.81    0.37
  -8   4  17   -0.23    0.41
   6  -4 -17    7.30    1.05
  -6  -4  17    9.22    1.21
  -6   4  17    6.81    1.09
   4  -4 -17   -0.17    0.41
  -4  -4  17   -0.03    0.42
  -4   4  17   -0.71    0.32
   4   4 -17    0.50    0.52
   2  -4 -17    8.93    1.14
  -2  -4  17    7.92    1.18
   2   4 -17    8.71    1.22
  -2   4  17    8.48    1.18
   0  -4  17    1.26    0.55
   0  -4 -17    0.86    0.50
   0   4  17    1.20    0.53
   0   4 -17    1.32    0.58
  -2  -4 -17    4.60    0.83
   2  -4  17    4.16    0.86
  -2   4 -17    6.65    0.99
   2   4  17    5.42    0.88
   4  -4  17    0.02    0.43
  -4  -4 -17   -0.24    0.41
  -4   4 -17    0.13    0.45
   4   4  17   -0.21    0.38
  -6  -4 -17    9.63    1.25
   6  -4  17    9.31    1.36
   6   4  17   11.74    1.41
  -6   4 -17    9.52    1.31
  -8  -4 -17    0.66    0.46
   8   4  17    0.29    0.44
  -8   4 -17    0.67    0.54
 -10  -4 -17   11.86    1.39
 -10   4 -17   10.81    1.37
  10   4  17    8.64    1.28
 -12  -4 -17    1.97    0.62
  12   4  17    1.14    0.54
 -12   4 -17    2.42    0.69
 -14  -4 -17    5.94    1.01
  14   4  17    5.75    0.97
 -14   4 -17    5.70    0.98
 -21  -5  17    9.76    1.40
  21  -5 -17   10.53    1.34
  21   5 -17   10.20    1.28
 -21   5  17   11.87    1.44
 -19  -5  17   74.71    6.60
  19  -5 -17   71.45    6.24
  19   5 -17   78.71    6.23
 -19   5  17   71.92    6.55
 -17  -5  17   11.93    1.52
  17  -5 -17   11.34    1.41
  17   5 -17   11.68    1.39
 -17   5  17   10.51    1.45
 -15  -5  17   86.14    6.37
  15  -5 -17   75.00    6.04
  15   5 -17   56.67    5.91
 -15   5  17   71.67    6.29
  13  -5 -17   43.39    3.38
 -13  -5  17   38.31    3.47
  13  -5 -17   29.68    3.21
  13   5 -17   35.70    3.24
 -13   5  17   39.72    3.49
  11  -5 -17   48.31    4.16
  11  -5 -17   42.27    4.05
 -11  -5  17   45.63    4.31
  11   5 -17   49.93    4.09
 -11   5  17   51.53    4.36
   9  -5 -17   47.58    4.22
  -9  -5  17   48.06    4.40
   9  -5 -17   48.06    4.14
   9   5 -17   49.82    4.15
  -9   5  17   47.85    4.40
  -7  -5  17   32.70    3.40
   7  -5 -17   41.88    3.25
  -7   5  17   34.58    3.43
  -5  -5  17   34.77    2.96
   5  -5 -17   31.54    2.76
  -5   5  17   25.05    2.87
  -3  -5  17   50.06    4.82
   3  -5 -17   53.10    4.58
   3   5 -17   49.84    4.66
  -3   5  17   62.68    4.89
   1  -5 -17   46.07    4.21
  -1  -5  17   48.08    4.46
  -1   5  17   47.46    4.44
   1   5 -17   55.98    4.34
  -1  -5 -17   34.48    3.01
  -1   5 -17   29.57    3.02
   1   5  17   35.14    3.13
  -3  -5 -17   62.89    4.92
  -3   5 -17   59.10    4.97
   3   5  17   51.33    5.10
  -5  -5 -17   36.99    3.16
   5   5  17   36.28    3.32
  -5   5 -17   31.90    3.19
  -7  -5 -17   46.49    4.01
   7   5  17   45.11    4.17
  -9  -5 -17   21.39    2.01
  -9   5 -17   20.04    2.04
   9   5  17   18.34    2.03
 -11  -5 -17   49.60    3.75
  11   5  17   40.08    3.79
 -11   5 -17   35.51    3.67
 -13  -5 -17    8.96    1.23
 -13   5 -17    8.01    1.19
  13   5  17    8.46    1.19
 -20  -6  17   12.25    1.48
  20  -6 -17    9.71    1.33
  20   6 -17    9.18    1.24
 -20   6  17   10.47    1.41
  18  -6 -17   50.70    4.65
 -18  -6  17   45.05    4.84
  18   6 -17   56.95    4.62
 -18   6  17   53.15    4.89
 -18   6  17   63.42    4.60
  16  -6 -17    5.71    0.95
 -16  -6  17    4.50    0.94
 -16   6  17    5.50    0.82
 -16   6  17    4.43    0.95
  16   6 -17    6.60    0.90
  14  -6 -17   44.63    3.86
 -14  -6  17   53.65    4.11
  14   6 -17   40.91    3.77
 -14   6  17   43.73    3.73
 -14   6  17   37.62    3.98
 -12  -6  17    4.42    0.91
  12  -6 -17    6.16    0.98
 -12   6  17    5.27    0.95
  12   6 -17    4.89    0.82
  10  -6 -17   82.06    7.99
  10  -6 -17  106.84    7.99
 -10  -6  17   96.93    8.41
  10   6 -17  101.82    7.96
 -10   6  17   95.15    8.38
   8  -6 -17    1.19    0.50
  -8  -6  17    1.77    0.66
  -8   6  17    1.78    0.63
   6  -6 -17   70.55    6.17
  -6   6  17   78.33    6.56
   4  -6 -17    3.63    0.71
  -4   6  17    4.74    0.87
   2  -6 -17   78.42    6.80
  -2   6  17   85.53    7.19
   0  -6 -17   -0.08    0.39
   0   6  17    0.12    0.44
   0   6 -17   -0.27    0.46
  -2  -6 -17   65.36    4.89
  -2   6 -17   49.58    4.88
   2   6  17   55.68    5.09
  -4  -6 -17    9.28    1.24
   4   6  17   10.28    1.34
  -4   6 -17    9.73    1.33
  -6  -6 -17   57.23    5.02
   6   6  17   59.08    5.27
  -6   6 -17   60.76    5.11
  -8  -6 -17   10.46    1.29
  -8   6 -17   12.30    1.38
   8   6  17    6.75    1.18
 -10  -6 -17   34.47    3.10
 -10   6 -17   33.19    3.13
 -12  -6 -17    9.59    1.33
  12  -6  17   10.74    1.79
  12   6  17   11.30    1.51
 -12   6 -17   11.46    1.46
  17  -7 -17    0.21    0.44
  17   7 -17   -0.31    0.38
 -17   7  17   -0.03    0.34
 -17   7  17   -0.22    0.44
  15  -7 -17    1.04    0.57
 -15   7  17    1.88    0.48
 -15   7  17    1.56    0.63
  15   7 -17    1.12    0.50
  13  -7 -17    0.53    0.51
  13   7 -17    1.03    0.53
 -13   7  17    0.82    0.56
 -13   7  17    1.44    0.47
  11  -7 -17    4.02    0.80
 -11   7  17    3.09    0.59
  11   7 -17    3.30    0.69
 -11   7  17    2.22    0.70
  -9   7  17    0.54    0.50
   7  -7 -17    1.23    0.51
  -7   7  17    2.31    0.66
   5  -7 -17    1.30    0.51
  -5   7  17    1.22    0.55
   3  -7 -17    0.00    0.38
  -3   7  17    0.15    0.45
   1  -7 -17    0.51    0.45
  -1   7  17    0.30    0.49
  -1  -7 -17    0.53    0.43
  -1   7 -17    0.55    0.57
   1   7  17    1.22    0.53
  -3  -7 -17    2.86    0.65
  -3   7 -17    1.49    0.66
   3   7  17    2.61    0.68
  -5  -7 -17    1.81    0.62
  -5   7 -17    2.63    0.71
   5   7  17    2.93    0.70
  -7  -7 -17    0.76    0.49
  -7   7 -17    0.69    0.59
   7   7  17    1.24    0.56
   9  -7  17   -0.27    0.58
  -9  -7 -17   -0.18    0.44
   9   7  17    0.02    0.41
  -9   7 -17    0.09    0.51
  14  -8 -17   46.72    3.90
 -14   8  17   42.73    4.04
  14   8 -17   44.91    3.79
 -14   8  17   40.86    3.72
  12  -8 -17    3.95    0.86
  12   8 -17    4.51    0.81
 -12   8  17    4.49    0.74
 -12   8  17    5.50    0.91
  10  -8 -17   26.28    2.52
 -10   8  17   25.46    2.60
 -10   8  17   27.03    2.36
  10   8 -17   25.42    2.40
  -8   8  17    0.04    0.45
   6  -8 -17   21.71    2.09
   4  -8 -17    1.29    0.51
  -4   8  17    1.35    0.56
   2  -8 -17   47.48    4.17
  -2   8  17   49.20    4.41
   0  -8 -17    1.01    0.49
   0   8  17   -0.23    0.42
  -2  -8 -17   51.12    4.63
   2   8  17   64.39    4.93
  -2   8 -17   47.60    4.72
  -4  -8 -17    2.93    0.72
  -4   8 -17    3.51    0.83
   4   8  17    2.66    0.70
  -6  -8 -17   18.95    2.10
   6  -8  17   26.60    2.68
  -6   8 -17   21.17    2.19
  -9   9  17   31.68    3.19
  -9   9  17   35.03    2.95
  -7   9  17   30.09    2.93
   5  -9 -17   37.61    3.16
  -5   9  17   32.43    3.33
   3  -9 -17   49.41    4.03
  -3   9  17   43.00    4.24
   1  -9 -17   43.65    3.89
  -1   9  17   45.66    4.14
  -1  -9 -17   30.38    3.08
   1   9  17   39.33    3.30
  22   0 -18   77.01    6.62
 -22   0  18   82.10    7.11
  20   0 -18   61.61    5.31
 -20   0  18   63.36    5.59
  18   0 -18   58.37    5.08
 -18   0  18   60.65    5.33
 -16   0  18   53.04    4.53
  16   0 -18   46.29    4.28
  14   0 -18   51.45    4.42
 -14   0  18   50.46    4.60
  12   0 -18   51.21    4.23
 -12   0  18   45.86    4.40
 -10   0  18   47.81    4.07
  10   0 -18   40.78    3.89
   8   0 -18   75.96    6.53
  -8   0  18   80.01    6.84
   6   0 -18   44.31    3.89
  -6   0  18   44.47    4.06
  -4   0  18  106.49    9.16
   4   0 -18  105.31    8.75
  -2   0  18   28.90    2.76
   2   0 -18   28.37    2.67
   0   0 -18   72.64    6.14
   0   0  18   73.03    6.41
   2   0  18   14.08    1.69
  -2   0 -18   13.93    1.62
   4   0  18   86.71    7.58
  -6   0 -18    0.23    0.47
   6   0  18    0.72    0.47
  -8   0 -18   45.85    4.02
   8   0  18   45.24    4.14
 -10   0 -18    1.48    0.62
  10   0  18    1.62    0.58
  12   0  18   68.32    6.07
  21  -1 -18   29.91    2.70
 -21  -1  18   34.83    2.87
 -21   1  18   25.45    2.80
  21   1 -18   26.98    2.67
  19  -1 -18    0.80    0.47
 -19  -1  18   -0.41    0.42
 -19   1  18    0.47    0.49
  19   1 -18    0.01    0.42
  17  -1 -18   35.34    3.08
 -17  -1  18   33.21    3.20
  17   1 -18   35.01    3.07
 -17   1  18   31.81    3.18
  15  -1 -18   -0.07    0.44
 -15  -1  18    1.10    0.53
 -15   1  18   -0.10    0.42
  15   1 -18    0.71    0.49
  13  -1 -18   37.42    3.43
 -13  -1  18   38.48    3.58
  13   1 -18   41.99    3.46
 -13   1  18   36.66    3.57
  11  -1 -18    1.46    0.56
  11  -1 -18    1.84    0.63
 -11  -1  18    0.90    0.52
 -11   1  18    0.87    0.53
  11   1 -18    1.32    0.57
  -9  -1  18   28.09    3.12
   9  -1 -18   41.72    3.10
  -9   1  18   38.45    3.20
   9   1 -18   27.16    3.01
   7  -1 -18    0.42    0.47
  -7  -1  18    0.02    0.43
   7   1 -18   -0.41    0.45
  -7   1  18   -0.36    0.42
   5  -1 -18   43.33    4.05
  -5  -1  18   44.42    4.24
  -5   1  18   54.16    4.29
   5   1 -18   45.50    4.09
   3  -1 -18    1.02    0.51
  -3  -1  18    0.53    0.51
   3   1 -18    0.76    0.54
  -3   1  18    0.13    0.43
   1  -1 -18   33.51    2.88
  -1  -1  18   31.22    2.99
  -1   1  18   29.18    2.97
   1   1 -18   31.37    2.89
   1  -1  18    3.52    0.73
  -1  -1 -18    2.17    0.64
   1   1  18    2.99    0.69
  -1   1 -18    3.33    0.75
  -3  -1 -18   24.32    2.29
   3  -1  18   20.41    2.30
  -3   1 -18   28.44    2.34
   3   1  18   22.49    2.31
  -5  -1 -18    4.97    0.86
   5  -1  18    4.95    0.86
  -5   1 -18    3.89    0.83
   5   1  18    4.16    0.79
  -7  -1 -18   42.88    3.84
   7  -1  18   40.19    3.98
   7   1  18   44.90    4.00
  -7   1 -18   46.51    3.89
  -9  -1 -18    4.11    0.80
   9  -1  18    2.69    0.69
   9   1  18    2.78    0.71
  -9   1 -18    4.02    0.83
 -11  -1 -18   21.86    2.31
  11  -1  18   24.76    2.42
  11   1  18   27.40    2.46
 -11   1 -18   22.23    2.35
 -13  -1 -18    7.79    1.15
  13  -1  18    7.66    1.16
  13   1  18    7.24    1.11
 -13   1 -18    8.14    1.16
  20  -2 -18    0.30    0.46
 -20  -2  18    0.22    0.43
 -20   2  18    0.70    0.51
  20   2 -18    0.34    0.44
  18  -2 -18    0.16    0.42
 -18  -2  18    0.35    0.46
 -18   2  18   -0.10    0.43
  18   2 -18    0.06    0.45
 -16  -2  18    0.61    0.53
  16  -2 -18    0.95    0.51
  16   2 -18    0.90    0.50
 -16   2  18    0.92    0.50
 -14  -2  18    0.37    0.49
  14  -2 -18    0.60    0.51
 -14   2  18    0.55    0.47
  14   2 -18    1.20    0.51
  12  -2 -18    6.42    0.93
 -12  -2  18    4.31    0.83
  12  -2 -18    5.14    0.84
 -12   2  18    4.22    0.83
  12   2 -18    2.46    0.69
 -10  -2  18    0.84    0.50
  10  -2 -18    0.54    0.47
 -10   2  18    0.94    0.50
  -8  -2  18    0.43    0.51
   8  -2 -18    0.43    0.44
  -8   2  18    0.85    0.51
  -6  -2  18   -0.37    0.39
   6  -2 -18    0.00    0.40
  -6   2  18    0.16    0.45
   6   2 -18    0.46    0.51
   4  -2 -18    0.47    0.50
  -4  -2  18    1.29    0.53
  -4   2  18    1.12    0.52
   4   2 -18    1.48    0.60
  -2  -2  18   -0.08    0.41
   2  -2 -18    0.07    0.44
  -2   2  18    0.05    0.40
   2   2 -18    0.09    0.45
   0  -2 -18    6.91    0.99
   0  -2  18    4.70    0.91
   0   2  18    5.72    0.94
   0   2 -18    6.83    1.05
  -2  -2 -18    1.42    0.55
   2  -2  18    1.34    0.56
  -2   2 -18    1.75    0.57
   2   2  18    1.57    0.58
   4  -2  18    6.45    0.98
  -4  -2 -18    5.61    0.96
  -4   2 -18    6.00    0.99
   4   2  18    4.56    0.89
  -6  -2 -18    2.03    0.65
   6  -2  18    2.21    0.63
  -6   2 -18    2.57    0.68
   6   2  18    1.34    0.57
   8  -2  18    2.58    0.64
  -8  -2 -18    1.52    0.60
   8   2  18    1.84    0.56
  -8   2 -18    1.54    0.65
  10  -2  18    0.91    0.55
 -10  -2 -18   -0.04    0.47
  10   2  18    1.24    0.56
 -10   2 -18    0.33    0.52
 -12  -2 -18    2.74    0.74
  12  -2  18    2.40    0.70
 -12   2 -18    2.46    0.70
  12   2  18    2.41    0.65
  21  -3 -18   66.64    5.78
 -21  -3  18   79.18    6.15
 -21   3  18   80.04    6.22
  21   3 -18   53.71    5.69
 -19  -3  18    0.99    0.55
  19  -3 -18    1.00    0.52
 -19   3  18    0.02    0.46
  19   3 -18   -0.03    0.43
 -17  -3  18   45.05    4.29
  17  -3 -18   47.65    4.10
 -17   3  18   47.83    4.29
 -15  -3  18    0.23    0.47
  15  -3 -18    0.44    0.50
  15   3 -18    1.51    0.54
 -15   3  18    0.93    0.47
  13  -3 -18   73.84    6.06
 -13  -3  18   69.60    6.33
  13  -3 -18   73.80    6.08
  13   3 -18   80.43    6.07
 -13   3  18   62.74    6.30
  11  -3 -18    1.03    0.56
 -11  -3  18    0.54    0.51
  11  -3 -18    0.70    0.52
  11   3 -18    0.90    0.53
 -11   3  18    1.10    0.50
   9  -3 -18   55.20    4.88
  -9  -3  18   57.15    5.12
  -9   3  18   59.10    5.14
   7  -3 -18    0.32    0.45
  -7  -3  18    0.62    0.49
  -7   3  18    0.69    0.47
   5  -3 -18   55.74    4.83
  -5  -3  18   56.44    5.08
  -5   3  18   55.41    5.07
   5   3 -18   59.34    4.90
  -3  -3  18    2.51    0.68
   3  -3 -18    2.40    0.63
   3   3 -18    2.30    0.71
  -3   3  18    1.94    0.62
   1  -3 -18   64.89    5.13
  -1  -3  18   57.52    5.37
   1   3 -18   55.24    5.14
  -1   3  18   62.59    5.37
  -1  -3 -18   17.02    1.76
   1  -3  18   15.54    1.81
  -1   3 -18   15.21    1.84
   1   3  18   19.80    1.85
   3  -3  18   50.95    5.04
  -3  -3 -18   62.73    4.86
   5  -3  18   14.46    1.81
  -5  -3 -18   18.88    1.83
   5   3  18   17.06    1.89
  -5   3 -18   20.57    1.88
  -7  -3 -18   63.77    5.11
   7  -3  18   59.34    5.34
   7   3  18   52.26    5.25
  -7   3 -18   64.57    5.14
  -9  -3 -18    5.64    1.02
   9  -3  18    7.20    1.14
   9   3  18   10.35    1.22
  -9   3 -18    7.96    1.15
 -11  -3 -18   40.76    3.21
  11   3  18   33.01    3.25
 -11   3 -18   31.39    3.16
 -20  -4  18   30.49    3.00
 -20   4  18   31.45    2.98
 -18  -4  18   44.73    4.40
  18  -4 -18   48.12    4.23
  18   4 -18   53.11    4.20
 -18   4  18   47.81    4.41
 -16  -4  18   32.71    3.05
  16  -4 -18   32.37    2.92
  16   4 -18   30.15    2.87
 -16   4  18   31.94    3.04
  14  -4 -18   47.27    4.13
  14  -4 -18   52.62    4.12
 -14  -4  18   45.48    4.31
 -14   4  18   44.69    4.31
  14   4 -18   46.37    4.08
  12  -4 -18   77.56    7.00
  12  -4 -18   77.69    6.97
 -12  -4  18   79.40    7.31
 -12   4  18  101.47    7.41
  12   4 -18   85.29    6.98
 -10  -4  18   25.92    2.46
  10  -4 -18   22.76    2.32
 -10   4  18   25.14    2.47
   8  -4 -18   64.98    5.10
  -8  -4  18   54.79    5.35
  -6  -4  18   24.51    2.54
   6  -4 -18   30.00    2.47
  -6   4  18   23.58    2.50
  -4  -4  18   68.12    6.17
   4  -4 -18   72.73    5.88
   4   4 -18   64.69    5.92
  -4   4  18   73.43    6.20
   2  -4 -18   14.78    1.57
  -2  -4  18   12.54    1.66
   2   4 -18   14.92    1.75
  -2   4  18   16.34    1.68
   0  -4 -18   67.67    5.23
   0  -4  18   62.50    5.50
   0   4 -18   71.18    5.32
   0   4  18   48.12    5.40
  -2  -4 -18   12.16    1.39
   2  -4  18   11.89    1.49
   2   4  18   10.13    1.40
  -2   4 -18    9.35    1.36
  -4  -4 -18   52.89    4.63
   4  -4  18   52.32    4.90
  -4   4 -18   57.23    4.71
   4   4  18   53.47    4.85
  -6  -4 -18    8.57    1.16
   6   4  18    8.63    1.19
  -8  -4 -18   48.71    4.11
  -8   4 -18   45.14    4.14
 -10  -4 -18    0.32    0.47
 -10   4 -18    0.68    0.51
  10   4  18    0.52    0.46
 -17  -5  18    1.50    0.62
  17  -5 -18    1.70    0.57
  17  -5 -18    2.74    0.65
 -17   5  18    2.81    0.67
  17   5 -18    1.28    0.53
  15  -5 -18    0.73    0.49
 -15  -5  18    0.71    0.51
  15  -5 -18    0.62    0.52
 -15   5  18    1.01    0.54
  15   5 -18    0.65    0.47
  13  -5 -18    1.54    0.56
 -13  -5  18    2.03    0.64
  13  -5 -18    2.04    0.66
 -13   5  18    1.44    0.59
  13   5 -18    2.09    0.60
  11  -5 -18    8.61    1.14
 -11  -5  18    8.17    1.24
  11  -5 -18    7.01    1.18
  11   5 -18   10.31    1.20
 -11   5  18    8.16    1.21
  -9  -5  18   12.11    1.57
   9  -5 -18   11.41    1.43
  -9   5  18   14.76    1.53
   7  -5 -18    0.34    0.44
  -7  -5  18   -0.20    0.41
  -7   5  18   -0.22    0.41
  -5  -5  18    0.52    0.52
   5  -5 -18    1.44    0.52
  -5   5  18    1.52    0.58
  -3  -5  18   -0.18    0.50
   3  -5 -18    0.52    0.45
  -3   5  18    0.21    0.46
   1  -5 -18    8.77    1.19
   1   5 -18    8.70    1.29
  -1   5  18   11.68    1.38
  -1  -5 -18    4.25    0.79
  -1   5 -18    3.50    0.83
   1   5  18    3.87    0.81
  -3  -5 -18   19.75    2.04
   3   5  18   21.71    2.15
  -3   5 -18   21.64    2.15
  -5  -5 -18    1.31    0.54
   5   5  18    0.89    0.52
  -5   5 -18    1.66    0.62
  -7  -5 -18    8.09    1.13
  -9  -5 -18    2.36    0.67
  -9   5 -18    2.56    0.68
   9   5  18    2.46    0.68
 -16  -6  18   13.27    1.64
  16  -6 -18   15.05    1.64
  16  -6 -18   14.78    1.58
 -16   6  18   11.84    1.57
  16   6 -18   10.95    1.43
  14  -6 -18    9.46    1.20
  14  -6 -18    9.01    1.28
 -14  -6  18    8.00    1.26
  14   6 -18    9.20    1.17
 -14   6  18    9.00    1.27
 -12  -6  18   10.21    1.40
  12  -6 -18    9.20    1.33
  12  -6 -18   10.96    1.30
  12   6 -18   11.69    1.32
 -12   6  18    9.48    1.35
  10  -6 -18    8.16    1.10
 -10   6  18    7.76    1.19
   8  -6 -18    5.87    0.91
  -8   6  18    6.01    1.00
   6  -6 -18   11.87    1.39
  -6   6  18   10.69    1.45
   4  -6 -18    6.86    1.05
  -4   6  18    8.87    1.19
   2  -6 -18   12.79    1.49
  -2   6  18   12.05    1.54
   0  -6 -18   16.61    1.62
   0   6  18   13.13    1.72
  -2  -6 -18    4.56    0.82
   2   6  18    4.48    0.86
  -2   6 -18    4.00    0.87
  -4  -6 -18   18.73    1.94
   4   6  18   20.15    2.02
  -6  -6 -18    0.82    0.48
  -6   6 -18    0.71    0.58
   6   6  18    0.91    0.52
  -8   6 -18   24.53    2.34
   8   6  18   22.56    2.45
  13  -7 -18   89.97    7.36
 -13   7  18   87.15    7.69
  13   7 -18   86.31    7.28
  11  -7 -18    0.00    0.43
 -11   7  18    0.03    0.45
   9  -7 -18   60.17    5.19
  -9   7  18   62.63    5.51
   7  -7 -18    4.27    0.79
  -7   7  18    3.21    0.78
   5  -7 -18   80.99    7.30
  -5   7  18   97.82    7.79
   3  -7 -18    9.57    1.19
  -3   7  18    7.23    1.15
   1  -7 -18   90.16    7.34
  -1   7  18   86.60    7.72
  -1  -7 -18    4.19    0.77
   1   7  18    3.50    0.81
  -3  -7 -18   56.92    5.20
   3   7  18   69.57    5.51
  -3   7 -18   57.71    5.30
  -5  -7 -18    8.18    1.17
   5   7  18    7.08    1.12
  -5   7 -18    9.59    1.30
   8  -8 -18   38.15    3.48
  -8   8  18   40.06    3.67
   6  -8 -18   12.84    1.50
  -6   8  18   13.73    1.66
   4  -8 -18   43.13    3.81
  -4   8  18   44.52    4.05
   2  -8 -18    8.71    1.25
  -2   8  18   11.29    1.39
   0   8  18   22.19    2.28
  18   0 -19    0.10    0.43
 -18   0  19   -0.07    0.43
 -16   0  19   -0.33    0.37
  16   0 -19    0.13    0.41
 -14   0  19   -0.01    0.43
  14   0 -19   -0.23    0.42
 -12   0  19    0.30    0.44
 -10   0  19   -0.42    0.35
  -8   0  19   -0.53    0.39
   8   0 -19    0.21    0.50
   6   0 -19   -0.26    0.45
  -6   0  19   -0.34    0.39
  -4   0  19    0.04    0.44
   4   0 -19    0.47    0.49
   2   0 -19    0.40    0.47
  -2   0  19   -0.06    0.43
   0   0  19    0.27    0.45
   0   0 -19    0.08    0.45
  -2   0 -19   -0.12    0.42
   2   0  19   -0.14    0.41
   4   0  19    0.16    0.40
  -4   0 -19   -0.31    0.42
   6   0  19   -0.47    0.36
  -6   0 -19   -0.04    0.47
  -8   0 -19   -0.07    0.43
   8   0  19   -0.05    0.42
  10   0  19    0.23    0.48
 -17  -1  19   16.07    1.65
  17  -1 -19    9.68    1.50
 -17   1  19   18.43    1.67
  17   1 -19   13.26    1.60
  15  -1 -19   16.96    1.94
 -15  -1  19   23.34    2.07
  15   1 -19   19.19    1.96
 -15   1  19   18.82    2.03
  13  -1 -19   11.49    1.50
 -13  -1  19   13.06    1.62
 -13   1  19   14.26    1.53
  11  -1 -19   38.41    3.15
 -11  -1  19   30.26    3.14
 -11   1  19   33.84    3.19
   9  -1 -19   12.31    1.49
  -9  -1  19   12.60    1.52
  -9   1  19   10.82    1.46
  -7  -1  19   69.68    6.37
   7  -1 -19   67.15    6.08
   7   1 -19   83.49    6.17
  -7   1  19   70.57    6.37
  -5  -1  19    9.63    1.27
   5  -1 -19    8.78    1.20
   5   1 -19    7.66    1.21
  -5   1  19    9.76    1.28
  -3  -1  19   45.55    4.31
   3  -1 -19   51.52    4.15
  -3   1  19   46.66    4.31
   3   1 -19   45.88    4.14
  -1  -1  19    1.73    0.59
   1  -1 -19    1.05    0.54
  -1   1  19    1.49    0.59
   1   1 -19    0.64    0.54
  -1  -1 -19   42.06    3.39
   1  -1  19   33.50    3.46
  -1   1 -19   37.07    3.36
  -3  -1 -19    0.50    0.47
   3  -1  19   -0.15    0.41
  -3   1 -19    0.21    0.47
   3   1  19    0.08    0.43
  -5  -1 -19   64.74    5.58
   5  -1  19   66.70    5.86
   7  -1  19   -0.46    0.40
  -7  -1 -19    0.50    0.51
   7   1  19   -0.38    0.37
  -7   1 -19    0.50    0.52
   9  -1  19   17.29    1.95
  -9  -1 -19   18.17    1.92
   9   1  19   19.51    1.95
  -9   1 -19   18.97    1.95
 -18  -2  19    4.72    0.87
  18  -2 -19    4.19    0.84
 -18   2  19    3.87    0.92
  18   2 -19    4.66    0.84
  16  -2 -19   70.42    5.61
 -16  -2  19   62.61    5.84
  16   2 -19   61.05    5.55
 -16   2  19   69.91    5.87
 -14  -2  19    9.73    1.28
  14  -2 -19    8.19    1.21
  14   2 -19    9.02    1.20
 -14   2  19    8.89    1.24
 -12  -2  19   70.31    6.45
  12  -2 -19   77.45    6.21
 -12   2  19   72.68    6.47
 -10  -2  19   12.80    1.55
  10  -2 -19   10.65    1.39
 -10   2  19   11.55    1.49
  -8  -2  19   71.83    6.58
   8  -2 -19   70.18    6.26
  -8   2  19   82.72    6.62
   6  -2 -19   13.55    1.65
  -6  -2  19   13.84    1.71
   6   2 -19   16.55    1.78
   4  -2 -19   62.74    4.67
  -4  -2  19   42.17    4.78
  -4   2  19   58.10    4.86
  -2  -2  19   11.89    1.56
   2  -2 -19    8.64    1.39
   2   2 -19   13.55    1.60
  -2   2  19   18.76    1.62
   0  -2 -19   47.44    4.09
   0   2 -19   45.31    4.12
   0   2  19   48.34    4.30
   2  -2  19   22.86    2.51
  -2  -2 -19   27.37    2.46
   2   2  19   27.81    2.55
  -2   2 -19   25.26    2.50
   4  -2  19   59.47    5.42
  -4  -2 -19   60.82    5.18
  -4   2 -19   63.76    5.22
   4   2  19   58.66    5.39
  -6  -2 -19   26.32    2.60
   6  -2  19   25.22    2.72
   6   2  19   30.41    2.76
  -6   2 -19   30.47    2.69
  -8  -2 -19   37.91    3.55
   8  -2  19   48.01    3.76
  -8   2 -19   36.50    3.54
   8   2  19   37.68    3.68
  17  -3 -19   12.24    1.42
 -17  -3  19   10.82    1.41
  17   3 -19   11.14    1.39
 -17   3  19    9.64    1.38
 -15  -3  19   10.38    1.40
  15  -3 -19    9.86    1.38
  15   3 -19   11.97    1.42
 -15   3  19   10.96    1.42
  13  -3 -19    8.99    1.20
 -13  -3  19    6.63    1.14
  13  -3 -19    8.97    1.30
 -13   3  19    9.06    1.23
  11  -3 -19   17.74    1.77
 -11  -3  19   14.25    1.86
 -11   3  19   16.89    1.80
  -9  -3  19    0.92    0.54
   9  -3 -19    1.19    0.52
  -9   3  19    0.72    0.54
   7  -3 -19   13.18    1.45
  -7  -3  19   11.16    1.46
  -7   3  19   10.18    1.44
   5  -3 -19    2.73    0.66
  -5  -3  19    2.33    0.65
   5   3 -19    2.39    0.84
  -5   3  19    2.29    0.69
   3  -3 -19   18.07    1.85
  -3  -3  19   12.40    1.87
  -3   3  19   20.89    1.98
   3   3 -19   23.82    2.02
  -1  -3  19    0.62    0.49
   1  -3 -19    0.71    0.48
   1   3 -19    0.25    0.48
  -1   3  19    0.70    0.50
  -1  -3 -19   10.20    1.48
   1  -3  19   10.40    1.55
   1   3  19   17.64    1.61
  -1   3 -19   18.87    1.69
   3  -3  19    0.84    0.50
  -3  -3 -19    0.43    0.44
  -3   3 -19    0.64    0.54
   3   3  19    0.46    0.42
  -5  -3 -19   16.76    1.92
   5  -3  19   20.33    2.06
   5   3  19   19.05    2.03
  -5   3 -19   20.69    2.02
  -7  -3 -19    0.13    0.42
   7  -3  19   -0.27    0.41
  -7   3 -19   -0.20    0.47
   7   3  19   -0.20    0.37
 -16  -4  19    9.74    1.32
  16  -4 -19    7.90    1.21
  16   4 -19    9.54    1.20
 -16   4  19    8.65    1.28
 -14  -4  19    1.77    0.59
  14  -4 -19    2.14    0.65
  14  -4 -19    1.63    0.58
 -14   4  19    1.37    0.56
  14   4 -19    1.99    0.63
 -12  -4  19    6.58    1.11
  12  -4 -19   10.11    1.22
 -12   4  19    7.44    1.16
  10  -4 -19    0.00    0.41
 -10  -4  19    0.68    0.50
 -10   4  19    1.32    0.56
  -8  -4  19   10.30    1.41
   8  -4 -19   10.54    1.32
  -8   4  19   11.25    1.44
   6  -4 -19    0.53    0.49
  -6  -4  19    0.57    0.53
  -6   4  19    0.83    0.55
  -4  -4  19    9.41    1.37
   4  -4 -19   11.36    1.30
  -4   4  19    8.53    1.28
   2  -4 -19    5.11    0.85
  -2  -4  19    5.76    0.98
  -2   4  19    3.75    0.83
   2   4 -19    6.18    1.01
   0  -4 -19    2.97    0.73
   0  -4  19    3.83    0.83
   0   4 -19    2.92    0.79
   0   4  19    4.21    0.81
   2  -4  19    0.53    0.54
  -2  -4 -19    0.76    0.48
   2   4  19    0.78    0.48
  -2   4 -19    0.27    0.52
  -4  -4 -19    4.83    0.87
  -4   4 -19    4.53    0.87
   4   4  19    4.83    0.89
  -6  -4 -19    4.20    0.80
   6   4  19    3.55    0.77
  -6   4 -19    3.12    0.78
 -13  -5  19   18.93    2.02
  13  -5 -19   18.06    1.92
 -13   5  19   19.88    2.05
 -11  -5  19   40.11    3.79
  11  -5 -19   36.73    3.57
 -11   5  19   45.36    3.80
   9  -5 -19   31.59    2.75
  -9  -5  19   29.29    2.90
  -9   5  19   28.30    2.88
  -7  -5  19   61.51    5.63
   7  -5 -19   63.47    5.34
  -7   5  19   63.92    5.63
  -5  -5  19    9.17    1.38
   5  -5 -19    9.75    1.24
  -5   5  19    9.25    1.30
   3  -5 -19   70.00    5.66
  -3   5  19   64.03    5.95
   1  -5 -19    1.47    0.56
   1   5 -19    1.49    0.67
  -1   5  19    1.59    0.56
  -1  -5 -19   43.43    3.92
   1   5  19   45.33    4.14
  -1   5 -19   46.91    4.04
  -3  -5 -19    0.57    0.50
  -3   5 -19    1.34    0.60
   3   5  19    1.10    0.55
  10  -6 -19    4.69    0.83
 -10   6  19    4.97    0.90
   8  -6 -19   50.69    4.77
  -8   6  19   62.08    5.09
   6  -6 -19   23.28    2.12
  -6   6  19   19.94    2.23
  -4   6  19   40.50    3.79
   2  -6 -19   12.81    1.41
  -2   6  19    8.64    1.31
   0  -6 -19   40.76    3.72
   0   6  19   44.58    3.94
 -14   0  20   65.22    5.88
 -12   0  20    3.36    0.76
 -10   0  20   78.41    6.90
   8   0 -20    6.16    1.02
  -8   0  20    5.43    0.97
   6   0 -20  139.60    9.86
  -6   0  20  101.54   10.22
  -4   0  20    2.08    0.66
   4   0 -20    1.42    0.57
   2   0 -20   38.80    4.07
  -2   0  20   56.51    4.36
   0   0 -20    0.65    0.49
   0   0  20    0.88    0.54
  -2   0 -20   46.87    4.16
   2   0  20   48.01    4.32
   4   0  20    0.97    0.53
  -4   0 -20    1.31    0.58
 -13  -1  20    3.16    0.77
 -13   1  20    4.44    0.83
 -11  -1  20   17.68    1.89
 -11   1  20   17.81    1.91
   9  -1 -20    9.88    1.25
  -9  -1  20    7.89    1.20
  -9   1  20    8.45    1.22
  -7  -1  20   21.48    2.19
   7  -1 -20   21.70    2.14
  -7   1  20   24.25    2.25
   7   1 -20   17.91    2.24
   5  -1 -20   13.54    1.65
  -5  -1  20   13.14    1.67
  -5   1  20   15.48    1.66
   5   1 -20   15.67    1.74
  -3  -1  20   11.63    1.42
   3  -1 -20    8.33    1.28
  -3   1  20   10.75    1.38
   3   1 -20   12.36    1.46
   1  -1 -20    5.97    0.95
  -1  -1  20    4.86    0.93
   1   1 -20    5.21    0.96
  -1   1  20    5.48    0.94
  -1  -1 -20    5.93    0.89
   1  -1  20    2.71    0.72
  -1   1 -20    4.86    0.88
   1   1  20    2.83    0.73
  -3  -1 -20    6.33    1.01
   3  -1  20    5.24    0.96
   3   1  20    5.74    0.97
  -3   1 -20    5.96    0.98
 -12  -2  20    0.36    0.49
 -12   2  20    0.63    0.50
 -10  -2  20    2.51    0.67
  10  -2 -20    1.29    0.60
 -10   2  20    1.16    0.59
  -8  -2  20   -0.38    0.38
   8  -2 -20    0.19    0.46
  -8   2  20    0.15    0.46
  -6  -2  20   -0.03    0.43
   6  -2 -20    0.45    0.47
  -6   2  20   -0.19    0.42
   4  -2 -20    0.63    0.49
  -4  -2  20    0.46    0.46
   4   2 -20    0.21    0.50
  -4   2  20    0.02    0.45
  -2  -2  20    2.51    0.71
   2  -2 -20    2.12    0.63
  -2   2  20    3.08    0.72
   2   2 -20    2.57    0.71
   0  -2 -20    0.58    0.51
   0  -2  20    0.60    0.48
   0   2  20    1.01    0.52
   0   2 -20    0.67    0.58
  -2  -2 -20    5.09    0.91
   2  -2  20    4.01    0.86
  -2   2 -20    6.34    0.99
   2   2  20    4.74    0.87
   4  -2  20   -0.57    0.39
  -4   2 -20    0.10    0.48
  11  -3 -20   44.14    3.94
 -11  -3  20   45.61    4.12
 -11   3  20   44.22    4.20
   9  -3 -20   23.42    2.25
  -9  -3  20   22.55    2.34
  -9   3  20   23.09    2.33
   7  -3 -20   44.83    3.66
  -7  -3  20   37.81    3.78
  -7   3  20   40.81    3.81
  -5  -3  20   21.85    2.28
   5  -3 -20   22.76    2.21
  -5   3  20   22.35    2.30
   3  -3 -20   22.66    2.20
  -3  -3  20   22.92    2.30
   3   3 -20   20.37    2.24
  -3   3  20   23.80    2.31
  -1  -3  20   22.07    2.37
   1  -3 -20   24.18    2.26
   1   3 -20   23.85    2.33
  -1  -3 -20   14.44    1.78
   1  -3  20   17.49    1.84
  -1   3 -20   18.24    1.85
   8  -4 -20    0.77    0.50
  -8  -4  20    0.30    0.51
  -6  -4  20   68.68    6.01
   6  -4 -20   64.31    5.69
  -6   4  20   69.71    6.01
  -4  -4  20    0.66    0.56
   4  -4 -20    1.27    0.54
  -4   4  20    0.68    0.52
   2  -4 -20   53.74    4.78
  -2  -4  20   55.66    5.04
  -2   4  20   52.38    5.09
   2   4 -20   62.54    4.93
   0   0   0    0.00    0.00
;
_shelx_hkl_checksum              79903
loop_
_space_group_symop_operation_xyz
'x, y, z'
'-x, y, -z+1/2'
'x+1/2, y+1/2, z'
'-x+1/2, y+1/2, -z+1/2'
'-x, -y, -z'
'x, -y, z-1/2'
'-x+1/2, -y+1/2, -z'
'x+1/2, -y+1/2, z-1/2'
loop_
_atom_site_label
_atom_site_type_symbol
_atom_site_fract_x
_atom_site_fract_y
_atom_site_fract_z
_atom_site_U_iso_or_equiv
_atom_site_adp_type
_atom_site_occupancy
_atom_site_site_symmetry_order
_atom_site_calc_flag
_atom_site_refinement_flags_posn
_atom_site_refinement_flags_adp
Ir1 Ir 0.12148(2) 0.13917(2) 0.08744(2) 0.01298(5) Uani 1 1 d . .
C2 C 0.11653(11) 0.6160(3) 0.07739(18) 0.0167(5) Uani 1 1 d . .
O6 O 0.09512(8) 0.70618(17) 0.05461(16) 0.0246(4) Uani 1 1 d . .
C12 C 0.02587(10) -0.0111(2) 0.11411(17) 0.0151(4) Uani 1 1 d . .
H12 H 0.0476 -0.0736 0.1063 0.018 Uiso 1 1 calc R U
C13 C 0.20019(11) 0.7002(2) 0.08752(19) 0.0204(5) Uani 1 1 d . .
H13A H 0.1958 0.7217 0.0232 0.031 Uiso 1 1 calc R U
H13B H 0.2365 0.6819 0.1073 0.031 Uiso 1 1 calc R U
H13C H 0.1897 0.7631 0.1239 0.031 Uiso 1 1 calc R U
C18 C 0.03587(10) 0.3021(2) 0.10339(17) 0.0150(4) Uani 1 1 d . .
C19 C -0.03903(10) 0.1720(2) 0.13297(18) 0.0170(4) Uani 1 1 d . .
H19 H -0.0606 0.2355 0.1381 0.020 Uiso 1 1 calc R U
N20 N 0.04486(8) 0.09557(17) 0.10611(14) 0.0135(4) Uani 1 1 d . .
O21 O 0.16804(8) 0.60090(16) 0.09986(14) 0.0196(4) Uani 1 1 d . .
N24 N 0.08679(8) 0.30045(18) 0.08562(15) 0.0154(4) Uani 1 1 d . .
C27 C 0.01224(9) 0.1871(2) 0.11432(17) 0.0139(4) Uani 1 1 d . .
C31 C 0.00909(10) 0.4046(2) 0.11200(18) 0.0172(5) Uani 1 1 d . .
H31 H -0.0256 0.4041 0.1243 0.021 Uiso 1 1 calc R U
C33 C 0.03501(10) 0.5080(2) 0.10186(18) 0.0171(5) Uani 1 1 d . .
H33 H 0.0176 0.5778 0.1059 0.021 Uiso 1 1 calc R U
C34 C 0.08727(10) 0.5063(2) 0.08562(17) 0.0161(4) Uani 1 1 d . .
O3 O -0.08482(8) -0.16526(18) 0.18278(15) 0.0204(4) Uani 1 1 d . .
O1 O -0.01512(9) -0.23461(18) 0.12133(17) 0.0292(5) Uani 1 1 d . .
C8 C -0.05792(10) 0.0610(2) 0.14390(17) 0.0163(4) Uani 1 1 d . .
H8 H -0.0919 0.0494 0.1578 0.020 Uiso 1 1 calc R U
C9 C -0.04086(11) -0.1547(2) 0.1439(2) 0.0171(5) Uani 1 1 d . .
C10 C -0.02497(10) -0.0325(2) 0.13364(17) 0.0153(4) Uani 1 1 d . .
C16 C 0.11166(11) 0.4005(2) 0.07767(18) 0.0168(4) Uani 1 1 d . .
H16 H 0.1465 0.3993 0.0664 0.020 Uiso 1 1 calc R U
C1 C -0.10099(12) -0.2827(3) 0.1977(2) 0.0251(6) Uani 1 1 d . .
H1A H -0.1045 -0.3239 0.1399 0.038 Uiso 1 1 calc R U
H1B H -0.1342 -0.2822 0.2215 0.038 Uiso 1 1 calc R U
H1C H -0.0750 -0.3198 0.2415 0.038 Uiso 1 1 calc R U
C6 C 0.20150(9) 0.1992(2) 0.11518(18) 0.0166(4) Uani 1 1 d . .
H6 H 0.2051 0.2787 0.1380 0.020 Uiso 1 1 calc R U
C7 C 0.19529(10) -0.0268(2) 0.00061(18) 0.0176(5) Uani 1 1 d . .
H7A H 0.1885 -0.0826 -0.0493 0.021 Uiso 1 1 calc R U
H7B H 0.2275 -0.0494 0.0392 0.021 Uiso 1 1 calc R U
C3 C 0.20294(10) 0.0925(2) -0.04086(19) 0.0177(5) Uani 1 1 d . .
H3A H 0.2397 0.1023 -0.0483 0.021 Uiso 1 1 calc R U
H3B H 0.1826 0.0969 -0.1020 0.021 Uiso 1 1 calc R U
C4 C 0.14990(10) -0.0287(2) 0.05862(18) 0.0158(4) Uani 1 1 d . .
H4 H 0.1220 -0.0839 0.0367 0.019 Uiso 1 1 calc R U
C5 C 0.23809(11) 0.1138(3) 0.1702(2) 0.0206(5) Uani 1 1 d . .
H5A H 0.2612 0.1544 0.2177 0.025 Uiso 1 1 calc R U
H5B H 0.2597 0.0761 0.1293 0.025 Uiso 1 1 calc R U
C11 C 0.18642(10) 0.1895(2) 0.01852(18) 0.0166(4) Uani 1 1 d . .
H11 H 0.1816 0.2637 -0.0138 0.020 Uiso 1 1 calc R U
C14 C 0.15582(10) -0.0092(2) 0.15538(18) 0.0164(4) Uani 1 1 d . .
H14 H 0.1313 -0.0538 0.1877 0.020 Uiso 1 1 calc R U
C15 C 0.20607(11) 0.0226(3) 0.21607(19) 0.0209(5) Uani 1 1 d . .
H15A H 0.2274 -0.0460 0.2290 0.025 Uiso 1 1 calc R U
H15B H 0.1976 0.0524 0.2747 0.025 Uiso 1 1 calc R U
F2 F 0.17900(8) 0.41430(19) 0.26100(13) 0.0339(4) Uani 1 1 d . .
F4 F 0.09517(7) 0.3968(2) 0.29268(14) 0.0345(4) Uani 1 1 d . .
F5 F 0.15868(9) 0.46014(19) 0.40462(13) 0.0386(5) Uani 1 1 d . .
F6 F 0.15739(9) 0.27190(18) 0.35730(16) 0.0395(5) Uani 1 1 d . .
B7 B 0.14803(13) 0.3873(3) 0.3296(2) 0.0228(6) Uani 1 1 d . .
loop_
_atom_site_aniso_label
_atom_site_aniso_U_11
_atom_site_aniso_U_22
_atom_site_aniso_U_33
_atom_site_aniso_U_23
_atom_site_aniso_U_13
_atom_site_aniso_U_12
Ir1 0.01016(7) 0.01086(7) 0.01856(7) -0.00011(3) 0.00425(4) -0.00001(3)
C2 0.0225(13) 0.0099(10) 0.0185(11) -0.0003(9) 0.0052(10) -0.0010(9)
O6 0.0227(10) 0.0138(9) 0.0375(11) 0.0046(8) 0.0051(8) 0.0017(7)
C12 0.0122(10) 0.0127(10) 0.0206(11) 0.0007(8) 0.0031(8) 0.0011(8)
C13 0.0190(12) 0.0161(11) 0.0268(13) 0.0010(10) 0.0050(10) -0.0029(9)
C18 0.0121(10) 0.0144(10) 0.0187(11) 0.0014(9) 0.0030(8) -0.0001(8)
C19 0.0110(11) 0.0156(11) 0.0253(12) -0.0002(9) 0.0058(9) 0.0010(9)
N20 0.0105(9) 0.0125(9) 0.0178(9) 0.0000(7) 0.0027(7) 0.0002(7)
O21 0.0191(9) 0.0128(8) 0.0271(10) 0.0028(7) 0.0043(7) -0.0025(7)
N24 0.0133(9) 0.0133(9) 0.0201(10) 0.0004(7) 0.0043(7) 0.0011(7)
C27 0.0104(10) 0.0125(10) 0.0188(10) -0.0005(8) 0.0023(8) 0.0004(8)
C31 0.0129(11) 0.0165(11) 0.0224(12) -0.0004(9) 0.0033(9) 0.0019(9)
C33 0.0160(11) 0.0125(10) 0.0230(12) -0.0008(9) 0.0033(9) 0.0009(8)
C34 0.0165(11) 0.0126(10) 0.0191(11) 0.0012(8) 0.0023(9) 0.0004(8)
O3 0.0176(9) 0.0167(8) 0.0286(10) 0.0032(8) 0.0095(8) -0.0041(7)
O1 0.0210(10) 0.0163(9) 0.0537(14) -0.0004(9) 0.0174(10) -0.0005(8)
C8 0.0129(11) 0.0167(11) 0.0200(11) 0.0015(9) 0.0042(8) 0.0003(8)
C9 0.0137(12) 0.0153(10) 0.0223(12) 0.0012(9) 0.0020(9) -0.0016(9)
C10 0.0132(11) 0.0152(11) 0.0179(11) 0.0009(8) 0.0030(8) 0.0002(8)
C16 0.0157(11) 0.0140(11) 0.0215(12) 0.0002(9) 0.0054(9) 0.0000(9)
C1 0.0229(14) 0.0208(13) 0.0328(14) 0.0068(11) 0.0079(11) -0.0066(10)
C6 0.0096(10) 0.0161(10) 0.0246(12) -0.0019(9) 0.0037(8) -0.0029(8)
C7 0.0154(11) 0.0159(11) 0.0225(11) -0.0007(9) 0.0067(9) 0.0010(9)
C3 0.0160(11) 0.0141(11) 0.0246(12) -0.0007(9) 0.0088(9) -0.0012(9)
C4 0.0125(10) 0.0114(10) 0.0243(12) 0.0012(9) 0.0056(9) 0.0009(8)
C5 0.0127(12) 0.0218(11) 0.0271(13) 0.0000(11) 0.0020(10) -0.0010(10)
C11 0.0135(11) 0.0140(10) 0.0236(12) 0.0006(9) 0.0071(9) -0.0011(8)
C14 0.0116(10) 0.0153(11) 0.0229(11) 0.0032(9) 0.0048(9) 0.0014(8)
C15 0.0145(11) 0.0247(13) 0.0231(12) 0.0034(10) 0.0004(9) -0.0006(10)
F2 0.0260(10) 0.0478(12) 0.0296(9) -0.0035(8) 0.0098(7) -0.0125(8)
F4 0.0157(9) 0.0516(12) 0.0368(11) 0.0122(9) 0.0052(7) -0.0004(8)
F5 0.0487(13) 0.0416(11) 0.0264(9) -0.0066(8) 0.0082(9) -0.0108(10)
F6 0.0403(12) 0.0314(10) 0.0457(12) 0.0067(9) 0.0018(9) 0.0057(9)
B7 0.0163(14) 0.0277(14) 0.0247(15) 0.0012(12) 0.0034(11) -0.0033(12)
loop_
_atom_type_symbol
_atom_type_description
_atom_type_scat_dispersion_real
_atom_type_scat_dispersion_imag
_atom_type_scat_source
C C 0.0040 0.0020 'International Tables Vol C Tables 4.2.6.8 and 6.1.1.4'
H H 0.0000 0.0000 'International Tables Vol C Tables 4.2.6.8 and 6.1.1.4'
B B 0.0020 0.0010 'International Tables Vol C Tables 4.2.6.8 and 6.1.1.4'
F F 0.0220 0.0130 'International Tables Vol C Tables 4.2.6.8 and 6.1.1.4'
Ir Ir -2.0650 9.1350 'International Tables Vol C Tables 4.2.6.8 and 6.1.1.4'
N N 0.0080 0.0040 'International Tables Vol C Tables 4.2.6.8 and 6.1.1.4'
O O 0.0140 0.0070 'International Tables Vol C Tables 4.2.6.8 and 6.1.1.4'
loop_
_geom_angle_atom_site_label_1
_geom_angle_atom_site_label_2
_geom_angle_atom_site_label_3
_geom_angle
N24 Ir1 N20 79.07(8)
N24 Ir1 C14 153.13(9)
N20 Ir1 C14 94.74(9)
N24 Ir1 C11 96.13(9)
N20 Ir1 C11 159.39(9)
C14 Ir1 C11 98.03(10)
N24 Ir1 C4 167.62(9)
N20 Ir1 C4 98.95(9)
C14 Ir1 C4 38.75(10)
C11 Ir1 C4 81.41(9)
N24 Ir1 C6 96.12(9)
N20 Ir1 C6 161.19(9)
C14 Ir1 C6 81.31(10)
C11 Ir1 C6 38.44(10)
C4 Ir1 C6 89.48(10)
O6 C2 O21 125.6(3)
O6 C2 C34 123.2(3)
O21 C2 C34 111.2(2)
N20 C12 C10 122.9(2)
N24 C18 C31 121.7(2)
N24 C18 C27 115.0(2)
C31 C18 C27 123.2(2)
C27 C19 C8 119.4(2)
C12 N20 C27 118.5(2)
C12 N20 Ir1 126.56(17)
C27 N20 Ir1 114.91(16)
C2 O21 C13 115.4(2)
C16 N24 C18 118.9(2)
C16 N24 Ir1 125.26(18)
C18 N24 Ir1 115.47(16)
N20 C27 C19 121.7(2)
N20 C27 C18 115.3(2)
C19 C27 C18 123.0(2)
C18 C31 C33 118.8(2)
C31 C33 C34 119.3(2)
C16 C34 C33 118.8(2)
C16 C34 C2 120.8(2)
C33 C34 C2 120.5(2)
C9 O3 C1 115.1(2)
C19 C8 C10 118.9(2)
O1 C9 O3 124.6(2)
O1 C9 C10 122.5(2)
O3 C9 C10 112.8(2)
C12 C10 C8 118.6(2)
C12 C10 C9 117.8(2)
C8 C10 C9 123.6(2)
N24 C16 C34 122.4(2)
C11 C6 C5 122.8(2)
C11 C6 Ir1 70.08(14)
C5 C6 Ir1 113.22(17)
C4 C7 C3 112.2(2)
C11 C3 C7 112.8(2)
C14 C4 C7 124.0(2)
C14 C4 Ir1 69.72(14)
C7 C4 Ir1 113.53(16)
C6 C5 C15 110.4(2)
C6 C11 C3 124.5(2)
C6 C11 Ir1 71.48(14)
C3 C11 Ir1 111.02(16)
C4 C14 C15 126.4(2)
C4 C14 Ir1 71.53(14)
C15 C14 Ir1 110.14(17)
C14 C15 C5 112.1(2)
F5 B7 F2 110.9(3)
F5 B7 F4 109.7(3)
F2 B7 F4 108.9(3)
F5 B7 F6 110.4(3)
F2 B7 F6 109.1(3)
F4 B7 F6 107.7(3)
loop_
_geom_bond_atom_site_label_1
_geom_bond_atom_site_label_2
_geom_bond_distance
Ir1 N24 2.070(2)
Ir1 N20 2.080(2)
Ir1 C14 2.117(2)
Ir1 C11 2.134(2)
Ir1 C4 2.140(2)
Ir1 C6 2.152(2)
C2 O6 1.207(4)
C2 O21 1.329(3)
C2 C34 1.490(4)
C12 N20 1.341(3)
C12 C10 1.392(3)
C13 O21 1.441(3)
C18 N24 1.363(3)
C18 C31 1.387(3)
C18 C27 1.482(3)
C19 C27 1.387(3)
C19 C8 1.392(3)
N20 C27 1.366(3)
N24 C16 1.337(3)
C31 C33 1.389(4)
C33 C34 1.390(4)
C34 C16 1.389(3)
O3 C9 1.331(3)
O3 C1 1.449(3)
O1 C9 1.208(3)
C8 C10 1.395(3)
C9 C10 1.488(4)
C6 C11 1.411(4)
C6 C5 1.517(4)
C7 C4 1.524(3)
C7 C3 1.533(3)
C3 C11 1.512(3)
C4 C14 1.413(4)
C5 C15 1.543(4)
C14 C15 1.507(4)
F2 B7 1.390(4)
F4 B7 1.394(4)
F5 B7 1.377(4)
F6 B7 1.409(4)
loop_
_geom_torsion_atom_site_label_1
_geom_torsion_atom_site_label_2
_geom_torsion_atom_site_label_3
_geom_torsion_atom_site_label_4
_geom_torsion
C10 C12 N20 C27 -2.3(4)
C10 C12 N20 Ir1 174.90(19)
O6 C2 O21 C13 -5.6(4)
C34 C2 O21 C13 175.6(2)
C31 C18 N24 C16 1.0(4)
C27 C18 N24 C16 -177.9(2)
C31 C18 N24 Ir1 174.60(19)
C27 C18 N24 Ir1 -4.3(3)
C12 N20 C27 C19 1.7(4)
Ir1 N20 C27 C19 -175.83(19)
C12 N20 C27 C18 -179.2(2)
Ir1 N20 C27 C18 3.2(3)
C8 C19 C27 N20 0.2(4)
C8 C19 C27 C18 -178.8(2)
N24 C18 C27 N20 0.7(3)
C31 C18 C27 N20 -178.2(2)
N24 C18 C27 C19 179.8(2)
C31 C18 C27 C19 0.9(4)
N24 C18 C31 C33 0.2(4)
C27 C18 C31 C33 179.0(2)
C18 C31 C33 C34 -1.5(4)
C31 C33 C34 C16 1.6(4)
C31 C33 C34 C2 -178.1(2)
O6 C2 C34 C16 155.8(3)
O21 C2 C34 C16 -25.3(3)
O6 C2 C34 C33 -24.5(4)
O21 C2 C34 C33 154.4(2)
C27 C19 C8 C10 -1.5(4)
C1 O3 C9 O1 0.2(4)
C1 O3 C9 C10 -177.7(2)
N20 C12 C10 C8 1.0(4)
N20 C12 C10 C9 -178.0(2)
C19 C8 C10 C12 0.9(4)
C19 C8 C10 C9 179.9(2)
O1 C9 C10 C12 -12.4(4)
O3 C9 C10 C12 165.6(2)
O1 C9 C10 C8 168.6(3)
O3 C9 C10 C8 -13.4(4)
C18 N24 C16 C34 -0.9(4)
Ir1 N24 C16 C34 -173.82(19)
C33 C34 C16 N24 -0.4(4)
C2 C34 C16 N24 179.3(2)
C4 C7 C3 C11 29.5(3)
C3 C7 C4 C14 -92.4(3)
C3 C7 C4 Ir1 -11.8(3)
C11 C6 C5 C15 -96.9(3)
Ir1 C6 C5 C15 -16.4(3)
C5 C6 C11 C3 2.2(4)
Ir1 C6 C11 C3 -103.2(2)
C5 C6 C11 Ir1 105.4(2)
C7 C3 C11 C6 48.1(3)
C7 C3 C11 Ir1 -33.3(3)
C7 C4 C14 C15 3.5(4)
Ir1 C4 C14 C15 -101.8(3)
C7 C4 C14 Ir1 105.3(2)
C4 C14 C15 C5 42.5(4)
Ir1 C14 C15 C5 -38.9(3)
C6 C5 C15 C14 36.2(3)
