#------------------------------------------------------------------------------
#$Date: 2019-11-23 07:23:22 +0200 (Sat, 23 Nov 2019) $
#$Revision: 232421 $
#$URL: file:///home/coder/svn-repositories/cod/cif/4/34/76/4347649.cif $
#------------------------------------------------------------------------------
#
# This file is available in the Crystallography Open Database (COD),
# http://www.crystallography.net/
#
# All data on this site have been placed in the public domain by the
# contributors.
#
data_4347649
loop_
_publ_author_name
'Wei, Zhang-Wen'
'Chen, Cheng-Xia'
'Zheng, Shao-Ping'
'Wang, Hai-Ping'
'Fan, Ya-Nan'
'Ai, Ye-Ye'
'Pan, Mei'
'Su, Cheng-Yong'
_publ_section_title
;
 Rigidifying Effect of Metal-Organic Frameworks: Protect the Conformation,
 Packing Mode, and Blue Fluorescence of a Soft Piezofluorochromic Compound
 under Pressures up to 8 MPa.
;
_journal_issue                   15
_journal_name_full               'Inorganic chemistry'
_journal_page_first              7311
_journal_page_last               7313
_journal_paper_doi               10.1021/acs.inorgchem.6b00429
_journal_volume                  55
_journal_year                    2016
_chemical_formula_moiety         'C36 H34 Ca N2 O6'
_chemical_formula_sum            'C36 H34 Ca N2 O6'
_chemical_formula_weight         630.73
_chemical_name_common            LIFM-40
_space_group_crystal_system      orthorhombic
_space_group_IT_number           19
_space_group_name_Hall           'P 2ac 2ab'
_space_group_name_H-M_alt        'P 21 21 21'
_atom_sites_solution_hydrogens   geom
_audit_creation_method           SHELXL-2013
_cell_angle_alpha                90
_cell_angle_beta                 90
_cell_angle_gamma                90
_cell_formula_units_Z            4
_cell_length_a                   8.9836(2)
_cell_length_b                   10.5918(4)
_cell_length_c                   32.7196(14)
_cell_measurement_reflns_used    3410
_cell_measurement_temperature    298(2)
_cell_measurement_theta_max      64.9500
_cell_measurement_theta_min      5.0640
_cell_volume                     3113.35(19)
_computing_structure_refinement  'SHELXL-2013 (Sheldrick, 2013)'
_computing_structure_solution    'SHELXL-2013 (Sheldrick, 2013)'
_diffrn_ambient_temperature      298(2)
_diffrn_detector                 'CCD plate'
_diffrn_detector_area_resol_mean 10.6525
_diffrn_detector_type            Atlas
_diffrn_measured_fraction_theta_full 0.929
_diffrn_measured_fraction_theta_max 1.088
_diffrn_measurement_device       'four-circle diffractometer'
_diffrn_measurement_device_type  'SuperNova, Dual, Cu at zero, Atlas'
_diffrn_measurement_method       '\w scans'
_diffrn_radiation_type           CuK\a
_diffrn_radiation_wavelength     1.54184
_diffrn_reflns_av_R_equivalents  0.0329
_diffrn_reflns_av_unetI/netI     0.0374
_diffrn_reflns_Laue_measured_fraction_full 0.929
_diffrn_reflns_Laue_measured_fraction_max 1.088
_diffrn_reflns_limit_h_max       10
_diffrn_reflns_limit_h_min       -8
_diffrn_reflns_limit_k_max       11
_diffrn_reflns_limit_k_min       -11
_diffrn_reflns_limit_l_max       27
_diffrn_reflns_limit_l_min       -37
_diffrn_reflns_number            8611
_diffrn_reflns_point_group_measured_fraction_full 0.927
_diffrn_reflns_point_group_measured_fraction_max 1.094
_diffrn_reflns_theta_full        67.684
_diffrn_reflns_theta_max         61.150
_diffrn_reflns_theta_min         4.174
_diffrn_source                   'sealed X-ray tube'
_diffrn_source_type              'SuperNova (Cu) X-ray Source'
_exptl_absorpt_coefficient_mu    2.149
_exptl_crystal_colour            Colorless
_exptl_crystal_density_diffrn    1.346
_exptl_crystal_description       Plate
_exptl_crystal_F_000             1328
_exptl_crystal_size_max          0.2
_exptl_crystal_size_mid          0.2
_exptl_crystal_size_min          0.1
_refine_diff_density_max         1.018
_refine_diff_density_min         -0.647
_refine_diff_density_rms         0.099
_refine_ls_abs_structure_details
;
 Flack x determined using 0 quotients [(I+)-(I-)]/[(I+)+(I-)]
 (Parsons and Flack (2004), Acta Cryst. A60, s61).
;
_refine_ls_abs_structure_Flack   0.000
_refine_ls_extinction_method     none
_refine_ls_goodness_of_fit_ref   1.087
_refine_ls_hydrogen_treatment    constr
_refine_ls_matrix_type           full
_refine_ls_number_parameters     409
_refine_ls_number_reflns         4618
_refine_ls_number_restraints     56
_refine_ls_restrained_S_all      1.113
_refine_ls_R_factor_all          0.0950
_refine_ls_R_factor_gt           0.0897
_refine_ls_shift/su_max          0.000
_refine_ls_shift/su_mean         0.000
_refine_ls_structure_factor_coef Fsqd
_refine_ls_weighting_details
;
 w=1/[\s^2^(Fo^2^)+(0.1287P)^2^+7.8028P]
 where P=(Fo^2^+2Fc^2^)/3
;
_refine_ls_weighting_scheme      calc
_refine_ls_wR_factor_gt          0.2369
_refine_ls_wR_factor_ref         0.2422
_reflns_Friedel_coverage         0.749
_reflns_Friedel_fraction_full    0.925
_reflns_Friedel_fraction_max     1.103
_reflns_number_gt                4261
_reflns_number_total             4618
_reflns_threshold_expression     'I > 2\s(I)'
_cod_data_source_file            ic6b00429_si_001.cif
_cod_data_source_block           LIFM-40
_cod_database_code               4347649
_shelx_space_group_comment
;
The symmetry employed for this shelxl refinement is uniquely defined
by the following loop, which should always be used as a source of
symmetry information in preference to the above space-group names.
They are only intended as comments.
;
_shelxl_version_number           2013-2
_shelx_res_file
;
REM TRMX  0.000  0.000  1.000  1.000  0.000  0.000  0.000  1.000  0.000 oP  3
REM SPGR P212121
REM  abs in P1 #1                     New: P212121
REM R1 =  0.0891 for    4261 Fo > 4sig(Fo)  and  0.0942 for all    4618 data
REM    407 parameters refined using     39 restraints
REM Highest difference peak  0.985,  deepest hole -0.541,  1-sigma level  0.094
REM  abs in P1 #1                     New: P212121
REM R1 =  0.0891 for    4261 Fo > 4sig(Fo)  and  0.0942 for all    4618 data
REM    407 parameters refined using     39 restraints
REM Highest difference peak  0.986,  deepest hole -0.542,  1-sigma level  0.094
REM TWIN
REM BASF   0.51454
REM  abs in P1 #1                     New: P212121
REM R1 =  0.0902 for    4261 Fo > 4sig(Fo)  and  0.0954 for all    4618 data
REM    409 parameters refined using     54 restraints
REM Highest difference peak  1.014,  deepest hole -0.542,  1-sigma level  0.099
REM  abs in P1 #1                     New: P212121
REM R1 =  0.0889 for    4261 Fo > 4sig(Fo)  and  0.0941 for all    4618 data
REM    409 parameters refined using     55 restraints
REM Highest difference peak  1.017,  deepest hole -0.589,  1-sigma level  0.097
REM  abs in P1 #1                     New: P212121
REM R1 =  0.0895 for    4261 Fo > 4sig(Fo)  and  0.0948 for all    4618 data
REM    409 parameters refined using     55 restraints
REM Highest difference peak  1.018,  deepest hole -0.626,  1-sigma level  0.099
TITL abs in P1 #1                     New: P212121
CELL 1.54184 8.9836 10.5918 32.7196 90.000 90.000 90.000
ZERR 4.0000 0.0002 0.0004 0.0014 0.000 0.000 0.000
LATT -1
SYMM 0.5-X, -Y, 0.5+Z
SYMM 0.5+X, 0.5-Y, -Z
SYMM -X, 0.5+Y, 0.5-Z
SFAC C H CA N O
UNIT 144 136 4 8 24
MERG 2
FMAP 2
GRID
PLAN -20
TEMP -100
BOND $H
CONF
EQIV $9 1-X, Y-1/2, 1/2-Z
EQIV $8 X-1, Y, Z
TWIN 0 -1 0 -1 0 0 0 0 1 -4
DFIX 1.45 0.01 N1 C32 N1 C33 N2 C35 N2 C36 N1 C31 N2 C34
SADI O5 C31 O6 C34
DELU 0.01 O6 C34 N2 C35 C36
SIMU 0.01 O6 C34 N2 C35 C36
DELU 0.01 O5 C21 N1 C32 C33
SIMU 0.01 O5 C21 N1 C32 C33
DFIX 1.88 0.01 H36B H32A_$9
DFIX 1.95 0.01 H36A H33A_$8
L.S. 20
ACTA
WGHT    0.128700    7.802800
BASF   0.00378   0.51644  -0.00186
FVAR       3.22794
CA1   3    0.454249    0.901148    0.248886    11.00000    0.03591    0.03740 =
         0.03504   -0.00037    0.00210   -0.00350
O1    5    0.513168    0.751342    0.200141    11.00000    0.06851    0.04109 =
         0.04452   -0.01205   -0.00386   -0.00611
O2    5    0.584101    0.550672    0.201037    11.00000    0.05100    0.03987 =
         0.04150    0.00542   -0.00156   -0.00425
O3    5   -0.010469    0.444840   -0.200591    11.00000    0.08859    0.04685 =
         0.05252    0.00711   -0.03293    0.01388
O4    5    0.079701    0.250964   -0.202378    11.00000    0.08441    0.05054 =
         0.05499   -0.01636   -0.02768    0.02038
O5    5    0.703436    0.906624    0.266495    11.00000    0.03762    0.13166 =
         0.15963   -0.02267   -0.02517    0.01040
O6    5    0.203716    0.877188    0.229669    11.00000    0.03977    0.14549 =
         0.12398    0.00221   -0.02406   -0.02435
N1    4    0.877362    0.767337    0.299631    11.00000    0.08713    0.27897 =
         0.12825   -0.00669   -0.03185    0.05841
N2    4    0.020283    0.749501    0.202120    11.00000    0.09228    0.22971 =
         0.13764   -0.00355   -0.03024   -0.06843
C1    1    0.511208    0.642293    0.186417    11.00000    0.04949    0.03892 =
         0.03180   -0.00179    0.01163   -0.00284
C2    1    0.421473    0.621100    0.148527    11.00000    0.02345    0.04480 =
         0.03624   -0.00300    0.00302   -0.00040
C3    1    0.407509    0.498945    0.132062    11.00000    0.03662    0.03184 =
         0.03933   -0.00026   -0.00138    0.00196
AFIX  43
H3    2    0.456242    0.430016    0.144949    11.00000   -1.20000
AFIX   0
C4    1    0.322929    0.478222    0.097062    11.00000    0.05000    0.02930 =
         0.03969   -0.00874    0.00455    0.01089
AFIX  43
H4    2    0.316292    0.395581    0.085926    11.00000   -1.20000
AFIX   0
C5    1    0.248930    0.576144    0.078459    11.00000    0.03032    0.03163 =
         0.03984   -0.00437   -0.00018    0.00529
C6    1    0.259173    0.695863    0.095682    11.00000    0.04365    0.02893 =
         0.05663    0.00779   -0.00652    0.00473
AFIX  43
H6    2    0.205811    0.763760    0.083629    11.00000   -1.20000
AFIX   0
C7    1    0.344625    0.718149    0.129695    11.00000    0.04436    0.04075 =
         0.04241   -0.00746   -0.00161    0.00477
AFIX  43
H7    2    0.351071    0.801293    0.140441    11.00000   -1.20000
AFIX   0
C8    1    0.151232    0.555719    0.042018    11.00000    0.03041    0.04321 =
         0.03668   -0.00369   -0.00128   -0.00662
C9    1   -0.010884    0.587618    0.047336    11.00000    0.02593    0.04513 =
         0.04314   -0.00432   -0.00102    0.00546
C10   1   -0.095162    0.637214    0.016440    11.00000    0.03110    0.04675 =
         0.05145    0.00382   -0.00165   -0.00180
AFIX  43
H10   2   -0.049885    0.656471   -0.009047    11.00000   -1.20000
AFIX   0
C11   1   -0.246035    0.659723    0.021897    11.00000    0.03809    0.04992 =
         0.07179   -0.00532   -0.01363    0.01345
AFIX  43
H11   2   -0.303658    0.692671    0.000012    11.00000   -1.20000
AFIX   0
C12   1   -0.311819    0.634716    0.058551    11.00000    0.02558    0.06074 =
         0.07446   -0.01111    0.00364    0.00274
AFIX  43
H12   2   -0.414761    0.651807    0.062230    11.00000   -1.20000
AFIX   0
C13   1   -0.231742    0.585856    0.089645    11.00000    0.03777    0.07262 =
         0.06409    0.00030    0.00879    0.00986
AFIX  43
H13   2   -0.278204    0.569051    0.115153    11.00000   -1.20000
AFIX   0
C14   1   -0.078970    0.559722    0.084269    11.00000    0.02731    0.06684 =
         0.05117    0.00756    0.00009    0.00629
AFIX  43
H14   2   -0.023001    0.523157    0.105874    11.00000   -1.20000
AFIX   0
C15   1    0.203115    0.513423    0.006349    11.00000    0.02614    0.05079 =
         0.04252   -0.00606   -0.00508    0.00326
AFIX  43
H15   2    0.132394    0.499319   -0.014749    11.00000   -1.20000
AFIX   0
C16   1    0.357806    0.487016   -0.003132    11.00000    0.02399    0.04609 =
         0.03931   -0.00148   -0.00132    0.00129
AFIX  43
H16   2    0.428375    0.500640    0.018037    11.00000   -1.20000
AFIX   0
C17   1    0.410826    0.444753   -0.039366    11.00000    0.01919    0.03456 =
         0.04019    0.00346   -0.00348   -0.00055
C18   1    0.571880    0.419709   -0.045313    11.00000    0.02233    0.03745 =
         0.04014   -0.00679   -0.00169   -0.00799
C19   1    0.658054    0.366587   -0.014855    11.00000    0.03515    0.04872 =
         0.05510   -0.00191   -0.00413    0.00164
AFIX  43
H19   2    0.614288    0.346281    0.010745    11.00000   -1.20000
AFIX   0
C20   1    0.811426    0.342137   -0.021528    11.00000    0.02739    0.04074 =
         0.06596   -0.00378   -0.01170    0.00955
AFIX  43
H20   2    0.870812    0.307118   -0.000347    11.00000   -1.20000
AFIX   0
C21   1    0.872404    0.369146   -0.058343    11.00000    0.03305    0.02934 =
         0.07643   -0.00602   -0.00061    0.00964
AFIX  43
H21   2    0.975142    0.353119   -0.062860    11.00000   -1.20000
AFIX   0
C22   1    0.786635    0.419993   -0.089589    11.00000    0.03074    0.06576 =
         0.05730   -0.00390    0.01115   -0.01667
AFIX  43
H22   2    0.829534    0.438889   -0.115413    11.00000   -1.20000
AFIX   0
C23   1    0.637956    0.442403   -0.082286    11.00000    0.03467    0.05418 =
         0.04892   -0.00115   -0.00085   -0.00125
AFIX  43
H23   2    0.578633    0.475062   -0.103872    11.00000   -1.20000
AFIX   0
C24   1    0.313072    0.422596   -0.075406    11.00000    0.02129    0.03801 =
         0.03490   -0.00394    0.00305   -0.00502
C25   1    0.298891    0.300915   -0.091784    11.00000    0.03560    0.02793 =
         0.04218    0.00001   -0.00280    0.01950
AFIX  43
H25   2    0.345515    0.231482   -0.078596    11.00000   -1.20000
AFIX   0
C26   1    0.217388    0.281568   -0.127027    11.00000    0.03783    0.03142 =
         0.03703   -0.00585   -0.00280    0.00249
AFIX  43
H26   2    0.209120    0.198628   -0.137843    11.00000   -1.20000
AFIX   0
C27   1    0.147624    0.380362   -0.146878    11.00000    0.03881    0.02846 =
         0.03577    0.00006   -0.00011   -0.00061
C28   1    0.158723    0.499436   -0.130498    11.00000    0.03766    0.03090 =
         0.04903    0.00171   -0.00929    0.00414
AFIX  43
H28   2    0.111567    0.568298   -0.143856    11.00000   -1.20000
AFIX   0
C29   1    0.237974    0.520570   -0.094655    11.00000    0.03749    0.03885 =
         0.04661   -0.00767   -0.00795    0.00484
AFIX  43
H29   2    0.240796    0.602951   -0.083200    11.00000   -1.20000
AFIX   0
C30   1    0.063612    0.358664   -0.186531    11.00000    0.06732    0.03674 =
         0.03923   -0.00047   -0.00759    0.00061
C31   1    0.755053    0.814222    0.276731    11.00000    0.05456    0.38166 =
         0.09291    0.01941   -0.00900   -0.05839
AFIX  43
H31   2    0.697581    0.745626    0.266685    11.00000   -1.20000
AFIX   0
C32   1    0.943456    0.840129    0.331028    11.00000    0.13698    0.30628 =
         0.19744   -0.04188   -0.05418    0.04630
AFIX  33
H32A  2    0.951856    0.928128    0.322068    11.00000   -1.50000
H32B  2    1.042774    0.806798    0.337117    11.00000   -1.50000
H32C  2    0.881513    0.835873    0.355644    11.00000   -1.50000
AFIX   0
C33   1    0.941803    0.641577    0.305121    11.00000    0.16477    0.28554 =
         0.19242    0.00351   -0.03325    0.06519
AFIX  33
H33A  2    0.925832    0.591474    0.280326    11.00000   -1.50000
H33B  2    0.893900    0.599721    0.328370    11.00000   -1.50000
H33C  2    1.048830    0.649322    0.310345    11.00000   -1.50000
AFIX   0
C34   1    0.146314    0.785976    0.224180    11.00000    0.06642    0.18561 =
         0.13434   -0.00472   -0.02029   -0.03838
AFIX  43
H34   2    0.193574    0.717088    0.237497    11.00000   -1.20000
AFIX   0
C35   1   -0.048043    0.849851    0.178907    11.00000    0.10667    0.32229 =
         0.18829    0.05978   -0.03076   -0.01544
AFIX  33
H35A  2    0.028386    0.894268    0.163096    11.00000   -1.50000
H35B  2   -0.096593    0.909239    0.197611    11.00000   -1.50000
H35C  2   -0.122314    0.814180    0.160255    11.00000   -1.50000
AFIX   0
C36   1   -0.059488    0.632740    0.198774    11.00000    0.18212    0.28527 =
         0.20694   -0.02081   -0.03651   -0.13285
AFIX  33
H36A  2   -0.034983    0.578567    0.222104    11.00000   -1.50000
H36B  2   -0.031299    0.590089    0.173347    11.00000   -1.50000
H36C  2   -0.166716    0.649743    0.198585    11.00000   -1.50000
AFIX   0
HKLF 4  1  0.0000 0.0000 1.0000 1.0000 0.0000 0.0000 0.0000 1.0000 0.0000

REM  abs in P1 #1                     New: P212121
REM R1 =  0.0897 for    4261 Fo > 4sig(Fo)  and  0.0950 for all    4618 data
REM    409 parameters refined using     56 restraints

END

WGHT      0.1286      7.8155

REM Highest difference peak  1.018,  deepest hole -0.647,  1-sigma level  0.099
Q1    1   0.5443  0.8970  0.2520  11.00000  0.05    1.02
Q2    1   0.4553  0.7956  0.2491  11.00000  0.05    0.60
Q3    1   0.4587  0.9001  0.2157  11.00000  0.05    0.58
Q4    1  -0.0737  0.9655  0.1995  11.00000  0.05    0.56
Q5    1   0.4499  0.9012  0.2819  11.00000  0.05    0.56
Q6    1   0.0126  0.8559  0.1942  11.00000  0.05    0.46
Q7    1   0.8775  0.8489  0.3005  11.00000  0.05    0.44
Q8    1   0.9447  0.8987  0.3054  11.00000  0.05    0.40
Q9    1   0.5421  1.0177  0.2985  11.00000  0.05    0.38
Q10   1   0.5164  0.2723 -0.0403  11.00000  0.05    0.38
Q11   1   0.5929  1.0442  0.2094  11.00000  0.05    0.38
Q12   1   0.2961  0.8838  0.2604  11.00000  0.05    0.37
Q13   1  -0.0689  0.7508  0.1673  11.00000  0.05    0.37
Q14   1   0.1335  0.8527  0.2008  11.00000  0.05    0.35
Q15   1   0.8530  0.4010 -0.1398  11.00000  0.05    0.35
Q16   1   0.4812  1.0640  0.2318  11.00000  0.05    0.35
Q17   1   0.9343  0.9951  0.3006  11.00000  0.05    0.34
Q18   1   0.4254  1.0486  0.2655  11.00000  0.05    0.33
Q19   1   0.5570  0.7441  0.3002  11.00000  0.05    0.32
Q20   1   0.5378  0.7359  0.2569  11.00000  0.05    0.31
;
_shelx_res_checksum              43886
_shelx_hkl_file
;
   0 -11   0 241.025 120.811   1
   0 -12   0 775.979 154.578   1
   0 -13   0 187.646 121.805   1
   0 -14   0 12564.4 472.585   1
   0 -15   0 87.0971 112.927   1
   0 -16   0 22421.3 662.039   1
   0 -17   0 44.3668 126.704   1
   0 -18   0 278722. 2512.20   1
   0 -19   0 1.62807 77.5956   5
   0 -19   0 34.8352 142.978   1
   0 -20   0 104904. 1656.43   1
   0 -20   0 101085. 856.879   5
   0 -21   0-1.74439 146.160   1
   0 -21   0-29.1610 87.4529   5
   0 -22   0 2040.81 277.181   1
   0 -22   0 2284.54 161.427   5
   0 -23   0 569.424 204.897   1
   0 -23   0 59.1162 98.5802   5
   0 -24   0 35177.2 571.794   5
   0 -25   0 54.5005 106.917   5
   0 -26   0 5849.31 261.461   5
   0 -27   0 14.0412 113.604   5
   0 -28   0 7796.94 303.768   5
   0 -29   0-3.37771 112.584   5
   0 -30   0 1424.89 157.489   5
   0 -31   0-110.774 113.763   5
   0 -32   0 861.042 137.323   5
   0 -33   0 0.88859 99.4905   5
   0 -34   0 4626.35 220.535   5
   0 -35   0 36.2441 90.1482   5
   0 -36   0 204.176 86.8174   5
   1   0   0 25.1801 30.1168   1
   1   1   0 3.40817 23.2379   2
   1  -1   0 20.1181 31.8212   1
   1   1   0 14.9755 31.0378   1
   1   2   0 69.0280 31.2010   2
   1  -2   0 163.996 47.4828   1
   1  -3   0 264.531 68.5769   1
   1  -4   0 108.190 64.3850   1
   1  -5   0 185.763 79.4837   1
   1  -6   0 49.4260 78.9151   1
   1  -7   0 452.409 108.278   1
   1  -8   0 98.0387 106.147   1
   1  -9   0 449.046 122.909   1
   1 -10   0 133.312 118.002   1
   1 -11   0 250.944 125.989   1
   1 -12   0 217.009 129.822   1
   1 -13   0 196.088 132.114   1
  -1 -14   0-33.3014 96.7857   1
   1 -14   0 66.5280 124.864   1
  -1 -15   0 361.413 123.272   1
   1 -15   0 336.839 144.639   1
   1 -16   0 77.6481 127.696   1
  -1 -16   0 26.4551 102.359   1
  -1 -17   0-3.42768 106.724   1
   1 -17   0 29.7950 134.563   1
   1 -18   0 643.182 97.1482   5
   1 -18   0 1046.62 208.553   1
  -1 -18   0 660.325 161.073   1
   1 -19   0 47.2596 143.058   1
  -1 -19   0 12.8337 76.5248   5
   1 -19   0-3.38825 77.2553   5
  -1 -19   0-31.9132 114.431   1
  -1 -20   0 519.167 162.996   1
  -1 -20   0 660.415 101.178   5
   1 -20   0 548.671 193.228   1
   1 -20   0 726.689 108.356   5
   1 -21   0 605.189 198.184   1
   1 -21   0 594.134 113.339   5
  -1 -21   0 506.530 98.5542   5
  -1 -22   0 167.537 92.3520   5
   1 -22   0 327.504 101.669   5
   1 -22   0 388.462 187.533   1
  -1 -23   0 162.799 96.6332   5
   1 -23   0 197.145 186.526   1
   1 -23   0 262.714 116.802   5
   1 -24   0 608.690 125.486   5
   1 -24   0 588.143 216.944   1
  -1 -24   0 668.944 118.069   5
  -1 -25   0-109.421 97.4613   5
   1 -25   0 36.3471 173.075   1
   1 -25   0-3.78690 109.270   5
  -1 -26   0 62.9140 98.0124   5
   1 -26   0 71.4963 118.338   5
   1 -27   0 233.378 127.290   5
  -1 -27   0 183.770 107.936   5
  -1 -28   0-29.1977 99.6622   5
   1 -28   0-22.0099 118.714   5
  -1 -29   0 127.018 97.1349   5
   1 -29   0 164.724 123.547   5
  -1 -30   0 81.2459 91.7199   5
   1 -30   0 8.52251 117.850   5
   1 -31   0-110.202 124.265   5
  -1 -31   0-88.1144 96.2619   5
  -1 -32   0 82.2169 87.5363   5
   1 -32   0 32.8540 110.835   5
   1 -33   0-65.6528 105.998   5
   1 -34   0 416.929 117.367   5
   1 -35   0 55.6900 95.3042   5
   1 -36   0 78.7976 85.8394   5
   1 -37   0 129.688 83.1765   5
   2   0   0 60075.3 589.208   1
   2  -1   0 49000.6 564.429   1
   2   1   0 46400.9 515.783   1
   2  -2   0 178140. 1113.43   1
   2   2   0 178995. 987.722   1
   2  -3   0 999999. 2752.00   1
   2   3   0 971669. 1941.74   2
   2   4   0 2304.27 123.647   2
   2  -4   0 4217.35 230.616   1
   2   5   0 14077.5 283.928   2
   2  -5   0 14907.2 392.981   1
   2  -6   0 62951.4 824.953   1
   2   6   0 63034.5 633.659   2
   2  -7   0 333552. 1976.58   1
   2   7   0 333642. 1586.08   2
   2   8   0 14870.2 374.005   2
   2  -8   0 14656.5 458.981   1
   2  -9   0 86486.7 1114.95   1
   2 -10   0 7847.94 373.489   1
   2 -11   0 81015.3 1175.92   1
   2 -12   0 36680.2 832.818   1
   2 -13   0 19841.6 635.540   1
   2 -14   0 2514.32 268.311   1
  -2 -15   0 57282.2 909.557   1
   2 -15   0 58970.1 1167.28   1
   2 -16   0 375.702 173.516   1
  -2 -16   0 453.751 122.083   1
   2 -17   0 1874.69 128.569   5
   2 -17   0 2119.43 273.269   1
   2 -18   0 2522.16 151.828   5
   2 -18   0 2593.48 304.418   1
   2 -19   0 1684.12 134.993   5
   2 -19   0 1720.62 272.670   1
   2 -20   0 8210.63 269.918   5
   2 -20   0 8459.47 546.448   1
   2 -21   0 3905.31 393.400   1
   2 -21   0 3803.86 201.875   5
   2 -22   0 8428.99 290.189   5
   2 -22   0 8680.41 589.543   1
   2 -23   0 15211.7 796.642   1
   2 -23   0 15251.8 386.993   5
   2 -24   0 12613.6 742.616   1
   2 -24   0 13148.1 372.655   5
   2 -25   0 1310.51 293.026   1
   2 -25   0 1328.53 159.313   5
   2 -26   0 1202.75 164.573   5
   2 -26   0 1269.08 310.206   1
   2 -27   0 24379.6 532.460   5
   2 -27   0 23061.0 1068.61   1
   2 -28   0 4530.18 262.557   5
   2 -29   0 299.271 130.396   5
   2 -30   0 285.833 129.166   5
   2 -31   0 702.656 141.137   5
   2 -32   0 116.122 118.912   5
   2 -33   0 6700.76 286.041   5
   2 -34   0 1157.11 144.765   5
   2 -35   0 2857.98 187.952   5
   2 -36   0 294.297 98.6781   5
   3   0   0 68.4939 95.6999   1
   3  -1   0 171.175 105.982   1
   3   1   0 80.1123 92.4163   1
   3   2   0 47.1671 93.8070   1
   3  -2   0 164.157 106.838   1
   3   3   0-20.3985 90.0807   1
   3  -3   0 8.01660 94.2766   1
   3  -4   0 592.751 127.456   1
   3   5   0 408.629 71.8870   2
   3  -5   0 476.602 126.386   1
   3  -6   0 839.856 152.471   1
   3   6   0 712.051 85.6095   2
   3   7   0 303.822 74.3940   2
   3  -7   0 319.851 134.008   1
   3   8   0 511.542 95.0119   2
   3  -8   0 740.270 168.989   1
   3   9   0 128.468 82.8059   2
   3  -9   0 234.752 138.172   1
   3 -10   0 806.545 178.942   1
   3  10   0 549.849 108.428   2
   3 -11   0 127.846 134.756   1
   3  11   0 132.732 91.7055   2
   3  12   0 138.675 94.2816   2
   3 -12   0 213.438 156.215   1
   3  13   0 89.2269 95.7752   2
   3 -13   0 152.469 148.543   1
   3  14   0 118.432 101.256   2
   3 -14   0 175.705 148.542   1
   3 -15   0 134.945 153.608   1
   3  15   0 180.594 103.806   2
   3 -16   0-8.08816 153.163   1
   3 -16   0 12.1071 69.7079   5
   3 -17   0 2.72943 155.086   1
   3 -17   0 45.9534 76.7852   5
   3 -18   0 625.673 215.080   1
   3 -18   0 541.691 104.709   5
   3 -19   0 45.6604 86.8132   5
   3 -19   0-23.1735 167.096   1
   3 -20   0 102.299 176.462   1
   3 -20   0 88.6927 96.9576   5
   3 -21   0 137.269 175.046   1
   3 -21   0 97.7585 95.5707   5
   3 -22   0 372.491 217.154   1
   3 -22   0 434.947 117.761   5
   3 -23   0 33.5800 103.053   5
   3 -23   0-45.5834 185.689   1
   3 -24   0 0.87894 110.271   5
   3 -24   0 192.017 187.074   1
   3 -25   0 452.877 240.202   1
   3 -25   0 416.408 132.558   5
   3 -26   0 264.268 203.960   1
   3 -26   0 204.588 128.720   5
   3 -27   0 690.349 151.961   5
   3 -28   0 38.4204 128.321   5
   3 -29   0 128.476 125.536   5
   3 -30   0 137.703 122.412   5
   3 -31   0 571.647 138.490   5
   3 -32   0 11.0211 115.467   5
   3 -33   0 580.475 126.238   5
   3 -34   0-63.1632 105.940   5
   3 -35   0-126.242 100.386   5
   3 -36   0-39.9105 90.0993   5
   4   0   0 24410.0 593.503   1
   4  -1   0 5112.19 286.564   1
   4   1   0 4490.98 277.986   1
   4  -2   0 950.990 169.779   1
   4   2   0 699.014 148.653   1
   4  -3   0 34529.1 730.118   1
   4   3   0 33408.7 680.063   1
   4  -4   0 84984.9 1160.40   1
   4  -5   0 8167.00 386.705   1
   4  -6   0 15561.2 548.102   1
   4  -7   0 66665.9 1110.87   1
   4  -8   0 852.908 195.635   1
   4  -9   0 82185.3 1324.73   1
   4 -10   0 163957. 1926.09   1
   4 -11   0 1739.01 273.869   1
   4 -12   0 71441.8 1367.57   1
   4 -13   0 41608.6 1080.94   1
   4 -14   0 25558.2 880.633   1
   4 -14   0 25461.2 412.075   4
   4 -14   0 24823.4 386.944   5
   4 -15   0 9855.51 272.243   4
   4 -15   0 10302.4 262.852   5
   4 -16   0 1951.61 296.786   1
   4 -16   0 1790.50 134.203   5
   4 -16   0 1935.17 140.001   4
   4 -17   0 7870.72 255.821   4
   4 -17   0 9353.69 597.289   1
   4 -17   0 8617.06 260.368   5
   4 -18   0 3166.70 383.291   1
   4 -18   0 3044.45 173.728   5
   4 -18   0 2466.92 155.658   4
   4 -19   0 2374.54 350.598   1
   4 -19   0 1988.02 146.395   4
   4 -19   0 2387.00 164.828   5
   4 -20   0 197.040 102.329   5
   4 -20   0 371.595 220.071   1
   4 -21   0 7363.03 599.085   1
   4 -21   0 7433.82 276.318   5
   4 -22   0 6383.48 261.404   5
   4 -22   0 6482.94 585.082   1
   4 -23   0 5062.26 246.326   5
   4 -23   0 5317.06 544.927   1
   4 -24   0 13118.2 380.071   5
   4 -24   0 13684.9 851.807   1
   4 -25   0 1505.89 335.436   1
   4 -25   0 1617.63 170.626   5
   4 -26   0 716.666 147.043   5
   4 -27   0 22293.1 505.863   5
   4 -28   0 6694.97 292.008   5
   4 -29   0 2326.69 199.025   5
   4 -30   0 42094.9 677.836   5
   4 -31   0 11075.6 353.628   5
   4 -32   0 359.016 120.720   5
   4 -33   0 4943.13 233.160   5
   4 -34   0 1291.52 136.931   5
   4 -35   0-90.8045 90.7373   5
   5   0   0-15.1245 116.233   1
   5   1   0 46.0152 134.429   1
   5  -1   0 163.183 119.691   1
   5   2   0 59.9867 118.859   1
   5  -2   0 99.0567 132.011   1
   5  -3   0 128.984 128.583   1
   5   3   0 79.7015 117.406   1
   5  -4   0 45.1608 131.180   1
   5  -5   0-6.28814 131.939   1
   5  -6   0 43.9379 137.929   1
   5  -7   0 271.634 164.135   1
   5  -8   0 328.802 157.999   1
   5  -9   0 413.465 174.011   1
   5  -9   0 293.909 81.0787   4
   5 -10   0 716.850 99.0811   4
   5 -10   0 918.594 212.346   1
   5 -11   0 625.692 195.079   1
   5 -11   0 518.244 94.5386   4
   5 -12   0 221.500 85.5503   4
   5 -12   0 332.493 193.338   1
   5 -13   0 399.204 195.429   1
   5 -13   0 537.685 102.554   4
   5 -13   0 241.045 80.9537   5
   5 -14   0 64.5837 81.5687   4
   5 -14   0 112.169 184.722   1
   5 -14   0 69.7245 75.1645   5
   5 -15   0 630.751 107.412   4
   5 -15   0 382.085 90.7514   5
   5 -15   0 482.153 224.551   1
   5 -16   0 30.9007 82.4959   5
   5 -16   0 118.352 89.0059   4
   5 -16   0 79.4872 188.449   1
   5 -17   0 130.801 88.3979   4
   5 -17   0 394.994 227.362   1
   5 -17   0 263.810 88.6335   5
   5 -18   0 43.2072 90.2885   4
   5 -18   0 178.866 87.2097   5
   5 -18   0 194.822 206.188   1
   5 -19   0 65.4582 91.5764   5
   5 -19   0 1.72998 98.6904   4
   5 -19   0 321.573 228.912   1
   5 -20   0-115.518 96.9278   4
   5 -20   0-102.586 195.735   1
   5 -20   0 37.8992 94.6156   5
   5 -21   0 27.8486 202.754   1
   5 -21   0-25.7405 92.0565   4
   5 -21   0 59.2892 101.078   5
   5 -22   0 865.519 291.751   1
   5 -22   0 788.915 132.493   5
   5 -22   0 549.179 109.784   4
   5 -23   0 43.6109 103.342   5
   5 -23   0-42.9737 188.128   1
   5 -24   0 83.6552 111.020   5
   5 -25   0-18.8572 104.765   5
   5 -26   0-13.8587 113.125   5
   5 -27   0 259.799 115.554   5
   5 -28   0 648.580 132.310   5
   5 -29   0 18.6870 105.290   5
   5 -30   0 838.658 133.163   5
   5 -31   0 117.415 101.478   5
   5 -32   0 222.467 95.0682   5
   5 -33   0 27.2184 83.2704   5
   6   0   0 49335.2 1135.55   1
   6   1   0 17119.2 674.744   1
   6  -1   0 17279.3 695.172   1
   6  -2   0 61380.5 649.658   4
   6  -2   0 63243.7 1306.12   1
   6  -3   0 4927.66 395.911   1
   6  -3   0 6446.91 235.181   4
   6  -4   0 11125.1 292.652   4
   6  -4   0 11071.2 573.288   1
   6  -5   0 19660.7 767.556   1
   6  -5   0 20725.9 399.854   4
   6  -6   0 79983.7 775.255   4
   6  -6   0 81561.2 1542.20   1
   6  -7   0 28132.1 930.531   1
   6  -7   0 28997.2 479.644   4
   6  -8   0 19061.4 398.948   4
   6  -8   0 19493.5 797.246   1
   6  -9   0 826.914 125.415   4
   6  -9   0 742.185 235.213   1
   6 -10   0 14941.7 372.491   4
   6 -10   0 14878.9 747.805   1
   6 -11   0 585.968 112.707   4
   6 -11   0 509.946 208.360   1
   6 -12   0 231.666 100.206   4
   6 -12   0 282.045 206.045   1
   6 -13   0 213.964 102.303   4
   6 -13   0 292.021 187.862   1
   6 -14   0 1324.10 283.528   1
   6 -14   0 1377.87 140.491   4
   6 -15   0 3584.55 201.176   4
   6 -15   0 3372.35 171.859   5
   6 -15   0 3256.89 421.859   1
   6 -16   0 374.473 99.4168   5
   6 -16   0 372.597 104.652   4
   6 -16   0 612.800 259.772   1
   6 -17   0 848.900 283.189   1
   6 -17   0 834.524 129.189   4
   6 -17   0 871.416 117.984   5
   6 -18   0 17602.2 391.273   5
   6 -18   0 18510.6 993.692   1
   6 -18   0 18470.2 436.201   4
   6 -19   0 8713.90 286.937   5
   6 -19   0 8704.12 700.944   1
   6 -19   0 8694.68 309.405   4
   6 -20   0 11399.9 329.243   5
   6 -20   0 11776.2 357.922   4
   6 -20   0 11850.1 839.129   1
   6 -21   0 1753.48 161.673   4
   6 -21   0 1988.50 164.758   5
   6 -22   0 10559.3 328.101   5
   6 -22   0 10311.1 335.845   4
   6 -23   0 18527.2 424.287   5
   6 -23   0 16568.7 412.918   4
   6 -24   0 22043.1 466.603   5
   6 -24   0 18792.2 427.840   4
   6 -25   0 10274.4 325.304   5
   6 -26   0 2097.79 171.284   5
   6 -27   0 206.049 97.3634   5
   6 -28   0 1016.50 128.432   5
   6 -29   0 67.7810 92.4563   5
   6 -30   0 2117.05 159.987   5
   6 -31   0 530.830 101.329   5
   6 -32   0 1565.16 128.380   5
   7   0   0-82.9013 99.1312   4
   7  -1   0-171.970 102.636   4
   7   1   0-83.1389 93.8103   4
   7   2   0-62.4003 91.6126   4
   7  -2   0-36.2516 95.1233   4
   7  -3   0-77.3515 176.697   1
   7  -3   0-73.8742 97.1496   4
   7   3   0-64.1562 88.1294   4
   7  -4   0 143.830 85.0955   4
   7  -4   0 95.0699 159.107   1
   7  -5   0-4.03739 89.1872   4
   7  -5   0-142.143 196.008   1
   7  -6   0-25.7838 177.864   1
   7  -6   0-1.73326 86.1538   4
   7  -7   0 41.3533 182.677   1
   7  -7   0-81.1733 92.9821   4
   7  -8   0 158.155 92.8806   4
   7  -8   0 353.312 212.448   1
   7  -9   0-161.882 104.534   4
   7  -9   0-6.94370 190.077   1
   7 -10   0 208.976 192.597   1
   7 -10   0-130.033 111.522   4
   7 -11   0-53.5970 102.792   4
   7 -11   0 131.924 178.601   1
   7 -12   0-46.8057 108.097   4
   7 -12   0 207.144 199.276   1
   7 -13   0 337.711 104.071   4
   7 -13   0 529.067 236.394   1
   7 -14   0-17.6446 104.439   4
   7 -14   0 36.4776 201.592   1
   7 -15   0 236.438 197.119   1
   7 -15   0 206.925 99.8387   4
   7 -16   0-28.5763 107.870   4
   7 -16   0-2.43690 205.486   1
   7 -17   0-138.543 221.315   1
   7 -17   0-7.38924 106.794   4
   7 -18   0-138.755 112.534   4
   7 -19   0 25.5768 104.391   4
   7 -20   0-54.0674 98.2199   4
   7 -21   0-25.1803 88.7533   5
   7 -21   0-91.3207 98.9800   4
   7 -22   0 59.4149 82.6973   5
   7 -22   0 95.1457 90.1677   4
   7 -23   0 138.940 97.0326   4
   7 -23   0-64.5740 84.1668   5
   7 -24   0 219.337 93.3530   4
   7 -24   0 55.8126 85.3457   5
   7 -25   0 334.026 94.8815   4
   7 -25   0 229.211 95.8054   5
   7 -26   0 117.128 82.6307   5
   7 -27   0-26.0043 80.3959   5
   7 -28   0-80.0299 76.5081   5
   7 -29   0-108.240 73.8457   5
   7 -30   0 43.7243 66.6702   5
   8   0   0 7684.17 282.647   4
   8   1   0 7380.35 275.904   4
   8  -1   0 7699.36 284.755   4
   8   2   0 8718.31 299.037   4
   8  -2   0 11028.5 351.013   4
   8  -3   0 44217.3 658.416   4
   8  -4   0 5056.12 262.066   4
   8  -5   0 15154.5 399.819   4
   8  -6   0 11776.2 356.059   4
   8  -7   0 3641.07 222.176   4
   8  -8   0 8662.28 647.749   1
   8  -8   0 10388.9 341.634   4
   8  -9   0 10979.9 354.387   4
   8  -9   0 10169.4 711.461   1
   8 -10   0 418.642 253.148   1
   8 -10   0 332.017 117.072   4
   8 -11   0 1487.31 158.872   4
   8 -11   0 1193.91 309.360   1
   8 -12   0 139.531 108.361   4
   8 -12   0 290.169 251.236   1
   8 -13   0 7680.47 683.516   1
   8 -13   0 9063.62 330.289   4
   8 -14   0 1862.42 178.967   4
   8 -15   0 5939.23 281.053   4
   8 -16   0 10592.3 358.666   4
   8 -17   0 14194.9 407.714   4
   8 -18   0 172.493 103.919   4
   8 -19   0 191.978 102.811   4
   8 -20   0 685.959 124.266   4
   8 -21   0 8413.19 299.017   4
   8 -22   0 581.594 114.646   4
   8 -23   0 1468.91 141.757   4
   8 -24   0 3062.88 174.172   4
   8 -25   0 39.4661 76.5566   4
   9   0   0-42.2521 95.0591   4
   9   1   0 34.8985 91.3749   4
   9  -1   0-14.5596 95.1419   4
   9  -2   0 10.4577 96.5483   4
   9  -3   0-31.7864 94.7312   4
   9  -4   0-41.0180 99.3448   4
   9  -5   0 52.9745 100.754   4
   9  -6   0-61.4964 102.919   4
   9  -7   0-2.99222 104.521   4
   9  -8   0-25.2899 107.015   4
   9  -9   0-0.09086 101.810   4
   9 -10   0-45.8385 108.069   4
   9 -11   0 36.3470 100.442   4
   9 -12   0 62.3357 101.075   4
   9 -13   0 53.4958 103.788   4
   9 -14   0-74.3741 108.508   4
   9 -15   0 5.24094 103.602   4
   9 -16   0 164.564 106.810   4
   9 -17   0 179.020 103.485   4
   9 -18   0 253.337 103.772   4
   9 -19   0 179.606 93.5563   4
   9 -20   0 108.844 89.6531   4
   9 -21   0 209.951 93.0712   4
   9 -22   0 11.5756 73.6283   4
   9 -23   0-153.825 84.5050   4
   9 -24   0-114.097 73.8193   4
  10   0   0 553.069 109.583   4
  10  -1   0 290.335 103.629   4
  10  -2   0 1450.95 144.864   4
  10  -3   0 2381.48 171.985   4
  10  -4   0 2681.81 184.519   4
  10  -5   0 7077.43 277.985   4
  10  -6   0 10798.2 339.504   4
  10  -7   0 4655.16 249.587   4
  10  -8   0 26502.6 524.515   4
  10  -9   0 6515.46 280.793   4
  10 -10   0 9796.06 323.224   4
  10 -11   0 816.722 143.864   4
  10 -12   0 9425.15 314.282   4
  10 -13   0 1747.81 157.811   4
  10 -14   0 1134.91 136.129   4
  10 -15   0 478.075 109.822   4
  10 -16   0 1654.78 148.419   4
  10 -17   0 2280.42 160.055   4
  10 -18   0 652.924 103.726   4
  10 -19   0 915.236 107.278   4
  10 -20   0 499.771 87.1158   4
  11  -2   0-194.906 88.2094   4
  11  -3   0-224.058 93.3797   4
  11  -4   0-231.503 94.0931   4
  11  -5   0-179.251 92.1489   4
  11  -6   0-199.421 95.5794   4
  11  -7   0-207.785 90.0998   4
  11  -9   0-262.251 93.2088   4
  11 -10   0-281.463 94.2744   4
  11 -12   0-201.277 88.7811   4
  11 -13   0-276.980 90.6634   4
  11 -14   0-205.492 85.7527   4
  11 -15   0-208.985 80.8751   4
   0   0  -1 2.62359 47.1528   2
   0   1  -1 129409. 868.346   2
   0  -1  -1 130305. 824.285   2
   0   2  -1 573.479 85.8115   2
   0  -2   1 580.015 74.9495   1
   0  -2  -1 582.495 75.7596   2
   0  -3   1 128564. 805.647   1
   0  -4   1 1074.62 91.6656   1
   0  -5   1 48096.3 528.036   1
   0  -6   1 30232.6 452.511   1
   0  -7   1 101992. 854.699   1
   0  -8   1 18804.7 403.379   1
   0  -9   1 23821.0 485.308   1
   0 -10   1 25060.2 525.509   1
   0 -11   1 4018.06 243.353   1
   0 -12   1 15333.3 455.456   1
   0 -13   1 13711.8 449.046   1
   0 -14   1 30285.8 690.760   1
   0 -15   1 28026.0 695.918   1
   0 -16   1 15782.8 547.356   1
   0 -17   1 122369. 1557.72   1
   0 -18  -1 1347.85 229.339   1
   0 -18   1 1260.23 110.293   5
   0 -18  -1 1453.44 127.174   5
   0 -18   1 1101.05 193.516   1
   0 -19   1 43798.4 547.723   5
   0 -19  -1 44482.3 1101.80   1
   0 -19   1 45483.7 1026.76   1
   0 -19  -1 43572.2 560.081   5
   0 -20  -1 464.550 190.284   1
   0 -20   1 436.721 96.7239   5
   0 -20   1 573.338 163.692   1
   0 -20  -1 505.390 108.880   5
   0 -21   1 57258.3 1244.25   1
   0 -21  -1 57447.8 1326.21   1
   0 -21  -1 54237.1 668.052   5
   0 -21   1 54335.1 653.671   5
   0 -22   1 412.002 107.889   5
   0 -22  -1 668.603 213.051   1
   0 -22  -1 486.885 115.768   5
   0 -23  -1 7734.96 280.152   5
   0 -23   1 7768.20 278.082   5
   0 -24  -1 648.439 125.162   5
   0 -24  -1 574.977 218.058   1
   0 -24   1 687.656 123.863   5
   0 -25  -1 1142.52 150.200   5
   0 -25   1 1092.56 140.629   5
   0 -26  -1-19.0271 113.218   5
   0 -26   1 116.599 116.183   5
   0 -27  -1 23784.1 515.080   5
   0 -27   1 23419.1 499.732   5
   0 -28   1 1396.79 159.003   5
   0 -28  -1 1346.75 163.203   5
   0 -29   1 1388.88 159.166   5
   0 -29  -1 1421.02 165.343   5
   0 -30  -1 365.177 131.245   5
   0 -30   1 236.948 118.196   5
   0 -31  -1 8435.48 316.360   5
   0 -31   1 8085.14 307.446   5
   0 -32  -1 651.699 133.950   5
   0 -32   1 522.116 121.558   5
   0 -33  -1 2507.58 185.461   5
   0 -33   1 2369.89 179.323   5
   0 -34  -1 138.398 99.5843   5
   0 -34   1 1.40033 90.6889   5
   0 -35   1 695.117 114.013   5
   0 -35  -1 627.656 107.911   5
   0 -36   1 196.108 82.2417   5
   0 -36  -1 315.662 94.5804   5
   1   0   1 28860.7 474.591   1
   1   0  -1 29659.4 453.509   2
  -1   0  -1 28723.0 359.177   2
   1  -1   1 7881.06 248.533   1
   1   1  -1 8280.80 251.507   2
   1  -1  -1 8295.26 255.581   2
  -1  -2  -1 1752.16 81.0307   2
   1  -2   1 2015.77 144.423   1
   1   2  -1 2194.35 144.122   2
   1  -3   1 2377.72 159.562   1
   1   3  -1 2365.25 157.743   2
   1   4  -1 47264.4 655.685   2
   1  -4   1 47652.7 621.198   1
   1   5  -1 34759.5 594.157   2
   1  -5   1 33581.5 533.468   1
  -1  -6   1 32021.3 351.267   1
   1  -6   1 30627.3 545.188   1
   1  -7   1 72168.6 839.958   1
  -1  -7   1 75058.5 577.061   1
   1  -8   1 15655.9 420.523   1
  -1  -8   1 15858.3 295.785   1
  -1  -9   1 3428.56 164.017   1
   1  -9   1 3352.85 226.824   1
   1 -10   1 3454.84 241.363   1
  -1 -10   1 3731.18 186.396   1
   1 -11   1 8296.83 364.101   1
  -1 -11   1 8498.70 282.221   1
   1 -12   1 130.630 126.347   1
  -1 -12   1 239.373 94.8198   1
  -1 -13   1 8036.05 306.970   1
   1 -13   1 7600.18 383.687   1
  -1 -14   1 9634.33 351.388   1
   1 -14   1 8511.44 420.941   1
  -1 -15   1 1200.88 157.445   1
   1 -15   1 1243.02 196.031   1
   1 -16  -1 372.405 170.326   1
  -1 -16   1 449.940 122.379   1
   1 -16   1 413.056 154.939   1
   1 -17   1 328.266 83.4048   5
   1 -17   1 169.503 132.087   1
  -1 -17   1 179.148 107.365   1
   1 -17  -1 288.866 83.5243   5
   1 -17  -1 250.735 160.684   1
   1 -18  -1 1111.82 233.405   1
   1 -18   1 1018.50 207.301   1
   1 -18   1 1120.96 119.351   5
   1 -18  -1 1041.64 114.137   5
  -1 -19   1 6923.87 224.722   5
  -1 -19  -1 6821.13 230.930   5
   1 -19   1 6760.21 237.414   5
   1 -19   1 6848.42 449.526   1
   1 -19  -1 6659.67 482.522   1
   1 -19  -1 6883.81 241.468   5
   1 -20   1 2022.96 279.611   1
  -1 -20   1 2270.08 147.630   5
   1 -20   1 1810.93 147.274   5
   1 -20  -1 1823.26 149.461   5
   1 -20  -1 1780.55 296.374   1
  -1 -20  -1 1998.37 151.469   5
  -1 -20  -1 1665.55 254.407   1
  -1 -21  -1 4349.26 202.355   5
  -1 -21   1 4142.29 193.732   5
  -1 -21  -1 4287.28 389.652   1
   1 -21   1 4806.47 419.530   1
   1 -21   1 4388.42 209.175   5
   1 -21  -1 4536.18 212.984   5
   1 -21  -1 4515.65 426.436   1
   1 -22  -1 15270.7 381.689   5
   1 -22   1 16020.4 751.992   1
  -1 -22   1 14826.5 348.023   5
  -1 -22  -1 14466.4 356.804   5
   1 -22   1 15670.2 375.950   5
   1 -22  -1 15332.1 757.134   1
  -1 -22  -1 15303.3 711.981   1
  -1 -23  -1 1899.73 161.119   5
   1 -23  -1 1971.57 170.857   5
  -1 -23   1 1820.48 149.479   5
   1 -23   1 1983.76 169.201   5
   1 -23   1 2028.01 309.053   1
   1 -23  -1 1970.34 320.891   1
  -1 -24   1 1171.65 135.238   5
   1 -24  -1 1197.90 151.216   5
   1 -24  -1 1307.94 275.313   1
  -1 -24  -1 1082.55 134.684   5
   1 -24   1 1040.62 147.423   5
   1 -25  -1 113.468 178.679   1
  -1 -25  -1 487.347 125.346   5
   1 -25  -1 325.564 126.484   5
  -1 -25   1 373.071 109.870   5
   1  25  -1 317.505 244.783   2
   1 -25   1 417.371 130.709   5
   1 -26  -1 3496.00 428.905   1
   1  26  -1 2711.52 458.005   2
   1 -26   1 3677.83 232.755   5
  -1 -26   1 3415.76 201.823   5
  -1 -26  -1 3599.24 213.753   5
   1 -26  -1 3762.39 236.118   5
  -1 -27   1 1619.68 161.340   5
   1 -27  -1 1729.59 188.376   5
  -1 -27  -1 1547.70 161.264   5
   1 -27   1 1742.52 182.706   5
   1 -27  -1 1631.35 311.035   1
   1 -28   1 3250.74 228.620   5
  -1 -28   1 3063.30 201.592   5
  -1 -28  -1 3302.98 210.001   5
   1 -28  -1 3448.10 236.787   5
   1 -29   1 1032.63 161.558   5
  -1 -29   1 935.709 128.899   5
   1 -29  -1 1180.08 168.111   5
  -1 -29  -1 728.139 127.962   5
   1 -30  -1 4845.13 261.793   5
  -1 -30  -1 4276.79 222.381   5
  -1 -30   1 3950.53 209.884   5
   1 -30   1 4887.34 262.033   5
   1 -31   1 904.464 150.221   5
  -1 -31   1 817.446 120.268   5
   1 -31  -1 934.377 153.355   5
  -1 -31  -1 767.751 126.735   5
  -1 -32  -1 328.379 103.561   5
   1 -32   1 306.883 123.169   5
   1 -32  -1 303.479 126.064   5
   1 -33  -1 1753.65 170.828   5
   1 -33   1 1632.71 164.684   5
   1 -34   1 508.087 122.119   5
   1 -34  -1 607.788 127.614   5
   1 -35   1 260.310 104.057   5
   1 -35  -1 406.902 113.392   5
   1 -36  -1 1661.70 145.217   5
   1 -36   1 1707.57 147.127   5
   2   0   1 7907.30 301.769   1
   2   0  -1 8003.00 279.920   2
   2   1  -1 20570.7 286.343   1
   2   1  -1 21582.1 440.813   2
   2  -1   1 22187.7 481.832   1
   2   1   1 20850.7 474.465   1
   2  -2   1 60621.8 792.739   1
   2   2  -1 59700.4 406.993   1
   2   2  -1 61161.4 738.720   2
   2   3  -1 69801.0 800.684   2
   2  -3   1 73496.8 877.743   1
   2   4  -1 129276. 1127.92   2
   2  -4   1 128588. 1201.50   1
   2  -5   1 32971.8 626.456   1
   2   5  -1 34779.3 615.780   2
   2  -6   1 130221. 1250.73   1
   2   6  -1 134679. 1241.09   2
   2   7  -1 44049.4 758.199   2
   2  -7   1 43318.3 763.106   1
   2   8  -1 102894. 1190.25   2
   2  -8   1 100179. 1178.45   1
   2   9  -1 17165.8 520.770   2
   2  -9   1 16907.1 514.201   1
   2  10  -1 41692.5 821.659   2
   2 -10   1 41561.4 811.824   1
   2 -11  -1 12406.9 489.815   1
  -2 -11   1 11621.6 233.984   1
   2 -11   1 12153.6 470.746   1
   2  11  -1 12605.3 483.004   2
   2 -12   1 30560.8 753.510   1
   2 -12  -1 30348.8 778.462   1
  -2 -12   1 30112.4 421.999   1
   2  12  -1 31466.1 784.259   2
   2  13  -1 7130.07 404.299   2
   2 -13   1 7207.32 399.746   1
   2 -13  -1 7432.94 423.230   1
   2  14  -1 31086.8 851.687   2
   2 -14  -1 34165.2 891.665   1
   2 -14   1 32775.2 844.985   1
   2  15  -1 811.064 187.975   2
   2 -15  -1 902.097 216.619   1
   2 -15   1 903.594 197.411   1
   2 -16   1 1263.86 220.810   1
   2 -16   1 962.682 101.827   5
   2 -16  -1 708.101 93.4451   5
   2  16  -1 562.561 171.137   2
   2 -16  -1 916.607 213.793   1
   2 -17  -1 4300.15 181.269   5
   2 -17   1 4493.55 184.185   5
   2 -17  -1 4722.80 401.317   1
   2 -17   1 4734.59 380.993   1
   2 -18   1 6548.27 226.829   5
   2 -18  -1 6974.86 493.180   1
   2 -18   1 6888.32 464.614   1
   2 -18  -1 6515.17 225.798   5
   2  18  -1 5503.52 444.519   2
   2 -19  -1 793.754 111.429   5
   2  19  -1 645.141 197.258   2
   2 -19   1 885.519 222.139   1
   2 -19   1 755.032 110.455   5
   2 -19  -1 795.744 228.490   1
   2 -20   1 6326.14 481.151   1
   2 -20  -1 6627.99 508.084   1
   2 -20  -1 6394.05 242.454   5
   2 -20   1 6470.46 240.591   5
   2 -21   1 2367.46 171.348   5
   2 -21  -1 2769.41 354.261   1
   2  21  -1 1878.16 315.845   2
   2 -21   1 2586.29 344.365   1
   2 -21  -1 2462.10 175.641   5
   2 -22   1 2522.77 179.683   5
   2  22  -1 2155.14 331.172   2
   2 -22  -1 2468.23 180.666   5
   2 -22  -1 2278.38 338.172   1
   2 -22   1 2620.66 359.610   1
   2 -23   1 1240.17 287.178   1
   2  23  -1 814.058 232.011   2
   2 -23   1 1352.60 151.172   5
   2 -23  -1 1190.33 153.219   5
   2 -23  -1 1080.27 262.992   1
   2 -24   1 36174.8 604.390   5
   2 -24   1 34809.0 1227.14   1
   2 -24  -1 36001.3 1241.34   1
   2 -24  -1 35837.3 605.668   5
   2 -25   1 833.065 148.265   5
   2 -25  -1 879.045 151.816   5
   2 -25   1 573.574 227.802   1
   2 -25  -1 976.166 265.015   1
   2 -26   1 7532.17 307.214   5
   2 -26  -1 7124.66 596.505   1
   2 -26   1 7420.10 616.051   1
   2 -26  -1 7077.42 298.298   5
   2 -27   1 5944.46 283.019   5
   2 -27  -1 5492.38 278.957   5
   2 -27  -1 5622.50 554.480   1
   2 -28  -1 3954.01 247.194   5
   2 -28   1 3867.35 241.527   5
   2 -29  -1 1238.17 167.173   5
   2 -29   1 1019.08 160.914   5
   2 -30   1 6196.01 293.372   5
   2 -30  -1 6197.52 292.799   5
   2 -31   1 844.002 154.287   5
   2 -31  -1 910.085 154.712   5
   2 -32   1 188.507 118.373   5
   2 -32  -1 305.948 123.183   5
   2 -33   1 656.480 138.189   5
   2 -33  -1 422.063 129.755   5
   2 -34   1 8610.69 308.500   5
   2 -34  -1 8500.43 306.270   5
   2 -35  -1 384.558 114.824   5
   2 -35   1 251.956 103.493   5
   2 -36  -1 1091.97 126.289   5
   2 -36   1 1152.31 129.972   5
   3   0  -1 101332. 866.413   1
   3   0   1 103472. 1176.19   1
   3  -1  -1 39258.5 573.939   1
   3  -1   1 40112.6 754.539   1
   3   1  -1 38815.8 510.575   1
   3   2   1 94529.0 1160.96   1
   3  -2  -1 99845.9 977.041   1
   3   2  -1 97307.5 1034.96   2
   3  -2   1 102082. 1194.90   1
   3   2  -1 99085.0 741.853   1
   3  -3  -1 78476.7 933.539   1
   3   3  -1 78937.6 624.760   1
   3  -3   1 82406.4 1084.79   1
   3   3  -1 83848.7 966.106   2
   3  -4   1 87553.0 1125.68   1
   3   4  -1 88221.7 989.004   2
   3  -4  -1 86119.1 1021.72   1
   3  -5   1 3171.05 272.555   1
   3  -5  -1 3758.11 268.152   1
   3   5  -1 3008.91 219.737   2
   3  -6   1 10524.4 432.296   1
   3   6  -1 10061.8 360.479   2
   3  -6  -1 9967.08 395.836   1
   3  -7   1 22743.9 625.168   1
   3   7  -1 21501.1 543.194   2
   3  -7  -1 23422.3 615.785   1
   3  -8   1 25432.8 674.137   1
   3  -8  -1 24769.1 659.566   1
   3   8  -1 25443.4 605.082   2
   3  -9  -1 26868.1 709.211   1
   3  -9   1 26265.4 709.931   1
   3   9  -1 26543.7 643.574   2
   3  10  -1 197.470 112.770   2
   3 -10  -1 222.329 157.859   1
   3 -10   1 306.830 167.518   1
   3  11  -1 26401.9 687.411   2
   3 -11   1 26680.6 764.587   1
   3 -11  -1 27720.1 781.373   1
   3  12  -1 1570.60 203.197   2
   3 -12   1 1950.53 253.538   1
   3 -12  -1 2112.82 266.094   1
   3 -13   1 725.038 196.545   1
   3  13  -1 840.221 171.387   2
   3 -13  -1 930.666 217.309   1
   3 -14  -1 493.168 201.110   1
   3 -14   1 412.897 178.209   1
   3  14  -1 318.216 134.930   2
   3 -15  -1 4217.76 186.684   5
   3 -15  -1 5515.69 435.978   1
   3  15  -1 4618.53 347.293   2
   3 -15   1 5028.93 409.384   1
   3 -15   1 4139.10 183.996   5
   3 -16  -1 2853.82 159.918   5
   3 -16   1 3047.18 335.026   1
   3  16  -1 2599.88 279.816   2
   3 -16   1 2847.02 157.961   5
   3 -16  -1 3590.49 370.394   1
   3 -17   1 235.842 179.173   1
   3 -17  -1 331.684 89.4089   5
   3 -17   1 233.806 89.0374   5
   3  17  -1 212.501 134.292   2
   3 -17  -1 295.492 202.717   1
   3 -18   1 1290.09 126.738   5
   3 -18  -1 1327.41 266.484   1
   3  18  -1 1066.53 216.275   2
   3 -18  -1 1270.75 126.632   5
   3 -18   1 1282.51 266.358   1
   3 -19   1 279.549 198.842   1
   3 -19   1 258.044 95.4176   5
   3  19  -1 242.216 155.724   2
   3 -19  -1 233.561 98.5189   5
   3 -19  -1 406.003 207.213   1
   3 -20   1 66.8528 185.697   1
   3 -20  -1 63.7891 93.4997   5
   3 -20   1 100.490 93.2807   5
   3 -20  -1 215.750 187.410   1
   3 -21  -1 429.308 113.797   5
   3 -21   1 420.330 110.251   5
   3 -21  -1 592.552 225.019   1
   3 -21   1 472.193 230.880   1
   3 -22   1 263.342 109.909   5
   3 -22  -1 194.894 196.306   1
   3 -22  -1 214.149 107.689   5
   3 -22   1 219.405 193.375   1
   3 -23   1 4608.18 239.347   5
   3 -23  -1 4818.60 246.404   5
   3 -23  -1 4533.08 477.747   1
   3 -23   1 4813.94 494.217   1
   3 -24   1 1450.79 170.554   5
   3 -24  -1 1421.74 313.483   1
   3 -24   1 1342.56 301.265   1
   3 -24  -1 1426.09 170.014   5
   3 -25  -1 7648.71 638.097   1
   3 -25   1 7424.51 310.947   5
   3 -25   1 7580.70 648.502   1
   3 -25  -1 7722.33 313.110   5
   3 -26   1 2077.54 195.564   5
   3 -26  -1 2046.07 196.020   5
   3 -26  -1 1831.06 348.847   1
   3 -26   1 1919.76 371.550   1
   3 -27   1 1019.71 164.244   5
   3 -27  -1 907.362 161.184   5
   3 -28   1 212.246 133.324   5
   3 -28  -1 214.364 133.160   5
   3 -29  -1 14771.3 429.013   5
   3 -29   1 14681.1 423.557   5
   3 -30  -1 1532.95 176.927   5
   3 -30   1 1634.43 184.853   5
   3 -31  -1 786.338 148.896   5
   3 -31   1 639.462 142.920   5
   3 -32   1 83.1781 115.677   5
   3 -32  -1 55.6300 114.368   5
   3 -33  -1 304.658 119.399   5
   3 -33   1 230.151 113.757   5
   3 -34  -1 1168.81 143.766   5
   3 -34   1 1041.66 135.070   5
   3 -35   1 1293.63 136.088   5
   3 -35  -1 1265.26 136.990   5
   4   0   1 106757. 1392.34   1
   4   0  -1 108074. 1102.31   1
   4   1  -1 7116.84 294.594   1
   4  -1   1 6731.65 372.557   1
   4  -1  -1 6226.85 285.809   1
   4   1   1 7486.89 393.958   1
   4   2   1 10372.6 448.280   1
   4  -2   1 10111.0 448.134   1
   4  -2  -1 9819.34 364.864   1
   4   2  -1 11009.3 336.195   1
   4  -3   1 9461.35 441.520   1
   4  -3  -1 8760.19 362.733   1
   4   3  -1 9381.85 286.033   1
   4  -4  -1 7147.21 339.597   1
   4  -4   1 7338.38 392.966   1
   4  -5  -1 12008.6 453.034   1
   4   5  -1 12331.6 407.093   2
   4  -5   1 12926.5 512.955   1
   4  -6   1 32168.6 812.624   1
   4   6  -1 33267.6 680.696   2
   4  -6  -1 32165.6 749.990   1
   4  -7   1 13655.8 553.744   1
   4  -7  -1 13223.6 503.298   1
   4   7  -1 13382.2 433.630   2
   4  -8  -1 5985.89 365.746   1
   4  -8   1 6434.35 410.554   1
   4   8  -1 6199.98 307.539   2
   4   9  -1 17741.3 520.321   2
   4  -9  -1 17315.7 617.253   1
   4  10  -1 59028.7 978.719   2
   4 -10   1 59049.1 1211.68   1
   4 -10  -1 56817.3 1142.09   1
   4 -11   1 86602.8 1497.30   1
   4 -11  -1 85303.0 1443.20   1
   4  11  -1 84475.3 1197.44   2
   4 -12   1 10700.0 562.829   1
   4 -12  -1 10709.7 552.787   1
   4  12  -1 9911.43 432.460   2
   4 -13  -1 23306.9 816.576   1
   4 -13   1 23999.2 839.896   1
   4 -13  -1 23998.8 398.502   4
   4 -13   1 24422.0 409.031   4
   4 -14  -1 17267.3 351.826   4
   4 -14  -1 17682.9 341.137   5
   4 -14   1 17840.4 334.755   5
   4 -14   1 18490.3 364.342   4
   4 -14   1 18563.5 763.033   1
   4 -15   1 7179.60 229.390   5
   4 -15  -1 7315.63 229.969   5
   4 -15   1 7360.98 244.897   4
   4 -15  -1 7747.45 515.005   1
   4 -15  -1 7332.56 238.102   4
   4 -15   1 7726.45 522.740   1
   4 -16   1 2222.18 314.526   1
   4 -16  -1 2057.33 144.371   5
   4 -16  -1 2112.92 143.379   4
   4 -16   1 2082.97 142.728   5
   4 -16   1 2111.05 148.311   4
   4 -16  -1 2322.49 318.357   1
   4 -17  -1 1468.41 274.035   1
   4 -17  -1 1152.50 118.244   5
   4 -17  -1 982.550 115.551   4
   4 -17   1 1084.14 117.735   4
   4 -17   1 1093.05 117.984   5
   4 -17   1 1135.06 258.457   1
   4 -18   1 901.040 256.713   1
   4 -18  -1 932.050 124.156   5
   4 -18   1 803.568 112.021   4
   4 -18  -1 868.463 110.963   4
   4 -18   1 976.835 124.592   5
   4 -18  -1 1223.37 270.280   1
   4 -19   1 2228.28 344.990   1
   4 -19  -1 1983.04 159.053   5
   4 -19   1 2129.65 160.478   5
   4 -19  -1 1634.78 143.898   4
   4 -19   1 1788.11 149.830   4
   4 -19  -1 2098.44 325.900   1
   4 -20   1 421.019 110.701   5
   4 -20   1 382.718 100.106   4
   4 -20   1 450.461 232.311   1
   4 -20  -1 435.166 113.979   5
   4 -20  -1 435.130 220.333   1
   4 -21   1 3129.35 419.611   1
   4 -21  -1 2999.15 195.249   5
   4 -21  -1 3146.27 422.726   1
   4 -21   1 3019.89 188.952   5
   4 -22   1 3379.14 447.693   1
   4 -22   1 3040.73 194.509   5
   4 -22  -1 3182.75 425.259   1
   4 -22  -1 3175.73 202.442   5
   4 -23   1 2456.69 409.161   1
   4 -23  -1 2056.56 365.472   1
   4 -23   1 2226.11 190.020   5
   4 -23  -1 2091.64 179.740   5
   4 -24   1 8621.41 702.743   1
   4 -24  -1 8492.54 674.652   1
   4 -24   1 8094.71 307.433   5
   4 -24  -1 7799.76 303.953   5
   4 -25   1 1020.40 151.798   5
   4 -25   1 790.907 283.436   1
   4 -25  -1 1145.05 156.161   5
   4 -26   1 1672.37 172.473   5
   4 -26  -1 1756.45 177.153   5
   4 -27   1 5977.65 278.687   5
   4 -27  -1 5675.04 273.860   5
   4 -28  -1 4451.69 246.319   5
   4 -28   1 4834.13 257.386   5
   4 -29  -1 14374.6 407.236   5
   4 -29   1 15228.1 418.763   5
   4 -30   1 5395.60 263.761   5
   4 -30  -1 5380.85 261.165   5
   4 -31   1 10861.2 345.580   5
   4 -31  -1 10561.2 342.123   5
   4 -32  -1 1163.64 145.959   5
   4 -32   1 1044.95 141.552   5
   4 -33  -1 1606.01 152.147   5
   4 -33   1 1600.27 152.044   5
   4 -34   1 3217.72 185.607   5
   4 -34  -1 2999.81 180.160   5
   5   0  -1 91926.6 1222.08   1
   5   0   1 92985.9 1473.58   1
   5   1  -1 7759.62 366.901   1
   5  -1   1 6960.64 430.811   1
   5  -1  -1 6846.42 365.319   1
   5   2   1 4952.26 365.781   1
   5   2  -1 5173.06 290.372   1
   5  -2   1 4712.93 363.849   1
   5  -2  -1 4434.29 300.486   1
   5  -3  -1 6843.06 366.818   1
   5  -3   1 6891.71 431.538   1
   5  -4  -1 7217.10 394.273   1
   5  -4   1 7140.37 451.267   1
   5  -5   1 16298.5 661.908   1
   5  -5  -1 14869.5 560.578   1
   5  -6  -1 13923.3 559.607   1
   5  -6   1 14235.0 625.371   1
   5  -7  -1 20654.7 701.604   1
   5  -7   1 21095.0 766.004   1
   5  -8  -1 24447.7 791.336   1
   5  -8   1 24727.6 837.094   1
   5  -8   1 24739.5 420.567   4
   5  -8  -1 25240.8 425.087   4
   5  -9  -1 15611.3 344.448   4
   5  -9   1 14990.3 336.711   4
   5  -9  -1 15530.5 653.170   1
   5  -9   1 15467.5 680.515   1
   5 -10  -1 15595.4 353.097   4
   5 -10   1 16881.4 730.197   1
   5 -10  -1 16144.7 688.795   1
   5 -10   1 15596.8 354.358   4
   5 -11  -1 2581.20 165.330   4
   5 -11   1 2637.70 164.885   4
   5 -11   1 2901.72 340.537   1
   5 -11  -1 2862.58 324.182   1
   5 -12  -1 902.890 112.447   4
   5 -12   1 877.949 100.174   5
   5 -12   1 1015.93 237.412   1
   5 -12   1 1039.36 115.386   4
   5 -12  -1 1072.28 236.802   1
   5 -12  -1 970.918 106.206   5
   5 -13   1 979.140 108.772   5
   5 -13   1 1363.07 275.965   1
   5 -13   1 1212.19 129.528   4
   5 -13  -1 1156.04 125.274   4
   5 -13  -1 1370.61 263.336   1
   5 -13  -1 1185.18 117.074   5
   5 -14   1 1822.11 154.572   4
   5 -14  -1 1780.35 141.288   4
   5 -14   1 2127.54 336.024   1
   5 -14  -1 1793.05 287.540   1
   5 -14  -1 1648.94 136.451   5
   5 -14   1 1616.41 135.324   5
   5 -15  -1-56.1368 91.0569   4
   5 -15   1 54.5821 204.688   1
   5 -15  -1 41.0319 80.9357   5
   5 -15  -1-27.5899 190.813   1
   5 -15   1 121.870 77.7292   5
   5 -15   1 5.77673 77.7875   4
   5 -16  -1 1170.04 132.166   4
   5 -16  -1 1297.47 129.507   5
   5 -16   1 1257.40 122.904   5
   5 -16  -1 1393.22 279.639   1
   5 -16   1 1036.40 133.890   4
   5 -16   1 1334.78 286.782   1
   5 -17  -1 3546.19 422.096   1
   5 -17  -1 2979.50 185.579   4
   5 -17  -1 3311.52 183.205   5
   5 -17   1 3163.90 195.328   4
   5 -17   1 3147.71 177.660   5
   5 -17   1 3614.70 444.702   1
   5 -18   1 1423.25 148.451   5
   5 -18   1 1531.02 149.006   4
   5 -18  -1 1098.90 141.873   4
   5 -18   1 1589.08 346.908   1
   5 -18  -1 1343.16 146.574   5
   5 -18  -1 1243.60 297.035   1
   5 -19  -1 8034.75 284.287   4
   5 -19   1 8263.37 287.934   4
   5 -19  -1 8113.22 281.413   5
   5 -19  -1 8617.79 652.659   1
   5 -19   1 8603.58 674.835   1
   5 -19   1 8123.65 277.944   5
   5 -20   1 4206.72 495.925   1
   5 -20  -1 3891.22 210.626   4
   5 -20   1 3740.52 209.638   4
   5 -20  -1 4427.30 497.098   1
   5 -20  -1 4508.15 223.826   5
   5 -20   1 4146.40 214.413   5
   5 -21  -1 1157.87 138.241   4
   5 -21  -1 1571.30 332.432   1
   5 -21   1 1308.03 144.063   4
   5 -21  -1 1553.40 157.043   5
   5 -21   1 1465.64 153.312   5
   5 -21   1 1571.12 346.739   1
   5 -22  -1 5780.34 247.168   4
   5 -22   1 6438.62 268.113   5
   5 -22   1 5231.71 244.051   4
   5 -22   1 6288.27 605.798   1
   5 -22  -1 6933.67 622.905   1
   5 -22  -1 6271.96 268.764   5
   5 -23  -1 1225.05 303.232   1
   5 -23  -1 1620.70 168.484   5
   5 -23   1 1593.53 167.074   5
   5 -23   1 1875.99 369.293   1
   5 -24  -1 4656.47 242.438   5
   5 -24   1 4378.09 236.066   5
   5 -25  -1 317.759 119.902   5
   5 -25   1 351.474 122.048   5
   5 -26   1 10265.8 342.392   5
   5 -26  -1 10459.3 346.573   5
   5 -27  -1 1086.40 148.915   5
   5 -27   1 1028.27 149.582   5
   5 -28   1 2800.17 197.151   5
   5 -28  -1 2580.46 188.142   5
   5 -29   1 330.800 114.572   5
   5 -29  -1 336.210 115.565   5
   5 -30  -1 1167.77 146.959   5
   5 -30   1 1282.66 144.878   5
   5 -31   1 242.968 103.109   5
   5 -31  -1 247.080 107.275   5
   5 -32   1 5427.41 228.567   5
   5 -32  -1 5731.43 234.762   5
   5 -33   1 319.474 92.4886   5
   5 -33  -1 272.722 95.7288   5
   6   0   1 471.364 206.830   1
   6   0  -1 641.930 111.269   4
   6  -1  -1 16848.9 348.817   4
   6  -1  -1 16567.0 622.217   1
   6  -1   1 17138.9 348.657   4
   6  -1   1 16598.6 727.011   1
   6  -2  -1 23502.3 421.091   4
   6  -2   1 22552.7 855.039   1
   6  -3  -1 70552.5 1312.04   1
   6  -3   1 69349.5 1466.29   1
   6  -3  -1 69757.0 715.074   4
   6  -3   1 68024.3 697.188   4
   6  -4  -1 21459.5 403.250   4
   6  -4  -1 19839.7 730.034   1
   6  -4   1 19555.7 799.102   1
   6  -4   1 21441.1 402.110   4
   6  -5   1 1486.60 134.873   4
   6  -5  -1 1526.30 241.673   1
   6  -5  -1 1630.25 139.682   4
   6  -5   1 1489.48 278.233   1
   6  -6  -1 1563.21 250.295   1
   6  -6  -1 1565.65 135.609   4
   6  -6   1 1555.63 136.883   4
   6  -6   1 1619.21 283.417   1
   6  -7  -1 10664.3 300.440   4
   6  -7   1 11175.2 637.091   1
   6  -7  -1 10599.0 563.652   1
   6  -7   1 10391.0 298.692   4
   6  -8   1 11071.1 313.379   4
   6  -8   1 11608.0 657.019   1
   6  -8  -1 11604.2 317.819   4
   6  -8  -1 11193.2 597.337   1
   6  -9  -1 897.454 233.020   1
   6  -9   1 793.957 239.023   1
   6  -9  -1 876.310 124.985   4
   6  -9   1 768.863 116.714   4
   6 -10   1 1503.85 141.475   4
   6 -10  -1 1527.13 141.418   4
   6 -10  -1 1751.63 283.306   1
   6 -10   1 1847.41 318.910   1
   6 -11  -1 469.622 204.007   1
   6 -11   1 471.176 199.380   1
   6 -11   1 449.342 107.010   4
   6 -11  -1 393.237 99.6841   4
   6 -12  -1 1021.59 245.285   1
   6 -12   1 881.143 130.054   4
   6 -12  -1 948.112 130.398   4
   6 -12   1 986.412 264.376   1
   6 -13   1 5525.02 244.476   4
   6 -13   1 5528.36 513.319   1
   6 -13  -1 5441.32 493.199   1
   6 -13  -1 5363.32 244.052   4
   6 -14  -1 585.230 252.707   1
   6 -14   1 536.375 241.696   1
   6 -14  -1 433.629 109.639   4
   6 -14   1 546.285 113.713   4
   6 -15   1 714.807 103.413   5
   6 -15   1 828.796 268.419   1
   6 -15   1 956.088 132.698   4
   6 -15  -1 787.521 110.679   5
   6 -15  -1 622.103 255.949   1
   6 -15  -1 795.736 127.984   4
   6 -16  -1 3597.96 441.601   1
   6 -16   1 3879.33 191.118   5
   6 -16   1 3590.93 450.269   1
   6 -16  -1 4258.50 223.556   4
   6 -16  -1 3866.88 189.257   5
   6 -16   1 4422.39 229.501   4
   6 -17  -1 10260.8 717.318   1
   6 -17   1 10576.8 334.079   4
   6 -17  -1 9273.25 284.263   5
   6 -17   1 9655.01 286.981   5
   6 -17  -1 10422.9 332.748   4
   6 -17   1 10009.3 721.402   1
   6 -18   1 1727.22 171.016   4
   6 -18   1 1739.82 148.517   5
   6 -18  -1 1953.38 361.803   1
   6 -18  -1 1789.73 166.131   4
   6 -18   1 1807.91 368.688   1
   6 -18  -1 1704.55 142.168   5
   6 -19   1 4872.11 243.225   4
   6 -19   1 4493.45 213.546   5
   6 -19  -1 4631.34 215.849   5
   6 -19  -1 4896.03 237.516   4
   6 -19   1 4538.51 534.421   1
   6 -19  -1 4842.67 529.264   1
   6 -20  -1 1983.80 172.452   4
   6 -20  -1 2108.74 165.956   5
   6 -20   1 2277.39 421.416   1
   6 -20  -1 2009.91 375.926   1
   6 -20   1 2213.17 167.088   5
   6 -20   1 1816.76 165.384   4
   6 -21   1 25790.7 484.770   5
   6 -21  -1 25400.9 502.200   4
   6 -21   1 25673.8 521.941   4
   6 -21  -1 25287.2 489.959   5
   6 -22   1 9433.28 323.193   4
   6 -22  -1 10174.4 326.752   4
   6 -22  -1 10015.4 319.757   5
   6 -22   1 10565.9 325.183   5
   6 -23   1 8121.11 289.954   5
   6 -23   1 7140.68 278.257   4
   6 -23  -1 8043.49 288.937   5
   6 -23  -1 7314.41 275.283   4
   6 -24  -1 4005.59 215.320   5
   6 -24   1 4241.31 221.043   5
   6 -25   1 1885.00 161.384   5
   6 -25  -1 1756.86 159.361   5
   6 -26   1 4508.64 226.028   5
   6 -26  -1 4529.44 224.903   5
   6 -27   1 2444.46 172.159   5
   6 -27  -1 2482.26 173.187   5
   6 -28   1 269.552 99.2354   5
   6 -28  -1 254.494 101.794   5
   6 -29  -1 93.2272 91.0929   5
   6 -29   1 83.4758 88.0252   5
   6 -30   1 82.0058 83.9000   5
   6 -30  -1 197.526 101.338   5
   6 -31   1 265.890 90.6074   5
   6 -31  -1 330.847 91.5740   5
   6 -32   1 171.782 78.9730   5
   6 -32  -1 173.601 76.3973   5
   7   0  -1 2570.96 177.691   4
   7   0   1 2647.50 175.758   4
   7   1  -1 5028.65 224.280   4
   7  -1   1 4944.85 225.063   4
   7  -1   1 4734.19 479.797   1
   7  -1  -1 5058.88 233.131   4
   7   1   1 4646.60 210.949   4
   7   2  -1 4361.91 207.606   4
   7  -2  -1 4589.99 232.172   4
   7   2   1 4514.89 211.047   4
   7  -2   1 4035.79 438.063   1
   7  -2   1 4369.70 222.920   4
   7  -3  -1 3570.27 204.595   4
   7  -3   1 3803.95 206.777   4
   7   3  -1 3688.57 192.979   4
   7  -3   1 3409.85 405.652   1
   7  -4   1 2392.17 173.596   4
   7  -4  -1 2372.58 173.116   4
   7  -4   1 2167.45 341.727   1
   7  -5   1 727.630 254.175   1
   7  -5  -1 589.840 116.175   4
   7  -5  -1 583.521 206.725   1
   7  -5   1 634.504 117.098   4
   7  -6  -1 817.921 127.164   4
   7  -6   1 698.459 127.180   4
   7  -6  -1 751.040 214.152   1
   7  -6   1 587.023 236.696   1
   7  -7   1 1191.84 290.004   1
   7  -7  -1 1109.68 138.671   4
   7  -7   1 1193.74 142.783   4
   7  -7  -1 1038.90 246.352   1
   7  -8   1 841.785 131.680   4
   7  -8   1 725.422 238.947   1
   7  -8  -1 781.762 229.371   1
   7  -8  -1 695.470 124.525   4
   7  -9   1 858.372 132.176   4
   7  -9   1 591.273 223.686   1
   7  -9  -1 868.143 134.421   4
   7  -9  -1 778.949 237.754   1
   7 -10   1 1371.89 305.844   1
   7 -10   1 1737.29 164.099   4
   7 -10  -1 1692.05 161.234   4
   7 -10  -1 1566.96 302.064   1
   7 -11   1 695.710 283.423   1
   7 -11  -1 441.253 229.036   1
   7 -11   1 664.033 126.982   4
   7 -11  -1 441.178 115.848   4
   7 -12   1 1751.73 170.610   4
   7 -12   1 1574.32 325.628   1
   7 -12  -1 1656.09 165.804   4
   7 -12  -1 1716.84 328.214   1
   7 -13   1 250.835 214.402   1
   7 -13  -1 422.942 233.703   1
   7 -13   1 351.055 120.900   4
   7 -13  -1 366.697 117.248   4
   7 -14   1-111.048 226.625   1
   7 -14  -1 27.2295 98.8989   4
   7 -14  -1 26.4038 190.395   1
   7 -14   1 171.415 114.019   4
   7 -15   1 192.840 219.621   1
   7 -15   1 442.130 123.777   4
   7 -15  -1 411.932 239.335   1
   7 -15  -1 396.891 123.216   4
   7 -16  -1 407.667 242.020   1
   7 -16  -1 346.763 121.393   4
   7 -16   1 243.067 219.733   1
   7 -16   1 291.519 118.474   4
   7 -17   1 1158.09 333.670   1
   7 -17  -1 1481.97 347.811   1
   7 -17   1 1356.54 155.347   4
   7 -17  -1 1693.41 167.603   4
   7 -18   1 45.8845 103.925   4
   7 -18  -1 288.784 116.496   4
   7 -19  -1 876.290 141.307   4
   7 -19   1 557.015 121.104   4
   7 -20  -1 4773.84 240.624   4
   7 -20   1 4142.11 202.318   5
   7 -20   1 4317.40 230.615   4
   7 -21  -1 1680.91 160.683   4
   7 -21   1 1722.20 159.219   4
   7 -21   1 2016.01 153.605   5
   7 -22  -1 1705.47 153.900   4
   7 -22  -1 1653.84 146.625   5
   7 -22   1 1713.51 158.052   4
   7 -22   1 1600.21 140.875   5
   7 -23   1 629.555 111.982   4
   7 -23  -1 754.095 115.290   5
   7 -23  -1 476.935 101.601   4
   7 -24  -1 405.746 101.567   5
   7 -24  -1 347.188 102.730   4
   7 -24   1 658.747 108.070   5
   7 -24   1 553.391 110.123   4
   7 -25   1 204.973 86.8960   5
   7 -25  -1 108.929 78.2541   4
   7 -25   1 242.226 89.2607   4
   7 -25  -1 369.606 100.904   5
   7 -26  -1 52.2333 79.7894   5
   7 -26   1 100.928 83.7803   5
   7 -27   1 524.318 98.1885   5
   7 -27  -1 609.584 105.285   5
   7 -28  -1 356.198 86.9205   5
   7 -28   1 263.539 82.7200   5
   7 -29   1 65.1955 71.4084   5
   7 -29  -1 125.270 78.8350   5
   7 -30   1-53.9297 67.9671   5
   7 -30  -1 59.5970 68.0453   5
   8   0  -1 16918.6 407.988   4
   8   0   1 17438.2 410.219   4
   8   1   1 12952.2 356.599   4
   8  -1  -1 13012.6 366.028   4
   8   1  -1 12330.6 351.864   4
   8  -2   1 16090.5 401.890   4
   8   2   1 14723.0 371.813   4
   8  -2  -1 16500.2 410.975   4
   8   2  -1 14309.4 373.348   4
   8  -3  -1 5329.63 257.972   4
   8  -3   1 6478.97 274.687   4
   8  -4   1 10453.9 330.865   4
   8  -4  -1 10859.3 340.752   4
   8  -5   1 1558.90 168.586   4
   8  -5  -1 1212.72 157.793   4
   8  -6   1 4717.52 236.942   4
   8  -6  -1 4788.12 237.051   4
   8  -6   1 4179.58 480.498   1
   8  -7   1 411.690 124.305   4
   8  -7  -1 141.013 104.963   4
   8  -7   1 81.7317 209.666   1
   8  -8   1 709.915 272.023   1
   8  -8   1 870.994 135.095   4
   8  -8  -1 824.872 136.691   4
   8  -9   1 968.486 148.865   4
   8  -9  -1 875.420 139.154   4
   8  -9   1 778.965 270.905   1
   8 -10   1 5637.98 264.864   4
   8 -10  -1 5766.11 268.886   4
   8 -11   1 2248.63 187.607   4
   8 -11  -1 2320.54 191.092   4
   8 -11   1 1861.93 366.746   1
   8 -12   1 1621.36 365.518   1
   8 -12  -1 1639.35 322.058   1
   8 -12   1 1463.03 162.041   4
   8 -12  -1 1651.58 173.534   4
   8 -13   1 1185.88 153.196   4
   8 -13  -1 991.102 304.855   1
   8 -13   1 818.198 274.046   1
   8 -13  -1 1379.47 171.829   4
   8 -14   1 11108.7 366.374   4
   8 -14  -1 11238.7 366.646   4
   8 -15  -1 2046.95 187.483   4
   8 -15   1 1740.48 173.771   4
   8 -16  -1 8363.47 317.903   4
   8 -16   1 8224.20 318.562   4
   8 -17  -1 341.492 122.216   4
   8 -17   1 8.03443 107.184   4
   8 -18   1 6093.07 271.924   4
   8 -18  -1 6333.59 273.687   4
   8 -19   1 4205.13 231.396   4
   8 -19  -1 4472.41 234.018   4
   8 -20  -1 6078.49 258.222   4
   8 -20   1 5605.99 259.758   4
   8 -21   1 586.121 116.743   4
   8 -21  -1 523.920 115.954   4
   8 -22   1 1803.51 158.061   4
   8 -22  -1 1757.68 146.527   4
   8 -23  -1-87.0666 92.4441   4
   8 -23   1 62.2041 82.1161   4
   8 -24  -1 738.498 103.681   4
   8 -24   1 1029.82 117.254   4
   8 -25   1 130.759 82.2248   4
   8 -25  -1-13.4087 71.7736   4
   8 -26   1 631.667 92.9309   4
   9   0   1 6860.23 273.503   4
   9   0  -1 7329.32 284.375   4
   9   1  -1 2311.50 175.278   4
   9  -1   1 2519.51 179.980   4
   9  -1  -1 2639.65 191.212   4
   9   1   1 2607.95 184.213   4
   9  -2  -1 2023.54 175.587   4
   9  -2   1 1785.40 163.781   4
   9  -3   1 5546.74 255.204   4
   9  -3  -1 6164.47 268.873   4
   9  -4  -1 4641.90 241.711   4
   9  -4   1 4662.30 238.046   4
   9  -5  -1 2626.73 194.036   4
   9  -5   1 2370.86 185.842   4
   9  -6   1 1916.75 169.033   4
   9  -6  -1 2395.23 190.079   4
   9  -7  -1 2183.97 184.662   4
   9  -7   1 1760.38 169.539   4
   9  -8  -1 3673.63 222.291   4
   9  -8   1 3493.57 215.883   4
   9  -9  -1 1135.48 160.123   4
   9  -9   1 848.563 144.192   4
   9 -10  -1 2312.95 187.516   4
   9 -10   1 2113.09 179.076   4
   9 -11   1 47.6962 99.8547   4
   9 -11  -1 335.145 121.649   4
   9 -12   1 429.426 121.657   4
   9 -12  -1 682.404 138.904   4
   9 -13  -1 2677.55 203.429   4
   9 -13   1 2427.20 191.380   4
   9 -14  -1 3115.62 213.273   4
   9 -14   1 2703.13 203.160   4
   9 -15   1 32.7438 100.635   4
   9 -15  -1 382.082 117.181   4
   9 -16  -1 239.396 110.680   4
   9 -16   1 97.0578 100.838   4
   9 -17  -1 941.951 135.666   4
   9 -17   1 576.717 120.549   4
   9 -18  -1 306.571 101.999   4
   9 -18   1 436.708 114.303   4
   9 -19   1 214.847 100.378   4
   9 -19  -1-129.319 103.540   4
   9 -20   1 321.062 101.310   4
   9 -20  -1-33.7567 91.3716   4
   9 -21   1 303.899 94.9737   4
   9 -21  -1-55.1518 87.6106   4
   9 -22  -1 346.220 87.1827   4
   9 -22   1 529.733 96.4268   4
   9 -23   1 282.846 83.4922   4
   9 -23  -1 106.548 71.2728   4
   9 -24  -1-35.2923 68.1224   4
   9 -24   1 197.561 74.8628   4
  10   0  -1 2490.26 170.342   4
  10   0   1 2627.17 174.445   4
  10  -1   1 766.942 118.188   4
  10  -1  -1 385.173 100.327   4
  10  -2  -1 506.824 105.002   4
  10  -2   1 131.265 87.4376   4
  10  -3  -1 418.478 110.088   4
  10  -3   1 330.660 99.9223   4
  10  -4   1 1266.66 139.633   4
  10  -4  -1 796.933 119.132   4
  10  -5   1 2393.93 178.315   4
  10  -5  -1 1907.11 160.945   4
  10  -6   1 3172.51 206.290   4
  10  -6  -1 2570.61 187.158   4
  10  -7  -1 11227.0 342.867   4
  10  -7   1 11415.3 353.474   4
  10  -8   1 3039.75 214.218   4
  10  -8  -1 2753.33 204.802   4
  10  -9  -1 16791.1 416.978   4
  10  -9   1 17244.4 428.766   4
  10 -10  -1 4738.50 241.807   4
  10 -10   1 4739.37 245.097   4
  10 -11  -1 7843.96 288.614   4
  10 -11   1 7820.13 295.313   4
  10 -12   1 581.158 124.016   4
  10 -12  -1 533.264 121.050   4
  10 -13  -1 3372.03 195.729   4
  10 -13   1 3578.37 206.835   4
  10 -14  -1-114.999 100.597   4
  10 -14   1 117.547 93.4221   4
  10 -15   1 616.153 112.760   4
  10 -15  -1 98.8223 93.7303   4
  10 -16   1 147.990 93.1508   4
  10 -16  -1-250.281 105.346   4
  10 -17  -1 895.069 113.631   4
  10 -17   1 1097.40 122.887   4
  10 -18  -1-65.4186 80.7732   4
  10 -18   1 119.425 84.9704   4
  10 -19   1 466.152 94.5253   4
  10 -19  -1 349.957 86.6296   4
  10 -20   1 193.919 77.9206   4
  10 -20  -1-72.4253 73.5054   4
  11  -2  -1 936.630 117.249   4
  11  -3  -1 186.348 82.5930   4
  11  -3   1 488.629 93.7085   4
  11  -4   1 213.470 84.7643   4
  11  -4  -1-96.5528 83.0326   4
  11  -5  -1 93.5071 79.9071   4
  11  -5   1 316.270 90.0946   4
  11  -6  -1 13.7086 80.3766   4
  11  -6   1 250.333 83.7832   4
  11  -7  -1-10.0076 78.5740   4
  11  -7   1 193.540 82.9603   4
  11  -8  -1 332.625 89.3971   4
  11  -8   1 470.663 98.5994   4
  11  -9  -1 1263.97 122.605   4
  11  -9   1 1467.41 130.388   4
  11 -10  -1 1070.78 115.846   4
  11 -10   1 1235.89 121.719   4
  11 -11  -1 65.3018 76.2423   4
  11 -11   1 379.081 91.9460   4
  11 -12  -1 266.234 82.5316   4
  11 -12   1 453.942 93.1724   4
  11 -13  -1 102.917 72.9919   4
  11 -13   1 424.957 89.7601   4
  11 -14   1 1263.34 115.279   4
  11 -14  -1 1115.70 113.039   4
   0   0  -2 995.137 137.347   2
   0   1  -2 8772.59 332.762   2
   0  -1  -2 8553.04 308.265   2
   0  -2  -2 556994. 2385.61   2
   0   2  -2 546611. 2519.74   2
   0  -3  -2 64996.7 832.215   2
   0   3  -2 64070.2 908.683   2
   0  -4   2 95278.0 997.406   1
   0   4  -2 96350.9 1140.38   2
   0  -5   2 138524. 1210.91   1
   0   5  -2 138039. 1426.47   2
   0   6  -2 220033. 1898.50   2
   0  -6   2 216624. 1529.06   1
   0   7  -2 35050.1 795.414   2
   0  -7   2 33873.6 629.547   1
   0  -8   2 179910. 1470.83   1
   0  -9   2 280.106 130.965   1
   0 -10   2 15903.5 471.864   1
   0 -11   2 7393.82 342.793   1
   0 -12   2 79575.1 1103.57   1
   0 -13   2 28520.8 678.005   1
   0 -14   2 50805.1 933.444   1
   0 -15   2 13855.8 518.713   1
   0 -16   2 103846. 1434.64   1
   0 -17   2 1037.34 112.985   5
   0 -17   2 1045.42 192.458   1
   0 -17  -2 891.346 117.399   5
   0 -18  -2 28251.3 464.815   5
   0 -18   2 28386.4 808.597   1
   0 -18   2 28760.8 452.119   5
   0 -19   2 4822.65 206.979   5
   0 -19  -2 4784.99 216.984   5
   0 -20  -2 87919.1 860.795   5
   0 -20   2 88477.2 829.239   5
   0 -21  -2 152.910 109.580   5
   0 -21   2 101.553 97.7717   5
   0 -22  -2 48879.1 678.118   5
   0 -22  -2 49081.4 1346.05   1
   0 -22   2 48923.0 657.681   5
   0 -23  -2 1311.06 268.541   1
   0 -23   2 1370.04 151.793   5
   0 -23  -2 1294.85 160.709   5
   0 -24  -2 9367.18 326.338   5
   0  24  -2 8348.70 768.910   2
   0 -24   2 8889.31 310.683   5
   0 -24  -2 8962.47 630.651   1
   0 -25   2 2224.38 179.064   5
   0 -25  -2 2216.92 189.072   5
   0 -25  -2 1899.37 332.333   1
   0  25  -2 1661.21 412.208   2
   0  26  -2 296.087 276.642   2
   0 -26  -2 161.218 209.120   1
   0 -26   2 143.478 115.121   5
   0 -26  -2 47.6340 118.171   5
   0 -27   2 111.004 114.129   5
   0 -27  -2 122.168 120.193   5
   0  27  -2 69.0030 278.386   2
   0 -28  -2 7049.51 301.245   5
   0 -28   2 7156.43 292.993   5
   0 -29  -2 339.544 126.070   5
   0 -29   2 389.467 120.345   5
   0 -30   2 2606.68 190.954   5
   0 -30  -2 2493.75 193.089   5
   0 -31   2 138.605 100.795   5
   0 -31  -2 176.208 116.326   5
   0 -32   2 427.807 119.330   5
   0 -32  -2 532.650 127.810   5
   0 -33  -2 1703.66 159.991   5
   0 -33   2 1885.00 159.556   5
   0 -34  -2 2368.39 167.274   5
   0 -34   2 2556.47 167.378   5
   0 -35  -2 289.505 92.7769   5
   0 -35   2 232.231 91.1642   5
   0 -36  -2 2087.49 139.669   5
  -1   0  -2 53337.4 730.246   2
   1   0  -2 55860.6 827.546   2
   1  -1  -2 8662.49 339.530   2
  -1   1  -2 8670.01 316.850   2
  -1  -1  -2 8664.75 291.335   2
  -1   2  -2 46937.3 745.228   2
   1   2  -2 45223.9 775.527   2
   1  -2  -2 45520.6 763.720   2
   1   3  -2 61708.8 927.127   2
  -1   3  -2 60361.1 894.051   2
   1  -3   2 61369.5 883.079   1
  -1  -3  -2 58781.0 698.161   2
   1  -3  -2 63401.0 901.290   2
   1   4  -2 8583.66 373.293   2
   1  -4   2 9012.25 367.875   1
   1   5  -2 88354.0 1167.38   2
   1  -5   2 89975.2 1080.55   1
   1  -6   2 85406.7 1079.99   1
   1   6  -2 82826.2 1176.23   2
   1   7  -2 30027.8 735.183   2
   1  -7   2 29931.5 663.655   1
   1   8  -2 9619.88 446.255   2
   1  -8   2 10060.9 402.971   1
  -1  -8   2 9020.72 294.006   1
   1   9  -2 7586.18 415.650   2
   1  -9   2 7454.44 362.031   1
  -1  -9   2 6745.18 268.735   1
   1  10  -2 727.295 187.773   2
  -1 -10   2 653.967 112.947   1
   1 -10   2 631.407 148.230   1
  -1 -11   2 1128.79 135.780   1
   1  11  -2 1234.30 219.141   2
   1 -11   2 1164.20 181.021   1
   1 -12   2 491.650 151.477   1
  -1 -12   2 571.109 112.689   1
   1  12  -2 357.740 159.574   2
   1  13  -2 944.045 210.513   2
  -1 -13   2 972.255 137.417   1
   1 -13   2 797.491 167.742   1
  -1 -14   2 834.859 139.410   1
   1  14  -2 708.654 201.888   2
   1 -14   2 920.849 194.439   1
   1 -15   2 36364.3 920.567   1
   1  15  -2 35743.4 1062.93   2
   1  16  -2 7790.77 530.639   2
   1 -16   2 7287.65 236.956   5
   1 -16   2 7997.02 458.773   1
   1 -16  -2 7461.92 242.157   5
   1 -17   2 1590.83 254.181   1
   1 -17   2 1427.93 127.925   5
   1  17  -2 1632.38 292.091   2
  -1 -17  -2 1507.64 134.439   5
   1 -17  -2 1412.99 131.845   5
   1 -18  -2 15096.2 347.877   5
   1 -18   2 15010.4 344.181   5
   1 -18   2 15264.4 675.690   1
  -1 -18  -2 14779.6 344.223   5
   1  18  -2 14043.2 755.319   2
  -1 -18   2 14992.3 321.083   5
   1 -19  -2 2437.85 168.039   5
   1 -19   2 2300.75 159.529   5
   1 -19   2 2359.54 297.228   1
  -1 -19  -2 2297.06 160.037   5
  -1 -19   2 2293.27 153.516   5
   1  19  -2 2006.80 341.026   2
   1 -20  -2 3223.64 187.314   5
  -1 -20   2 3199.23 172.968   5
   1 -20  -2 2931.95 368.314   1
  -1 -20  -2 3094.22 187.275   5
   1  20  -2 2673.79 402.762   2
   1 -20   2 3592.70 192.344   5
   1 -20   2 3162.91 346.020   1
   1  21  -2 12479.9 799.313   2
   1 -21   2 14093.4 359.152   5
  -1 -21  -2 13779.0 358.377   5
   1 -21   2 14278.0 698.662   1
   1 -21  -2 14273.2 745.546   1
  -1 -21   2 13805.2 334.609   5
   1 -21  -2 14196.0 372.372   5
   1  22  -2 2199.03 390.565   2
  -1 -22   2 2554.04 165.739   5
  -1 -22  -2 2522.82 183.375   5
   1 -22  -2 2560.44 355.661   1
   1 -22  -2 2825.38 194.935   5
   1 -22   2 2728.22 188.443   5
  -1 -23  -2 11458.2 343.240   5
  -1 -23   2 11637.7 323.820   5
   1 -23   2 11828.6 354.213   5
   1 -23  -2 12076.7 363.176   5
  -1 -23  -2 11150.2 675.060   1
   1 -23  -2 12074.4 722.704   1
  -1 -24   2 2653.96 176.355   5
   1 -24   2 2829.63 200.085   5
   1  24  -2 2126.07 389.547   2
   1 -24  -2 2588.29 365.117   1
   1 -24  -2 2887.86 207.112   5
  -1 -24  -2 2775.83 200.190   5
   1 -25   2 641.665 140.508   5
   1 -25  -2 927.039 153.282   5
  -1 -25   2 611.880 118.601   5
   1  25  -2 440.168 247.402   2
   1 -25  -2 633.868 244.497   1
  -1 -25  -2 618.483 130.822   5
  -1 -26  -2 1551.82 167.063   5
   1 -26  -2 1531.63 317.770   1
   1 -26   2 1345.80 170.494   5
   1  26  -2 1285.98 390.566   2
   1 -26  -2 1494.77 178.572   5
  -1 -26   2 1245.26 143.842   5
   1 -27  -2 968.359 164.307   5
  -1 -27   2 621.884 125.116   5
   1 -27  -2 732.813 243.353   1
   1  27  -2 667.245 318.612   2
  -1 -27  -2 901.053 143.562   5
   1 -27   2 789.502 149.834   5
   1 -28  -2 121.852 123.638   5
   1 -28   2 95.4128 124.989   5
  -1 -28  -2 170.479 111.105   5
  -1 -28   2 149.732 99.1404   5
  -1 -29  -2 1206.25 148.543   5
  -1 -29   2 1305.51 136.723   5
   1 -29  -2 1362.32 168.279   5
   1 -29   2 1564.22 172.840   5
   1 -30  -2 3086.99 220.146   5
  -1 -30  -2 2594.15 187.175   5
  -1 -30   2 2586.33 173.469   5
   1 -30   2 3029.28 214.206   5
  -1 -31   2 503.608 106.537   5
  -1 -31  -2 592.210 120.987   5
   1 -31   2 540.803 130.540   5
   1 -31  -2 675.247 143.654   5
  -1 -32  -2 157.145 94.6352   5
   1 -32   2 285.886 119.897   5
   1 -32  -2 224.242 119.665   5
   1 -33   2 1401.17 156.512   5
   1 -33  -2 1331.42 154.825   5
   1 -34  -2 653.943 124.043   5
   1 -34   2 656.239 119.868   5
   1 -35   2 86.3169 89.2939   5
   1 -35  -2 74.1863 96.1055   5
   1 -36   2 164.045 89.4812   5
   1 -36  -2 89.3280 84.7408   5
   2   0  -2 540.374 138.886   2
  -2   0  -2 652.746 114.706   2
   2   1  -2 1247.45 169.820   2
   2  -1  -2 1243.59 167.268   2
  -2   1  -2 1347.12 148.141   2
   2  -1   2 1403.70 210.881   1
  -2  -1  -2 1223.87 125.166   2
   2  -2   2 1452.28 208.804   1
   2   2  -2 1516.12 194.034   2
   2  -2  -2 1383.91 177.618   2
  -2  -2  -2 1285.65 113.231   2
   2  -3   2 54819.8 921.997   1
   2   3  -2 56879.3 902.009   2
   2   4  -2 14149.8 482.619   2
   2  -4   2 13308.0 476.964   1
   2   5  -2 21537.6 594.256   2
   2  -5   2 21064.1 593.302   1
   2  -6   2 5404.76 334.804   1
   2   6  -2 5399.88 342.293   2
   2   7  -2 65311.8 1083.88   2
   2  -7   2 64452.0 1055.05   1
   2   8  -2 19232.3 615.813   2
   2  -8   2 18420.0 588.881   1
   2  -9   2 20511.0 628.230   1
   2   9  -2 21604.7 660.244   2
   2  10  -2 35565.3 885.374   2
   2 -10   2 33253.0 812.073   1
   2 -11   2 32163.4 818.099   1
   2  11  -2 34294.7 891.082   2
   2 -12   2 11544.0 515.235   1
   2  12  -2 12046.0 555.070   2
   2  13  -2 69738.7 1341.64   2
   2 -13   2 68387.2 1265.18   1
   2  14  -2 11315.9 574.175   2
   2 -14   2 12471.2 572.555   1
   2 -15  -2 1011.95 108.531   5
   2  15  -2 1074.25 225.814   2
   2 -15   2 1133.33 108.812   5
   2 -15   2 1116.58 221.316   1
   2 -16  -2 1863.58 139.834   5
   2 -16   2 1999.69 135.596   5
   2 -16   2 2101.00 286.680   1
   2  16  -2 1847.53 286.760   2
   2 -17   2 32305.4 997.834   1
   2 -17  -2 33459.7 1034.46   1
   2 -17   2 31919.7 483.612   5
   2 -17  -2 30476.4 479.699   5
  -2 -18  -2 491.474 105.224   5
   2 -18  -2 484.500 111.191   5
   2 -18   2 453.385 199.044   1
   2 -18   2 531.776 102.996   5
   2  18  -2 498.459 196.859   2
   2 -18  -2 653.547 230.726   1
   2 -19  -2 2429.99 338.091   1
   2 -19  -2 2468.35 168.147   5
   2 -19   2 2365.51 322.223   1
  -2 -19  -2 2480.51 163.028   5
   2 -19   2 2617.29 169.492   5
   2  19  -2 2040.57 315.173   2
   2 -20  -2 1117.01 135.566   5
   2 -20   2 1071.36 130.460   5
  -2 -20  -2 1139.64 132.477   5
   2 -20   2 1020.53 249.528   1
   2 -20  -2 1011.45 264.709   1
   2  20  -2 884.218 252.920   2
   2 -21  -2 5361.75 490.493   1
   2 -21   2 5441.70 484.911   1
  -2 -21  -2 4797.20 221.305   5
   2 -21   2 5261.61 237.487   5
   2 -21  -2 5119.40 237.277   5
   2  21  -2 4019.60 447.648   2
   2 -22  -2 1444.14 157.679   5
   2 -22  -2 1474.46 299.206   1
   2  22  -2 875.340 265.595   2
   2 -22   2 1641.21 310.897   1
  -2 -22  -2 1293.18 145.754   5
   2 -22   2 1445.27 150.904   5
  -2 -23  -2 11543.4 335.263   5
   2 -23  -2 12842.4 767.662   1
   2 -23  -2 13012.8 376.033   5
   2 -23   2 13022.5 371.592   5
   2 -23   2 12810.9 754.401   1
   2 -24  -2 146.678 202.433   1
   2 -24  -2 226.903 127.484   5
   2 -24   2 231.421 120.489   5
   2  24  -2 219.469 209.055   2
   2 -24   2 292.065 206.416   1
   2 -25  -2 12786.6 390.028   5
   2 -25  -2 12301.4 779.296   1
   2 -25   2 12963.0 389.380   5
   2 -26  -2 2297.98 201.328   5
   2 -26   2 2575.95 205.361   5
   2 -26  -2 2317.15 382.591   1
   2 -27  -2 8748.95 339.809   5
   2 -27   2 8876.31 339.546   5
   2 -28  -2 174.831 129.624   5
   2 -28   2 197.354 128.650   5
   2 -29   2 1383.27 173.505   5
   2 -29  -2 1355.85 168.500   5
   2 -30   2 2448.79 207.280   5
   2 -30  -2 2421.61 206.198   5
   2 -31   2 5045.67 260.684   5
   2 -31  -2 4914.90 259.595   5
   2 -32   2 489.547 133.172   5
   2 -32  -2 650.386 141.808   5
   2 -33   2 1100.34 144.555   5
   2 -33  -2 1119.09 148.908   5
   2 -34   2 1094.12 138.098   5
   2 -34  -2 1178.29 143.173   5
   2 -35  -2 1893.04 156.527   5
   2 -35   2 1864.41 157.985   5
   3   0   2 3981.37 305.130   1
   3   0  -2 4244.86 281.987   2
  -3   0  -2 3311.97 194.502   2
  -3  -1  -2 1187.34 108.462   2
   3   1  -2 1695.25 198.092   2
   3  -1   2 1903.19 236.686   1
   3   2  -2 2341.54 138.291   1
   3   2  -2 2671.90 236.171   2
   3  -2   2 2938.45 280.058   1
   3   3  -2 28879.5 689.701   2
   3  -3   2 28165.6 733.552   1
   3   3  -2 27070.5 356.655   1
   3   4  -2 6894.74 364.775   2
   3  -4   2 6392.24 378.295   1
   3  -5   2 4410.50 326.261   1
   3   5  -2 4136.71 292.152   2
   3   6  -2 5819.36 356.065   2
   3  -6   2 5621.18 371.918   1
   3   7  -2 28049.5 731.841   2
   3  -7   2 27567.1 771.901   1
   3  -8   2 21810.3 699.827   1
   3   8  -2 23599.4 690.172   2
   3  -9   2 2205.38 267.508   1
   3   9  -2 2124.62 240.930   2
   3 -10   2 7822.12 451.949   1
   3  10  -2 8615.60 458.244   2
   3 -11   2 9947.16 519.997   1
   3  11  -2 9174.53 478.520   2
   3  12  -2 45542.8 1063.43   2
   3 -12   2 45399.2 1087.15   1
   3 -12  -2 46737.9 1102.05   1
   3 -13   2 7505.70 479.013   1
   3  13  -2 6870.07 441.837   2
   3 -13  -2 7462.89 475.344   1
   3  14  -2 3172.56 314.406   2
   3 -14  -2 2778.46 157.276   5
   3 -14   2 2430.51 149.746   5
   3 -14  -2 3240.44 345.448   1
   3 -14   2 3118.66 336.746   1
   3  15  -2 5269.40 410.235   2
   3 -15   2 5093.22 204.754   5
   3 -15   2 6307.02 463.972   1
   3 -15  -2 6473.05 472.318   1
   3 -15  -2 5421.33 212.466   5
   3 -16  -2 512.102 102.674   5
   3  16  -2 356.367 168.910   2
   3 -16   2 516.391 206.927   1
   3 -16  -2 374.270 91.8963   4
   3 -16   2 530.531 102.742   5
   3 -16  -2 650.702 228.785   1
   3 -17  -2 826.845 117.544   5
   3 -17  -2 1033.80 248.073   1
   3 -17   2 652.723 104.915   5
   3 -17   2 855.746 240.851   1
   3  17  -2 750.181 194.692   2
   3  18  -2 3365.47 363.810   2
   3 -18  -2 4218.29 207.322   5
   3 -18   2 4091.02 418.617   1
   3 -18   2 3861.86 185.519   4
   3 -18   2 3929.19 197.060   5
   3 -18  -2 4782.23 459.928   1
   3 -19  -2 393.989 111.289   5
   3 -19  -2 379.896 219.940   1
   3 -19   2 545.366 219.919   1
   3 -19   2 319.657 101.122   5
   3  19  -2 230.780 174.105   2
   3 -20   2 1414.32 293.717   1
   3  20  -2 1175.39 246.909   2
   3 -20   2 1363.82 144.319   5
   3 -20  -2 1668.99 159.662   5
   3 -21  -2 1197.73 303.819   1
   3 -21   2 993.981 273.711   1
   3 -21   2 902.957 134.493   5
   3  21  -2 834.898 252.494   2
   3 -21  -2 1039.11 143.940   5
   3 -22  -2 682.557 254.045   1
   3 -22   2 553.503 125.805   5
   3 -22  -2 599.206 131.274   5
   3 -22   2 341.695 211.725   1
   3 -23   2 969.347 143.961   5
   3 -23  -2 868.535 144.521   5
   3 -23  -2 955.766 278.245   1
   3 -23   2 930.446 275.383   1
   3 -24  -2 208.506 123.298   5
   3 -24   2 192.150 122.510   5
   3 -24  -2 198.471 208.715   1
   3 -24   2 89.6562 195.882   1
   3 -25  -2 2246.47 366.125   1
   3 -25   2 2663.66 208.052   5
   3 -25   2 2427.97 392.646   1
   3 -25  -2 2592.93 209.162   5
   3 -26   2 1648.60 184.962   5
   3 -26  -2 1648.23 180.679   5
   3 -27   2 3306.78 224.639   5
   3 -27  -2 3153.34 226.186   5
   3 -28  -2 3557.84 234.074   5
   3 -28   2 3157.15 220.988   5
   3 -29  -2 3543.69 232.698   5
   3 -29   2 3629.55 237.611   5
   3 -30   2 15271.9 421.637   5
   3 -30  -2 14837.7 420.451   5
   3 -31  -2 2419.85 197.402   5
   3 -31   2 2500.51 197.231   5
   3 -32  -2 643.165 134.623   5
   3 -32   2 706.992 134.380   5
   3 -33  -2 269.807 112.865   5
   3 -33   2 213.873 110.928   5
   3 -34  -2 336.834 105.944   5
   3 -34   2 366.498 107.181   5
   3 -35  -2 1044.69 125.654   5
   3 -35   2 1135.94 127.050   5
   4   0   2 5623.86 392.110   1
   4   0  -2 6056.65 262.524   1
   4   1  -2 3857.28 200.487   1
   4  -1   2 3788.81 329.708   1
   4  -1  -2 3812.63 231.916   1
   4  -2  -2 4417.42 267.940   1
   4  -2   2 4698.60 360.175   1
   4   2  -2 4085.61 186.933   1
   4   3  -2 9753.96 437.742   2
   4  -3   2 9249.45 483.959   1
   4  -3  -2 9417.07 387.072   1
   4   4  -2 2452.73 234.695   2
   4  -4   2 2614.78 285.630   1
   4  -4  -2 2500.46 225.654   1
   4   5  -2 5712.73 347.061   2
   4  -5  -2 5403.45 324.237   1
   4  -5   2 5125.19 379.699   1
   4  -6  -2 5763.20 348.785   1
   4   6  -2 5634.98 350.028   2
   4  -6   2 6789.61 445.896   1
   4  -7   2 28001.2 858.178   1
   4  -7  -2 26746.9 748.769   1
   4   8  -2 23770.9 709.966   2
   4  -8   2 24045.3 813.366   1
   4  -8  -2 22994.9 719.797   1
   4  -9   2 1773.27 271.094   1
   4   9  -2 2511.51 270.204   2
   4  -9  -2 1887.60 253.909   1
   4  10  -2 16469.9 614.785   2
   4 -10   2 17827.3 729.759   1
   4 -10  -2 15957.6 649.311   1
   4 -11  -2 44446.8 547.827   4
   4 -11   2 45138.1 1168.47   1
   4 -11  -2 44969.8 1107.88   1
   4  11  -2 45842.8 1043.55   2
   4  12  -2 18312.7 673.354   2
   4 -12   2 16935.6 322.816   5
   4 -12  -2 17807.4 358.193   4
   4 -12  -2 19853.5 766.385   1
   4 -12   2 19310.1 792.058   1
   4 -13   2 3191.56 160.443   5
   4 -13  -2 3988.22 392.068   1
   4 -13   2 4090.39 404.990   1
   4 -13  -2 3449.85 177.265   4
   4 -13  -2 3329.08 170.442   5
   4  13  -2 3874.67 336.460   2
   4 -14  -2 21928.9 400.173   5
   4 -14   2 20832.3 381.321   5
   4  14  -2 21674.3 777.431   2
   4 -14   2 22901.9 898.138   1
   4 -14  -2 23554.2 417.230   4
   4  15  -2 1126.97 245.259   2
   4 -15  -2 1551.76 136.294   4
   4 -15  -2 1672.63 309.232   1
   4 -15   2 1041.54 114.213   5
   4 -15   2 1304.92 280.117   1
   4 -15  -2 1332.56 134.437   5
   4 -16  -2 12836.1 325.135   5
   4  16  -2 11341.9 591.240   2
   4 -16  -2 12064.0 309.024   4
   4 -16   2 12473.2 335.975   4
   4 -16   2 13129.2 315.849   5
   4 -16   2 13350.9 735.055   1
   4 -17  -2 10954.6 317.422   5
   4 -17   2 10458.5 296.029   5
   4 -17   2 11051.0 691.888   1
   4 -17   2 10362.8 311.329   4
   4 -17  -2 10804.1 302.204   4
   4 -18   2 1918.34 153.713   5
   4 -18  -2 1727.30 146.325   4
   4 -18   2 2148.39 355.626   1
   4 -18  -2 2169.62 339.522   1
   4 -18   2 1620.57 146.751   4
   4 -18  -2 1901.30 160.163   5
   4 -19  -2 568.864 122.094   5
   4 -19   2 473.898 112.888   5
   4 -19  -2 501.015 230.107   1
   4 -19   2 561.809 244.530   1
   4 -19   2 308.744 96.1282   4
   4 -19  -2 235.235 85.6138   4
   4 -20  -2 5592.52 247.445   5
   4 -20   2 5427.74 538.050   1
   4 -20  -2 5653.54 520.902   1
   4 -20   2 4515.53 222.927   4
   4 -20   2 5485.25 240.612   5
   4 -21  -2 2425.15 375.184   1
   4 -21  -2 1954.34 170.632   5
   4 -21   2 1745.31 159.140   4
   4 -21   2 2038.68 168.391   5
   4 -21   2 1973.35 369.044   1
   4 -22  -2 4069.24 473.928   1
   4 -22   2 3334.08 208.999   5
   4 -22   2 3669.28 470.537   1
   4 -22  -2 3710.81 219.345   5
   4 -23  -2 4988.43 251.751   5
   4 -23  -2 5042.06 519.830   1
   4 -23   2 5041.54 247.791   5
   4 -23   2 5134.98 560.488   1
   4 -24  -2 2323.33 192.569   5
   4 -24   2 2540.42 197.218   5
   4 -24  -2 2493.58 399.815   1
   4 -24   2 2188.71 406.378   1
   4 -25  -2 897.470 150.029   5
   4 -25   2 1050.64 148.921   5
   4 -26  -2 3303.68 216.908   5
   4 -26   2 3849.21 229.592   5
   4 -27  -2 2629.57 198.724   5
   4 -27   2 2966.32 210.307   5
   4 -28  -2 5653.02 272.452   5
   4 -28   2 6227.52 283.920   5
   4 -29   2 10122.4 341.946   5
   4 -29  -2 9591.03 334.022   5
   4 -30   2 3683.48 223.626   5
   4 -30  -2 4088.08 232.329   5
   4 -31  -2 2398.09 191.272   5
   4 -31   2 2278.78 183.375   5
   4 -32   2 9734.91 315.870   5
   4 -32  -2 8945.15 304.997   5
   4 -33  -2 810.209 124.663   5
   4 -33   2 849.949 123.550   5
   4 -34  -2 2466.63 160.268   5
   4 -34   2 2724.08 168.752   5
   5   0   2 5567.57 438.120   1
   5   0  -2 5850.10 297.648   1
   5  -1   2 5671.19 436.939   1
   5  -1  -2 5854.60 312.641   1
   5  -2   2 1482.73 259.771   1
   5  -2  -2 1261.93 174.747   1
   5  -3  -2 1492.10 190.685   1
   5  -3   2 1575.46 268.468   1
   5  -4  -2 2899.70 258.237   1
   5  -4   2 3301.76 175.718   3
   5  -4   2 3203.69 338.578   1
   5  -5  -2 3179.65 282.614   1
   5  -5   2 3440.04 183.508   3
   5  -5   2 3361.91 361.709   1
   5  -5  -2 3577.52 175.788   4
   5  -6   2 18855.8 768.986   1
   5  -6  -2 18796.3 366.975   4
   5  -6  -2 18692.7 648.015   1
   5  -6   2 18973.9 396.117   3
   5  -7   2 25738.2 905.175   1
   5  -7  -2 27033.4 448.762   4
   5   7  -2 26705.9 776.986   2
   5  -7  -2 25092.8 778.876   1
   5  -7   2 27410.3 474.871   3
   5  -8  -2 2852.69 296.980   1
   5  -8   2 2996.80 179.607   3
   5   8  -2 2759.21 278.539   2
   5  -8  -2 2957.28 176.175   4
   5  -8   2 2865.69 344.450   1
   5  -9   2 1999.20 153.668   3
   5  -9   2 2082.88 307.767   1
   5  -9  -2 1938.07 260.420   1
   5  -9  -2 2204.47 152.010   4
   5   9  -2 2043.74 235.394   2
   5 -10  -2 1292.31 126.201   4
   5 -10  -2 1289.95 245.332   1
   5 -10   2 1113.96 256.396   1
   5  10  -2 854.805 172.490   2
   5 -11  -2 1580.80 264.375   1
   5 -11  -2 1401.04 140.666   4
   5 -11   2 1192.85 106.266   5
   5 -11   2 1832.59 304.152   1
   5 -12  -2 330.632 90.6592   5
   5 -12   2 245.353 77.1287   5
   5 -12  -2 451.992 200.426   1
   5 -12  -2 385.214 100.110   4
   5 -12   2 433.580 212.039   1
   5 -13  -2 614.857 106.730   5
   5 -13   2 388.977 90.4447   5
   5 -13   2 481.485 104.726   4
   5 -13  -2 603.073 114.164   4
   5 -13  -2 419.679 195.036   1
   5 -13   2 515.065 221.481   1
   5 -14  -2 1259.50 134.066   5
   5 -14   2 1230.87 123.853   5
   5 -14   2 1352.38 306.893   1
   5 -14  -2 1376.57 144.821   4
   5 -14   2 1133.94 140.480   4
   5 -14  -2 1198.60 265.613   1
   5 -15  -2 12315.1 319.747   5
   5 -15   2 12608.2 761.687   1
   5 -15  -2 13214.8 731.531   1
   5 -15  -2 13134.3 343.012   4
   5 -15   2 12090.0 348.028   4
   5 -15   2 11893.8 304.149   5
   5 -16  -2 684.608 239.628   1
   5 -16  -2 553.042 114.090   5
   5 -16   2 448.117 111.146   4
   5 -16   2 610.951 111.172   5
   5 -16  -2 693.801 122.549   4
   5 -16   2 710.668 276.185   1
   5 -17  -2 7174.89 579.677   1
   5 -17  -2 7200.90 266.569   4
   5 -17   2 6257.86 260.425   4
   5 -17  -2 6537.29 251.096   5
   5 -17   2 6308.10 241.771   5
   5 -17   2 6965.95 602.560   1
   5 -18  -2 1114.75 140.384   4
   5 -18   2 865.140 276.733   1
   5 -18   2 949.311 122.039   5
   5 -18  -2 954.889 268.850   1
   5 -18  -2 1017.72 134.835   5
   5 -18   2 938.284 128.517   4
   5 -19  -2 103.498 181.635   1
   5 -19   2 167.792 93.8096   5
   5 -19   2 316.504 233.910   1
   5 -19  -2 228.732 102.271   4
   5 -19   2 121.657 99.5437   4
   5 -19  -2 223.697 106.546   5
   5 -20  -2 2200.49 355.951   1
   5 -20   2 2606.74 427.352   1
   5 -20  -2 2385.51 169.016   4
   5 -20  -2 2667.60 185.858   5
   5 -20   2 2338.73 179.173   4
   5 -20   2 2397.47 176.893   5
   5 -21  -2 484.679 102.847   4
   5 -21   2 586.048 121.657   5
   5 -21  -2 679.016 137.749   5
   5 -21   2 575.830 116.114   4
   5 -21  -2 624.646 226.397   1
   5 -21   2 454.084 228.973   1
   5 -22   2 1639.93 366.471   1
   5 -22   2 1650.13 163.670   5
   5 -22  -2 1558.49 346.649   1
   5 -22   2 1688.07 155.518   4
   5 -22  -2 1532.68 159.448   5
   5 -23  -2 5447.59 258.774   5
   5 -23   2 5435.54 255.164   5
   5 -23   2 4952.31 233.514   4
   5 -24  -2 672.558 135.651   5
   5 -24   2 529.931 125.247   5
   5 -25  -2 4027.57 231.946   5
   5 -25   2 4052.87 229.156   5
   5 -26   2 2738.06 196.886   5
   5 -26  -2 2632.23 201.723   5
   5 -27   2 6350.17 272.212   5
   5 -27  -2 6300.66 270.769   5
   5 -28  -2 2020.61 177.546   5
   5 -28   2 2193.42 177.085   5
   5 -29  -2 606.397 121.168   5
   5 -29   2 574.707 121.859   5
   5 -30  -2 188.043 105.606   5
   5 -30   2 97.1836 97.8123   5
   5 -31   2 428.054 106.832   5
   5 -31  -2 570.986 114.301   5
   5 -32  -2 292.546 97.3544   5
   5 -32   2 299.162 95.1381   5
   5 -33   2 2833.13 162.830   5
   5 -33  -2 2731.37 159.881   5
   6   0  -2 36011.2 511.592   4
   6   0   2 35048.1 565.808   3
   6   0   2 34373.4 506.982   4
   6  -1   2 1599.32 307.797   1
   6  -1   2 4100.36 233.205   4
   6   1  -2 2416.13 160.601   4
   6  -1  -2 2068.25 153.893   4
   6   1   2 3702.60 220.237   3
   6   1   2 4293.18 226.640   4
   6  -1   2 3460.55 227.642   3
   6  -2   2 2849.33 366.059   1
   6   2   2 3189.92 192.833   3
   6   2  -2 2710.71 156.747   4
   6  -2   2 3022.29 186.097   3
   6  -2  -2 2695.81 166.561   4
   6   2   2 2491.13 157.704   4
   6  -2   2 2955.88 168.660   4
   6  -3   2 6670.67 255.958   4
   6  -3  -2 5686.86 233.685   4
   6   3  -2 5117.52 205.595   4
   6   3   2 7894.43 283.121   3
   6  -3   2 6842.22 546.789   1
   6  -4  -2 34024.0 517.702   4
   6  -4  -2 34847.4 922.690   1
   6   4  -2 33896.6 490.681   4
   6   4   2 34472.7 559.325   3
   6  -4   2 32949.5 518.585   4
   6  -4   2 34099.4 1121.45   1
   6  -5   2 12145.9 331.171   4
   6  -5  -2 12489.2 328.806   4
   6  -5   2 11361.0 664.425   1
   6  -5  -2 11664.8 555.326   1
   6  -6   2 1269.15 283.659   1
   6  -6  -2 1640.08 146.820   4
   6  -6   2 1355.50 139.861   4
   6  -6  -2 1565.18 236.483   1
   6  -7   2 187.130 190.285   1
   6  -7  -2 376.370 105.677   4
   6  -7  -2 310.572 165.754   1
   6  -7   2 237.804 91.9566   4
   6  -8  -2 5001.60 406.134   1
   6  -8  -2 5140.70 226.761   4
   6  -8   2 4227.48 215.799   4
   6  -8   2 5144.73 476.558   1
   6  -9  -2 1968.50 279.324   1
   6  -9  -2 2118.78 164.384   4
   6  -9   2 1906.17 157.252   4
   6  -9   2 1872.06 319.745   1
   6 -10   2 387.082 205.069   1
   6 -10   2 583.405 111.177   4
   6 -10  -2 520.192 203.742   1
   6 -10  -2 685.439 121.807   4
   6 -11  -2 612.950 214.856   1
   6 -11   2 354.540 219.275   1
   6 -11   2 372.681 102.040   4
   6 -11  -2 667.474 121.633   4
   6 -12  -2 1253.29 266.950   1
   6 -12  -2 1585.71 155.580   4
   6 -12   2 1157.47 272.812   1
   6 -12   2 1154.86 139.528   4
   6 -13  -2 1979.17 319.446   1
   6 -13   2 1944.21 167.813   4
   6 -13  -2 2255.24 177.961   4
   6 -13   2 1895.82 345.939   1
   6 -14  -2 4771.57 469.770   1
   6 -14   2 4649.12 196.753   5
   6 -14  -2 5381.78 246.008   4
   6 -14   2 4744.79 504.044   1
   6 -14   2 4934.09 244.607   4
   6 -15  -2 853.751 113.429   5
   6 -15  -2 912.340 244.987   1
   6 -15  -2 1116.81 145.546   4
   6 -15   2 955.264 112.407   5
   6 -15   2 992.393 294.633   1
   6 -15   2 833.702 136.294   4
   6 -16   2 804.494 113.037   5
   6 -16  -2 1164.15 149.318   4
   6 -16  -2 811.500 115.336   5
   6 -16   2 803.993 134.705   4
   6 -16   2 544.282 250.369   1
   6 -16  -2 1044.82 280.281   1
   6 -17   2 1393.38 325.614   1
   6 -17   2 1493.93 137.671   5
   6 -17   2 1625.83 162.099   4
   6 -17  -2 1533.74 143.199   5
   6 -17  -2 1573.91 159.888   4
   6 -17  -2 1378.43 316.652   1
   6 -18   2 3032.91 180.893   5
   6 -18  -2 3361.18 208.209   4
   6 -18   2 2880.84 440.061   1
   6 -18   2 3185.40 207.551   4
   6 -18  -2 2867.99 183.072   5
   6 -18  -2 3110.67 435.259   1
   6 -19   2 4312.46 216.926   5
   6 -19  -2 3861.62 221.893   4
   6 -19   2 4387.68 550.450   1
   6 -19   2 4451.90 240.094   4
   6 -19  -2 4027.77 212.555   5
   6 -19  -2 4053.86 500.533   1
   6 -20   2 26105.0 487.345   5
   6 -20  -2 24406.3 481.951   5
   6 -20  -2 26337.5 517.320   4
   6 -20   2 25410.8 522.810   4
   6 -21   2 7785.36 299.453   4
   6 -21  -2 7545.23 278.773   5
   6 -21  -2 7226.76 284.191   4
   6 -21   2 7688.27 279.706   5
   6 -22  -2 4672.19 230.316   5
   6 -22  -2 4731.71 228.774   4
   6 -22   2 4511.90 234.465   4
   6 -22   2 5169.95 235.718   5
   6 -23   2 2913.76 189.931   5
   6 -23   2 2285.64 172.666   4
   6 -23  -2 2818.05 184.995   5
   6 -23  -2 2516.38 174.255   4
   6 -24  -2 3223.49 197.144   5
   6 -24   2 3296.10 195.601   5
   6 -25  -2 1085.26 136.552   5
   6 -25   2 1068.32 136.200   5
   6 -26   2 5210.76 234.932   5
   6 -26  -2 5183.57 237.219   5
   6 -27  -2 2318.19 169.531   5
   6 -27   2 2116.06 164.676   5
   6 -28  -2 177.445 94.2388   5
   6 -28   2 180.704 95.0806   5
   6 -29  -2 172.234 90.4942   5
   6 -29   2 208.979 88.1627   5
   6 -30   2 77.0640 78.4496   5
   6 -30  -2 95.6476 80.6469   5
   6 -31   2 109.730 77.1635   5
   6 -31  -2 128.043 79.5054   5
   7   0  -2 25365.8 474.585   4
   7   0   2 24411.4 465.758   4
   7   1   2 10277.4 313.398   4
   7  -1   2 10852.9 321.677   4
   7  -1  -2 10028.0 312.886   4
   7   2   2 2580.49 171.140   4
   7  -2   2 2498.48 178.394   4
   7  -2  -2 2231.49 173.592   4
   7  -3  -2 1505.96 156.832   4
   7  -3   2 1363.64 321.407   1
   7   3  -2 1220.42 131.460   4
   7  -3   2 1295.50 144.964   4
   7   4  -2 4088.37 199.058   4
   7  -4   2 4025.72 214.997   4
   7  -4  -2 4934.06 232.537   4
   7  -4   2 4258.10 489.819   1
   7  -5  -2 2569.78 189.333   4
   7  -5   2 2010.67 364.889   1
   7  -5   2 2343.25 173.355   4
   7  -6   2 1098.10 291.049   1
   7  -6  -2 1259.20 153.044   4
   7  -6   2 1003.05 138.048   4
   7  -7   2 159.816 199.883   1
   7  -7   2 345.545 110.751   4
   7  -7  -2 396.817 122.537   4
   7  -8  -2 3565.52 209.036   4
   7  -8   2 3132.74 201.937   4
   7  -8   2 2921.80 410.539   1
   7  -9   2 1313.64 317.009   1
   7  -9  -2 1504.30 157.392   4
   7  -9   2 1280.72 149.956   4
   7  -9  -2 1100.06 234.344   1
   7 -10  -2 1089.23 248.910   1
   7 -10   2 1300.78 154.667   4
   7 -10  -2 1570.21 163.153   4
   7 -10   2 1387.59 327.536   1
   7 -11   2 981.595 292.599   1
   7 -11  -2 916.313 236.827   1
   7 -11  -2 1174.98 150.805   4
   7 -11   2 1062.79 151.873   4
   7 -12   2 300.000 235.685   1
   7 -12  -2 347.503 207.206   1
   7 -12   2 74.0516 99.4572   4
   7 -12  -2 289.761 122.112   4
   7 -13   2 1030.90 152.688   4
   7 -13   2 1207.21 316.372   1
   7 -13  -2 1307.64 163.446   4
   7 -13  -2 866.730 288.909   1
   7 -14  -2 2389.32 197.040   4
   7 -14   2 2262.31 192.882   4
   7 -14   2 2006.62 373.962   1
   7 -14  -2 1852.12 342.550   1
   7 -15  -2 168.687 187.341   1
   7 -15   2 103.767 216.021   1
   7 -15  -2 426.480 128.468   4
   7 -15   2 138.923 108.862   4
   7 -16  -2 323.263 224.513   1
   7 -16   2 178.804 204.852   1
   7 -16  -2 570.818 135.057   4
   7 -16   2 369.791 130.120   4
   7 -17   2 1415.34 166.589   4
   7 -17  -2 1780.30 172.938   4
   7 -18   2 2913.76 209.296   4
   7 -18  -2 2683.22 191.500   4
   7 -19   2 2908.26 171.617   5
   7 -19   2 2814.63 205.227   4
   7 -19  -2 2840.95 192.803   4
   7 -20   2 10569.1 299.129   5
   7 -20  -2 10568.1 337.938   4
   7 -20   2 10651.3 347.298   4
   7 -21   2 705.422 110.833   5
   7 -21   2 619.772 117.087   4
   7 -22  -2 590.169 109.185   4
   7 -22   2 580.596 104.587   5
   7 -22   2 418.796 102.985   4
   7 -23  -2 340.116 95.2851   5
   7 -23   2 216.906 87.9497   5
   7 -23  -2 198.103 92.7118   4
   7 -23   2 289.401 96.3500   4
   7 -24   2 1204.49 128.187   5
   7 -24  -2 1164.61 124.443   4
   7 -24   2 921.548 118.989   4
   7 -24  -2 1213.23 124.864   5
   7 -25  -2 246.030 90.0512   5
   7 -25   2 259.253 93.9355   5
   7 -25   2 114.634 79.1331   4
   7 -26  -2 274.784 89.5385   5
   7 -26   2 365.838 93.5955   5
   7 -27   2 213.458 80.8350   5
   7 -27  -2 291.744 84.1283   5
   7 -28   2 728.812 100.547   5
   7 -28  -2 639.306 92.3442   5
   7 -29   2 184.846 74.0022   5
   7 -29  -2 200.538 73.0481   5
   8   0   2 7952.92 295.309   4
   8   0  -2 4896.15 244.225   4
   8  -1   2 17848.0 423.293   4
   8  -1  -2 18688.8 438.885   4
   8   1   2 18120.2 420.945   4
   8   1  -2 18600.5 431.714   4
   8   2   2 5697.99 248.070   4
   8   2  -2 4150.72 228.088   4
   8  -2  -2 3805.46 214.739   4
   8  -2   2 5484.38 254.706   4
   8   3  -2 1663.83 159.974   4
   8  -3  -2 1929.38 167.352   4
   8  -3   2 2087.42 171.792   4
   8  -4  -2 1326.28 157.233   4
   8  -4   2 1022.57 136.470   4
   8  -5  -2 838.323 146.761   4
   8  -5   2 500.867 115.732   4
   8  -5   2 343.693 244.510   1
   8  -6   2 2345.15 199.548   4
   8  -6  -2 2649.53 210.519   4
   8  -7   2 17495.0 442.039   4
   8  -7  -2 18762.7 444.880   4
   8  -8  -2 2135.11 189.868   4
   8  -8   2 2220.28 190.319   4
   8  -9   2 1520.76 355.989   1
   8  -9  -2 1937.08 180.733   4
   8  -9   2 1429.92 159.314   4
   8 -10   2 1419.78 346.574   1
   8 -10  -2 1702.62 174.675   4
   8 -10   2 1465.76 164.654   4
   8 -11  -2 3615.09 223.498   4
   8 -11   2 3325.41 217.598   4
   8 -11   2 2815.60 446.374   1
   8 -12   2 1976.18 184.462   4
   8 -12  -2 2280.37 195.039   4
   8 -13   2 6909.80 298.023   4
   8 -13  -2 6902.55 292.174   4
   8 -14  -2 689.101 135.897   4
   8 -14   2 764.032 142.979   4
   8 -15   2 3090.99 212.749   4
   8 -15  -2 2678.04 196.175   4
   8 -16  -2 349.417 116.394   4
   8 -16   2 591.393 134.862   4
   8 -17  -2 6868.88 285.624   4
   8 -17   2 7085.87 295.441   4
   8 -18   2 3874.40 225.878   4
   8 -18  -2 3716.16 216.756   4
   8 -19  -2 7623.02 287.382   4
   8 -19   2 7208.57 293.583   4
   8 -20  -2 99.2703 92.5816   4
   8 -20   2 41.5643 91.6078   4
   8 -21  -2 298.304 100.006   4
   8 -21   2 228.124 96.1814   4
   8 -22  -2 217.327 92.4327   4
   8 -22   2 194.308 88.9584   4
   8 -23  -2 1291.49 130.303   4
   8 -23   2 1178.40 125.671   4
   8 -24   2 159.971 78.7967   4
   8 -24  -2 176.987 80.2531   4
   8 -25  -2 1316.29 114.397   4
   8 -25   2 1280.17 118.534   4
   8 -26   2 128.699 68.3067   4
   9   0  -2 695.621 123.793   4
   9   0   2 649.666 114.060   4
   9   1   2 1686.90 150.042   4
   9  -1  -2 1821.86 162.184   4
   9   1  -2 1661.76 160.079   4
   9  -1   2 1850.88 161.805   4
   9   2  -2 2027.08 171.026   4
   9  -2  -2 2234.20 178.542   4
   9  -2   2 2285.70 172.436   4
   9  -3   2 3666.95 210.550   4
   9  -3  -2 3131.93 201.027   4
   9  -4  -2 939.042 140.110   4
   9  -4   2 1644.96 162.101   4
   9  -5   2 3528.50 213.169   4
   9  -5  -2 3488.11 213.368   4
   9  -6  -2 3194.00 207.022   4
   9  -6   2 2776.03 197.959   4
   9  -7  -2 1626.86 161.476   4
   9  -7   2 1839.44 172.232   4
   9  -8   2 1101.63 148.473   4
   9  -8  -2 926.492 137.046   4
   9  -9  -2 1857.21 170.726   4
   9  -9   2 1953.00 175.224   4
   9 -10   2 2952.03 206.212   4
   9 -10  -2 2547.67 193.599   4
   9 -11  -2 3505.57 219.524   4
   9 -11   2 3359.70 219.493   4
   9 -12  -2 157.591 115.920   4
   9 -12   2 145.206 108.930   4
   9 -13  -2 4504.45 241.644   4
   9 -13   2 4524.45 247.094   4
   9 -14   2 1626.89 166.851   4
   9 -14  -2 1860.05 170.191   4
   9 -15  -2 221.563 99.0216   4
   9 -15   2 295.022 108.405   4
   9 -16  -2 897.691 132.094   4
   9 -16   2 774.934 131.425   4
   9 -17  -2 572.571 117.026   4
   9 -17   2 647.448 125.888   4
   9 -18  -2 234.584 97.3175   4
   9 -18   2 247.745 96.0345   4
   9 -19  -2 108.453 89.8191   4
   9 -19   2 121.737 91.5942   4
   9 -20  -2 1182.18 129.958   4
   9 -20   2 1222.48 131.985   4
   9 -21  -2 1500.54 132.150   4
   9 -21   2 1344.91 131.205   4
   9 -22  -2 228.673 81.0083   4
   9 -22   2 252.407 82.9366   4
   9 -23  -2 265.802 76.0119   4
   9 -23   2 293.892 82.3407   4
  10   0  -2 924.666 124.278   4
  10  -1   2 936.160 121.508   4
  10  -1  -2 793.990 123.235   4
  10  -2   2 891.438 119.881   4
  10  -2  -2 687.435 122.404   4
  10  -3  -2 2456.72 178.151   4
  10  -3   2 2715.28 180.851   4
  10  -4  -2 4758.33 233.593   4
  10  -4   2 4393.13 222.446   4
  10  -5  -2 1081.52 136.335   4
  10  -5   2 1369.86 144.619   4
  10  -6  -2 2185.77 171.095   4
  10  -6   2 2052.42 165.030   4
  10  -7  -2 2615.99 188.392   4
  10  -7   2 2829.28 190.099   4
  10  -8  -2 6622.72 267.591   4
  10  -8   2 6017.18 259.002   4
  10  -9  -2 2956.77 204.991   4
  10  -9   2 3333.96 212.195   4
  10 -10  -2 14864.3 386.361   4
  10 -10   2 14054.3 381.934   4
  10 -11  -2 960.429 137.986   4
  10 -11   2 965.893 136.280   4
  10 -12  -2 2144.13 166.902   4
  10 -12   2 1837.81 162.164   4
  10 -13  -2 2914.83 185.762   4
  10 -13   2 3218.61 197.462   4
  10 -14   2 2899.49 187.960   4
  10 -14  -2 3067.00 185.471   4
  10 -15  -2 1937.78 153.505   4
  10 -15   2 2096.16 161.500   4
  10 -16  -2 1194.77 127.688   4
  10 -16   2 1048.10 123.764   4
  10 -17  -2 142.008 84.5702   4
  10 -17   2 78.1245 79.1527   4
  10 -18  -2 134.423 80.8089   4
  10 -18   2 31.4728 72.3918   4
  10 -19  -2 145.512 72.1475   4
  10 -19   2 163.223 74.9361   4
  11  -2  -2 424.331 91.6377   4
  11  -3  -2 680.500 103.351   4
  11  -3   2 708.504 98.1437   4
  11  -4  -2 300.125 87.4429   4
  11  -4   2 222.624 79.9467   4
  11  -5  -2 119.233 77.7799   4
  11  -5   2 101.750 76.1026   4
  11  -6  -2 495.818 97.4140   4
  11  -6   2 530.242 95.4740   4
  11  -7  -2 1315.26 122.881   4
  11  -7   2 1282.51 120.462   4
  11  -8  -2 448.043 92.6198   4
  11  -8   2 468.125 94.0439   4
  11  -9  -2 657.735 104.080   4
  11  -9   2 637.849 100.646   4
  11 -10  -2 2173.76 144.298   4
  11 -10   2 2248.27 148.465   4
  11 -11  -2 969.873 107.420   4
  11 -11   2 916.402 107.968   4
  11 -12  -2 392.333 88.2790   4
  11 -12   2 438.363 91.9753   4
  11 -13  -2 2652.07 148.894   4
  11 -13   2 2642.38 152.948   4
   0   0  -3 1115.04 184.365   2
   0  -1  -3 28069.7 681.940   2
   0   1  -3 28064.0 700.807   2
   0  -2  -3 1636.45 200.637   2
   0   2  -3 2082.55 258.328   2
   0   3  -3 171502. 1766.83   2
   0  -3  -3 170761. 1658.95   2
   0   4  -3 36370.7 843.639   2
   0  -4  -3 36925.1 772.669   2
   0   5  -3 99353.7 1428.57   2
   0   6  -3 79650.6 1337.11   2
   0   7  -3 542.477 206.341   2
   0  -8   3 33994.7 765.427   1
   0   8  -3 34470.5 921.933   2
   0  -9   3 23817.8 652.315   1
   0   9  -3 23950.4 807.661   2
   0 -10   3 174.989 130.286   1
   0  10  -3 116.217 166.345   2
   0 -11   3 133.878 126.025   1
   0  11  -3 298.409 184.522   2
   0  12  -3 10744.1 616.025   2
   0 -12   3 11225.9 480.635   1
   0  13  -3 39438.9 1187.34   2
   0 -13   3 40231.0 911.365   1
   0 -14  -3 4312.06 193.284   5
   0  14  -3 3814.22 415.666   2
   0 -14   3 4022.91 318.152   1
   0 -15  -3 1225.17 124.932   5
   0 -15   3 1225.26 114.510   5
   0  15  -3 891.897 255.144   2
   0 -15   3 1093.31 198.043   1
   0 -16  -3 3876.60 195.693   5
   0  16  -3 3511.30 424.352   2
   0 -16   3 3348.21 308.269   1
   0 -16   3 3825.26 189.368   5
   0 -17  -3 23267.4 448.342   5
   0 -17   3 24370.9 438.576   5
   0 -18  -3 224.654 108.699   5
   0 -18   3 166.996 98.9805   5
   0  18  -3 225.159 214.397   2
   0 -19  -3 7088.21 276.280   5
   0 -19   3 7411.24 267.024   5
   0 -20  -3 543.696 131.553   5
   0 -20   3 473.295 118.764   5
   0  20  -3 332.184 249.448   2
   0 -21   3 9478.42 312.950   5
   0 -21  -3 9436.18 322.866   5
   0 -22   3 227.896 114.477   5
   0 -22  -3 275.424 129.072   5
   0  22  -3 161.297 218.554   2
   0 -23   3 8469.02 309.579   5
   0 -23  -3 8801.36 325.601   5
   0 -24  -3 488.699 218.719   1
   0  24  -3 576.784 281.146   2
   0 -24  -3 732.718 149.830   5
   0 -24   3 437.295 120.836   5
   0 -25  -3-45.0660 187.762   1
   0 -25  -3 141.351 125.412   5
   0 -25   3 89.8437 107.509   5
   0 -26   3-30.0359 109.309   5
   0 -26  -3 21.6136 121.085   5
   0 -26  -3 255.713 205.692   1
   0 -27   3 1016.89 146.919   5
   0 -27  -3 991.674 156.390   5
   0 -28   3 1864.32 177.283   5
   0 -28  -3 1876.62 186.184   5
   0 -29   3 10035.5 340.372   5
   0 -29  -3 9824.10 345.955   5
   0 -30   3 855.343 137.253   5
   0 -30  -3 730.878 135.660   5
   0 -31   3 108.472 103.051   5
   0 -31  -3 175.488 111.669   5
   0 -32  -3 570.079 121.628   5
   0 -32   3 448.980 109.488   5
   0 -33   3 1432.59 139.334   5
   0 -33  -3 1503.59 145.875   5
   0 -34  -3 305.602 101.465   5
   0 -34   3 261.540 91.8625   5
   0 -35  -3 548.517 96.9301   5
   1   0  -3 39846.8 839.540   2
  -1   0  -3 41104.0 803.103   2
   1   1  -3 6113.64 348.053   2
   1  -1  -3 6396.38 358.448   2
  -1   1  -3 5897.42 330.858   2
   1   2  -3 5028.92 332.171   2
  -1  -2  -3 4712.71 273.240   2
   1  -2  -3 4818.85 316.350   2
  -1   2  -3 5193.11 324.928   2
  -1   3  -3 42446.8 883.283   2
   1   3  -3 41833.5 897.895   2
  -1  -3  -3 42446.9 770.686   2
   1  -3  -3 40885.0 861.968   2
   1   4  -3 33869.9 834.703   2
  -1   4  -3 34467.8 826.626   2
  -1  -4  -3 33719.6 688.722   2
   1  -4  -3 34925.8 804.431   2
   1   5  -3 8446.85 445.438   2
   1  -5   3 8140.92 418.230   1
  -1   5  -3 7736.40 426.745   2
   1  -6   3 98438.8 1374.58   1
   1   6  -3 98857.4 1476.81   2
  -1   6  -3 96859.1 1445.11   2
   1   7  -3 56111.9 1154.43   2
  -1   7  -3 55075.6 1139.56   2
   1  -7   3 57022.9 1061.37   1
   1   8  -3 1439.85 252.058   2
  -1   8  -3 1298.00 241.563   2
   1  -8   3 1546.92 226.760   1
   1   9  -3 34594.9 955.337   2
   1  -9   3 33939.0 843.017   1
  -1   9  -3 32576.9 963.068   2
   1  10  -3 17356.2 710.740   2
  -1  10  -3 15596.0 704.612   2
   1 -10   3 16622.5 610.798   1
  -1  11  -3 4973.74 439.772   2
   1  11  -3 4336.08 406.884   2
   1 -11   3 5145.87 369.983   1
   1 -12   3 29435.9 842.577   1
   1  12  -3 29291.2 967.570   2
  -1  12  -3 28686.6 1008.03   2
   1 -13   3 7138.16 442.584   1
   1  13  -3 7466.24 520.516   2
   1 -14  -3 5349.04 210.838   5
   1  14  -3 4868.41 446.530   2
   1 -14   3 5360.88 404.687   1
  -1 -15  -3 504.447 111.722   5
   1 -15  -3 388.919 94.5543   5
   1 -15   3 611.857 101.998   5
   1  15  -3 361.120 204.159   2
   1 -15   3 463.047 183.284   1
  -1 -16   3 8229.63 248.461   5
   1 -16   3 8219.82 261.107   5
   1 -16  -3 8524.85 271.131   5
   1 -16   3 8786.46 521.020   1
  -1 -16  -3 8144.94 276.178   5
   1 -17   3 1546.19 139.470   5
   1 -17  -3 1462.76 139.169   5
   1  17  -3 1245.12 285.315   2
  -1 -17   3 1482.04 128.668   5
  -1 -17  -3 1655.46 154.240   5
   1 -17   3 1227.80 239.412   1
  -1 -18  -3 4431.08 222.044   5
   1  18  -3 4139.78 472.242   2
  -1 -18   3 4475.96 203.574   5
   1 -18  -3 4513.42 214.698   5
   1 -18   3 4775.21 411.563   1
   1 -18   3 4675.19 215.396   5
  -1 -19  -3 2564.26 188.566   5
  -1 -19   3 2579.95 168.471   5
   1 -19   3 2926.94 184.373   5
   1 -19  -3 2604.64 179.750   5
   1  19  -3 2282.06 366.667   2
  -1  19  -3 2211.18 399.704   2
   1 -19   3 2656.12 331.889   1
  -1 -20   3 8341.40 273.674   5
   1 -20   3 8616.55 299.264   5
  -1 -20  -3 8371.27 298.548   5
   1 -20  -3 8667.55 302.735   5
  -1  20  -3 7578.49 682.390   2
   1  20  -3 7376.12 644.377   2
  -1 -21   3 2920.46 179.199   5
   1 -21   3 3019.35 198.522   5
  -1  21  -3 2751.32 466.734   2
  -1 -21  -3 3059.28 207.565   5
   1  21  -3 2366.79 402.163   2
   1 -21  -3 2902.23 201.930   5
  -1 -22  -3 6388.10 274.896   5
   1  22  -3 5142.31 574.391   2
   1 -22   3 6806.97 279.968   5
  -1 -22   3 6543.72 252.182   5
  -1  22  -3 5815.72 641.240   2
   1 -22  -3 6796.83 286.379   5
   1 -22  -3 6265.24 560.868   1
   1 -23  -3 1785.71 202.714   5
  -1  23  -3 1216.24 372.437   2
   1 -23  -3 1248.54 296.864   1
   1  23  -3 929.436 304.301   2
   1 -23   3 1409.24 163.573   5
  -1 -23  -3 1558.78 167.983   5
  -1 -23   3 1354.81 146.155   5
   1 -24   3 7063.14 298.371   5
   1 -24  -3 7549.03 309.792   5
  -1 -24   3 6618.72 265.305   5
  -1  24  -3 6627.36 718.776   2
   1 -24  -3 6371.40 580.869   1
  -1 -24  -3 6831.80 289.118   5
   1 -25  -3 1339.78 299.802   1
   1 -25  -3 1590.41 180.745   5
  -1  25  -3 1395.43 386.276   2
   1  25  -3 1399.62 385.461   2
   1 -25   3 1429.26 175.117   5
  -1 -25  -3 1671.15 173.970   5
  -1 -25   3 1353.29 147.877   5
  -1 -26   3 2056.83 172.679   5
   1 -26   3 2104.74 200.144   5
  -1 -26  -3 2031.78 184.895   5
   1 -26  -3 2212.21 206.888   5
  -1 -27   3 3408.40 199.602   5
   1 -27   3 3693.21 233.726   5
   1 -27  -3 3835.18 245.347   5
  -1 -27  -3 3662.93 224.049   5
  -1 -28  -3 112.453 107.163   5
   1 -28  -3 235.229 132.181   5
  -1 -28   3 178.787 94.5912   5
   1 -28   3 97.7578 117.152   5
   1 -29  -3 2317.70 197.104   5
   1 -29   3 2421.14 196.302   5
  -1 -29  -3 1988.41 173.244   5
  -1 -29   3 2023.34 158.108   5
   1 -30  -3 1347.08 167.649   5
  -1 -30   3 1160.83 127.519   5
   1 -30   3 1610.29 176.793   5
  -1 -30  -3 1320.23 145.250   5
  -1 -31  -3 1390.06 147.162   5
   1 -31   3 1712.56 169.517   5
   1 -31  -3 1565.64 171.776   5
  -1 -32  -3 112.362 87.7355   5
   1 -32  -3 294.187 115.267   5
   1 -33  -3 370.038 116.892   5
   1 -33   3 439.759 115.563   5
   1 -34   3 1262.95 132.471   5
   1 -34  -3 1144.04 134.718   5
   1 -35  -3 156.170 88.8318   5
   1 -35   3 163.345 83.0058   5
  -2   0  -3 6075.61 311.689   2
   2   0  -3 6541.86 364.901   2
  -2   1  -3 2884.28 236.803   2
   2   1  -3 3074.39 270.500   2
  -2  -1  -3 2947.18 220.760   2
   2  -1  -3 3339.68 274.108   2
  -2  -2  -3 6331.85 289.824   2
   2   2  -3 7038.83 381.627   2
   2  -2  -3 6689.66 366.662   2
  -2   2  -3 6324.66 349.949   2
  -2   3  -3 417.541 149.148   2
   2   3  -3 444.777 160.096   2
  -2  -3  -3 258.555 91.0208   2
  -2  -4  -3 7235.26 286.391   2
  -2   4  -3 8089.91 424.521   2
   2  -4   3 8349.32 448.093   1
   2  -5   3 2582.85 281.139   1
  -2   5  -3 2240.95 261.117   2
   2   6  -3 23698.6 736.216   2
  -2   6  -3 21750.2 724.900   2
   2  -6   3 22160.5 709.596   1
   2   7  -3 2275.14 272.392   2
  -2   7  -3 1919.51 260.662   2
   2  -7   3 2079.86 268.591   1
  -2   8  -3 25334.7 835.151   2
   2  -8   3 26292.5 794.282   1
   2   8  -3 27737.4 840.366   2
   2   9  -3 17171.1 686.670   2
   2  -9   3 15948.6 638.237   1
   2  10  -3 84957.6 1525.10   2
   2 -10   3 80130.5 1415.39   1
   2  11  -3 28926.6 924.025   2
   2 -11   3 28876.1 871.827   1
   2  12  -3 1404.39 249.515   2
   2 -12   3 1368.17 241.863   1
   2  13  -3 1611.12 265.142   2
   2 -13  -3 1670.26 131.627   5
   2 -13   3 1850.06 271.672   1
   2  14  -3 1457.56 265.262   2
   2 -14  -3 1609.90 133.642   5
   2 -14   3 1625.55 130.280   5
   2 -14   3 1707.69 267.003   1
   2 -15  -3 642.245 106.864   5
   2 -15   3 716.935 207.018   1
   2 -15   3 623.921 99.4401   5
   2  15  -3 577.745 201.856   2
  -2 -15  -3 700.529 121.573   5
   2  16  -3 4655.36 448.772   2
   2 -16  -3 4905.74 214.564   5
  -2 -16  -3 4706.20 218.310   5
   2 -16   3 5040.31 433.531   1
   2 -16   3 4888.00 210.520   5
   2 -17  -3 7053.64 259.182   5
   2  17  -3 7218.52 553.861   2
   2 -17   3 7259.22 537.529   1
  -2 -17  -3 7011.93 262.116   5
   2 -17   3 7361.48 257.430   5
  -2 -18  -3 763.075 124.291   5
   2 -18   3 809.073 239.083   1
   2 -18  -3 787.879 128.397   5
   2  18  -3 531.945 220.795   2
   2 -18   3 973.008 131.035   5
   2 -19   3 1743.05 156.509   5
   2 -19   3 1431.75 292.378   1
  -2 -19  -3 1673.81 161.230   5
   2 -19  -3 1772.26 165.286   5
   2  19  -3 1409.84 302.241   2
   2 -20   3 7964.89 601.968   1
   2 -20   3 8463.97 299.856   5
  -2 -20  -3 7779.62 284.392   5
   2 -20  -3 8193.38 296.970   5
   2 -20  -3 7590.26 590.021   1
   2 -21   3 158.626 187.005   1
  -2 -21  -3 195.873 113.114   5
   2 -21  -3 191.294 118.258   5
   2 -21   3 218.116 111.078   5
   2 -21  -3 214.173 214.544   1
   2  21  -3-37.2899 198.823   2
   2 -22  -3 4824.84 247.770   5
   2 -22   3 4951.79 246.315   5
  -2 -22  -3 4558.51 231.009   5
   2 -22  -3 4616.23 489.217   1
   2 -23  -3 4218.03 241.106   5
   2  23  -3 3044.99 452.081   2
   2 -23   3 4288.61 238.143   5
  -2 -23  -3 4036.45 221.021   5
  -2  23  -3 4023.38 576.528   2
   2 -23  -3 4249.01 491.409   1
   2 -24  -3 1758.21 182.484   5
   2 -24   3 1567.89 173.356   5
   2 -24  -3 1686.89 331.680   1
   2  24  -3 1090.77 308.993   2
  -2  24  -3 1225.39 369.959   2
  -2 -24  -3 1565.93 158.272   5
   2 -25  -3 1628.32 181.365   5
  -2 -25  -3 1414.33 152.896   5
   2 -25   3 1562.49 177.622   5
   2 -25  -3 1491.26 323.755   1
  -2  25  -3 1552.99 433.077   2
   2  25  -3 1308.84 347.749   2
   2 -26  -3 6162.86 289.733   5
   2 -26   3 6073.64 289.356   5
   2 -27  -3 381.322 142.876   5
   2 -27   3 257.314 131.710   5
   2 -28   3 1562.31 178.825   5
   2 -28  -3 1744.94 189.762   5
   2 -29  -3 3802.97 239.609   5
   2 -29   3 3917.97 238.573   5
   2 -30  -3 1296.22 169.144   5
   2 -30   3 1561.54 173.885   5
   2 -31   3 528.156 134.676   5
   2 -31  -3 424.553 132.113   5
   2 -32  -3 1167.79 152.608   5
   2 -32   3 1305.70 152.399   5
   2 -33  -3 239.611 108.703   5
   2 -33   3 11.5694 103.948   5
   2 -34   3 41.6274 91.1430   5
   2 -34  -3 108.240 97.1344   5
  -3   0  -3 142.993 100.309   2
   3   0  -3 71.9875 119.435   2
  -3   1  -3 4038.96 267.086   2
  -3  -1  -3 3739.56 222.003   2
   3   1  -3 4636.31 332.698   2
   3  -1  -3 4426.14 319.630   2
  -3  -2  -3 1532.44 137.693   2
   3   2  -3 2101.12 236.881   2
  -3   2  -3 1863.71 209.119   2
   3  -3   3 2953.95 310.608   1
   3   3  -3 3021.15 280.288   2
  -3   3  -3 2785.97 255.117   2
   3  -4   3 942.858 222.631   1
  -3   4  -3 793.149 169.662   2
   3   4  -3 865.682 181.702   2
   3   5  -3 2317.54 264.270   2
  -3   5  -3 2082.09 260.118   2
   3  -5   3 2714.68 305.579   1
   3   6  -3 15130.9 616.506   2
  -3   6  -3 14524.7 637.365   2
   3  -7   3 38117.6 1006.21   1
   3   7  -3 40171.0 998.976   2
   3   8  -3 9724.53 525.118   2
   3  -8   3 11897.3 598.686   1
   3   9  -3 48358.3 1151.35   2
   3  -9   3 45461.2 1127.61   1
   3  10  -3 8254.85 509.681   2
   3 -10   3 8846.77 536.520   1
   3  11  -3 23806.4 848.630   2
   3 -11   3 24034.8 860.025   1
   3  12  -3 2147.81 299.326   2
   3 -12   3 2470.23 329.161   1
   3 -12  -3 2033.89 148.342   5
   3 -12  -3 1913.84 146.680   4
   3 -13   3 29651.7 468.533   5
   3 -13  -3 31391.0 485.808   5
   3 -13  -3 32219.8 483.481   4
   3 -13   3 34259.0 1074.04   1
   3  13  -3 33205.8 1044.65   2
   3  14  -3 7607.82 527.882   2
   3 -14  -3 7178.31 250.543   5
   3 -14  -3 6680.58 241.088   4
   3 -14   3 7520.57 534.284   1
   3 -14   3 6687.94 233.523   5
   3  15  -3 8911.20 585.671   2
   3 -15  -3 9262.31 282.717   5
   3 -15   3 9699.64 616.889   1
   3 -15   3 9013.04 275.506   5
   3 -16  -3 7346.22 260.008   5
   3  16  -3 7096.12 539.883   2
   3 -16  -3 7291.10 244.515   4
   3 -16   3 6938.95 251.408   5
   3 -16   3 7324.68 548.927   1
   3 -16  -3 7847.20 556.851   1
   3 -17  -3 1775.46 146.157   4
   3  17  -3 2064.39 320.351   2
   3 -17   3 1975.57 161.696   5
   3 -17  -3 2392.66 174.619   5
   3 -17   3 2337.10 341.298   1
   3 -17  -3 2516.14 356.132   1
   3 -18  -3 636.280 248.301   1
   3 -18  -3 577.710 127.233   5
   3 -18   3 621.794 241.564   1
   3 -18   3 617.607 124.499   5
   3  18  -3 459.252 211.768   2
   3 -19  -3 9750.87 319.792   5
   3 -19   3 9435.65 309.813   5
   3 -19   3 9444.53 674.015   1
   3 -19  -3 10067.0 670.690   1
   3 -20  -3 3989.64 225.205   5
   3  20  -3 2991.87 398.616   2
   3 -20   3 3705.06 213.602   5
   3 -20   3 4006.24 473.248   1
   3 -20  -3 3995.61 450.782   1
   3 -21  -3 1062.65 151.280   5
   3 -21   3 1000.21 144.025   5
   3 -21  -3 920.152 281.132   1
   3  21  -3 1092.94 270.851   2
   3 -21   3 603.839 234.078   1
   3 -22  -3 1153.01 161.952   5
   3 -22   3 1067.79 148.928   5
   3 -22  -3 1288.90 320.026   1
   3 -22   3 908.275 287.648   1
   3  22  -3 1041.50 281.299   2
   3 -23  -3 2633.14 404.841   1
   3 -23  -3 2208.72 193.753   5
   3 -23   3 2288.37 194.899   5
   3 -23   3 2259.91 387.361   1
   3 -24   3 3470.59 232.952   5
   3 -24  -3 3172.38 223.656   5
   3 -24  -3 3372.59 459.875   1
   3 -25  -3 3028.31 221.461   5
   3 -25   3 2768.71 212.065   5
   3 -26  -3 1921.84 196.168   5
   3 -26   3 2052.16 194.018   5
   3 -27  -3 7832.53 321.520   5
   3 -27   3 7531.89 313.594   5
   3 -28   3 370.310 131.760   5
   3 -28  -3 366.869 142.482   5
   3 -29  -3 763.424 147.549   5
   3 -29   3 687.758 144.866   5
   3 -30   3 346.685 126.679   5
   3 -30  -3 462.361 143.614   5
   3 -31  -3 5659.57 259.748   5
   3 -31   3 5773.53 262.305   5
   3 -32  -3 630.810 124.397   5
   3 -32   3 641.908 124.997   5
   3 -33   3 5359.50 238.282   5
   3 -33  -3 4926.84 227.645   5
   3 -34  -3 2564.32 166.850   5
   3 -34   3 2781.98 174.895   5
   4   0  -3 10674.3 379.684   1
   4  -1  -3 7036.80 328.380   1
   4   2  -3 7036.40 426.476   2
   4  -2  -3 6781.33 342.598   1
   4   3  -3 2913.02 289.885   2
   4  -3  -3 2514.68 227.788   1
   4  -3   3 2360.23 308.871   1
  -4   3  -3 2333.19 234.309   2
   4  -4   3 721.227 223.079   1
  -4   4  -3 586.016 155.259   2
   4   4  -3 816.184 190.371   2
   4  -5   3 1103.87 246.293   1
  -4   5  -3 921.550 190.112   2
   4   5  -3 1041.28 199.787   2
   4  -6  -3 8222.71 247.324   4
   4   6  -3 8317.46 484.931   2
   4  -6   3 8494.73 545.846   1
   4  -7   3 41084.2 540.322   3
   4   7  -3 41791.6 1053.30   2
   4  -7  -3 41844.7 537.362   4
   4  -7  -3 39320.3 958.402   1
   4  -7   3 41345.5 1141.47   1
   4  -8  -3 3847.85 339.978   1
   4  -8   3 3462.96 172.312   3
   4   8  -3 3403.59 328.988   2
   4  -8  -3 3761.48 181.821   4
   4  -8   3 3644.31 390.034   1
   4  -9   3 13982.5 335.516   3
   4   9  -3 14263.1 642.130   2
   4  -9  -3 13706.6 325.913   4
   4  -9   3 14547.9 703.390   1
   4  -9  -3 14247.7 623.292   1
   4 -10  -3 11210.1 291.985   5
   4  10  -3 10844.6 575.292   2
   4 -10  -3 10722.6 301.948   4
   4 -10   3 10576.3 612.338   1
   4 -10   3 9382.68 253.132   5
   4 -10  -3 11380.8 586.873   1
   4 -10   3 10523.8 297.541   3
   4 -11  -3 774.024 115.863   5
   4 -11   3 834.942 111.132   3
   4 -11  -3 841.166 113.398   4
   4 -11  -3 830.158 203.110   1
   4 -11   3 777.529 104.350   5
   4  11  -3 1083.46 218.977   2
   4 -11   3 935.181 251.764   1
   4 -12  -3 4137.04 198.775   5
   4 -12   3 3680.12 178.437   5
   4 -12  -3 3610.63 189.500   4
   4 -12   3 4588.03 443.357   1
   4 -12   3 4118.38 200.078   3
   4 -12  -3 4432.57 413.316   1
   4  12  -3 4985.41 417.500   2
   4 -13  -3 13329.8 336.282   5
   4  13  -3 13522.6 668.051   2
   4 -13   3 12598.3 312.564   5
   4 -13   3 12560.8 332.955   3
   4 -13   3 13520.6 731.939   1
   4 -13  -3 13418.9 340.183   4
   4 -13  -3 14538.5 713.840   1
   4 -14  -3 9870.66 293.136   5
   4 -14   3 9150.28 290.342   3
   4 -14  -3 9466.92 298.880   4
   4  14  -3 9739.55 586.008   2
   4 -14   3 9976.81 649.340   1
   4 -14  -3 10942.6 649.544   1
   4 -14   3 9416.97 277.593   5
   4 -15  -3 5524.69 227.694   4
   4 -15  -3 5289.17 226.814   5
   4  15  -3 5043.56 436.195   2
   4 -15   3 4731.15 212.289   5
   4 -15   3 4772.67 469.216   1
   4 -16  -3 983.936 133.752   5
   4 -16   3 1003.95 291.573   1
   4 -16   3 799.073 121.794   5
   4 -16  -3 953.173 267.358   1
   4 -16  -3 947.891 129.618   4
   4  16  -3 769.690 215.502   2
   4 -17  -3 7882.78 281.574   5
   4 -17   3 7727.69 276.214   5
   4  17  -3 6872.67 522.561   2
   4 -17  -3 8726.20 624.552   1
   4 -17   3 8088.17 624.470   1
   4 -17  -3 7190.74 271.640   4
   4 -18  -3 3489.35 208.234   5
   4 -18   3 3621.69 202.075   5
   4 -18  -3 3685.26 197.298   4
   4 -18   3 3498.98 430.147   1
   4 -18  -3 3774.91 451.245   1
   4  18  -3 2955.11 359.288   2
   4 -19  -3 606.112 113.037   4
   4 -19   3 557.937 111.039   4
   4 -19   3 674.989 251.243   1
   4 -19  -3 680.183 132.338   5
   4 -19  -3 842.560 289.666   1
   4 -19   3 651.086 122.649   5
   4 -20  -3 3762.78 221.277   5
   4 -20   3 3647.38 213.385   5
   4 -20   3 3335.47 449.579   1
   4 -20   3 3127.44 200.498   4
   4 -20  -3 3936.31 472.867   1
   4 -21   3 867.736 138.275   5
   4 -21  -3 887.972 142.609   5
   4 -21  -3 1114.08 298.828   1
   4 -21   3 688.682 269.497   1
   4 -21   3 786.585 122.556   4
   4 -22   3 1375.54 345.894   1
   4 -22  -3 1390.90 158.355   5
   4 -22   3 1341.32 150.362   5
   4 -22  -3 1440.74 320.064   1
   4 -23  -3 1628.45 171.685   5
   4 -23   3 1583.02 167.393   5
   4 -24   3 1916.51 176.368   5
   4 -24  -3 1733.81 177.725   5
   4 -25  -3 4307.41 244.334   5
   4 -25   3 4260.53 240.709   5
   4 -26  -3 2731.22 203.614   5
   4 -26   3 2777.70 204.856   5
   4 -27   3 3325.42 217.284   5
   4 -27  -3 3523.43 226.710   5
   4 -28  -3 794.751 143.581   5
   4 -28   3 520.076 126.390   5
   4 -29  -3 405.042 125.190   5
   4 -29   3 411.700 126.607   5
   4 -30  -3 4097.04 223.473   5
   4 -30   3 4512.07 229.183   5
   4 -31  -3 1750.83 154.946   5
   4 -31   3 1669.03 155.062   5
   4 -32   3 897.121 124.623   5
   4 -32  -3 849.663 122.218   5
   4 -33   3 4039.37 197.185   5
   4 -33  -3 3805.32 189.518   5
   5   0   3 7757.77 253.685   3
   5   0  -3 7877.77 247.399   4
   5  -1   3 2661.91 171.339   3
   5   1   3 2597.17 171.568   3
   5  -1  -3 1499.02 133.260   4
   5   1  -3 1742.26 140.077   4
   5  -2   3 7713.38 261.050   3
   5   2   3 7416.88 246.531   3
   5   2  -3 7115.64 240.150   4
   5  -2  -3 7576.64 242.329   4
   5  -3   3 3917.28 206.096   3
   5   3   3 4624.93 207.464   3
   5  -3   3 4655.23 476.159   1
   5  -3  -3 2722.74 164.600   4
   5  -3  -3 2315.74 235.646   1
   5   3  -3 2771.89 159.686   4
   5   4   3 35481.7 516.449   3
   5  -4   3 33336.9 1093.38   1
   5   4  -3 33249.8 479.718   4
   5  -4  -3 34543.2 506.942   4
   5  -4  -3 33288.8 849.234   1
   5  -4   3 34879.6 547.628   3
   5  -5   3 9333.42 606.152   1
   5   5   3 10285.7 283.755   3
   5   5  -3 9576.89 535.552   2
   5  -5  -3 8818.92 471.188   1
   5  -5   3 9869.23 300.560   3
   5  -5  -3 9838.81 286.459   4
   5   6   3 2727.75 159.835   3
   5  -6   3 2612.27 171.389   3
   5   6  -3 2317.15 286.211   2
   5  -6  -3 2557.02 160.509   4
   5  -6   3 2672.44 359.522   1
   5  -6  -3 2322.34 265.365   1
   5   7   3 2812.90 169.935   3
   5  -7  -3 2986.05 310.913   1
   5  -7   3 2895.90 371.466   1
   5  -7   3 2674.18 177.257   3
   5  -7  -3 2991.25 172.206   4
   5   7  -3 3052.53 324.116   2
   5  -8  -3 2384.38 287.187   1
   5   8   3 2480.58 165.071   3
   5  -8   3 2371.05 172.790   3
   5  -8   3 2362.16 132.206   5
   5  -8  -3 2306.89 158.292   4
   5   8  -3 2252.06 283.806   2
   5  -8   3 2485.08 346.644   1
   5   9   3 1823.96 152.681   3
   5   9  -3 1985.87 290.555   2
   5  -9  -3 1616.64 148.109   4
   5  -9   3 1789.77 130.452   5
   5  -9  -3 1713.26 273.585   1
   5  -9   3 1898.48 158.117   3
   5  -9   3 2062.34 342.264   1
   5 -10  -3 17176.7 755.709   1
   5  10  -3 16816.0 729.536   2
   5 -10  -3 16606.8 390.908   4
   5 -10   3 17188.6 837.953   1
   5 -10   3 16544.4 403.981   3
   5 -11   3 3988.59 179.643   5
   5 -11  -3 4445.90 203.029   5
   5  11  -3 4202.07 380.120   2
   5 -11  -3 3994.73 215.520   4
   5 -11   3 3970.44 215.691   3
   5 -11  -3 4448.23 423.274   1
   5 -11   3 4106.02 444.279   1
   5 -12   3 434.918 235.873   1
   5 -12   3 545.990 115.747   3
   5 -12   3 532.912 95.3114   5
   5  12  -3 531.173 176.826   2
   5 -12  -3 560.627 222.497   1
   5 -12  -3 404.644 101.291   4
   5 -12  -3 513.006 107.944   5
   5 -13  -3 288.063 101.009   5
   5 -13   3 322.884 91.4127   5
   5 -13  -3 424.303 206.591   1
   5  13  -3 390.692 171.236   2
   5 -13  -3 135.965 95.3661   4
   5 -13   3 332.387 230.683   1
   5 -14  -3 1829.79 149.614   5
   5 -14   3 1583.94 139.747   5
   5 -14   3 1538.62 313.738   1
   5 -14  -3 1961.06 318.421   1
   5 -14  -3 1738.73 149.637   4
   5 -15  -3 1530.44 150.765   5
   5 -15   3 1528.61 141.042   5
   5 -15  -3 1681.29 313.127   1
   5 -15  -3 1556.14 153.006   4
   5 -15   3 1525.83 342.870   1
   5 -16  -3 18787.0 423.942   5
   5 -16  -3 21861.6 991.692   1
   5 -16   3 18717.1 405.111   5
   5 -16  -3 20816.2 446.340   4
   5 -16   3 19298.1 986.735   1
   5 -16   3 20937.2 468.580   4
   5 -17   3 7529.63 270.884   5
   5 -17  -3 7610.09 282.926   5
   5 -17  -3 7798.75 614.126   1
   5 -17  -3 8008.54 293.754   4
   5 -17   3 7512.59 647.942   1
   5 -17   3 8076.90 301.177   4
   5 -18   3 4310.79 217.724   5
   5 -18  -3 4564.71 226.211   5
   5 -18  -3 4286.44 228.420   4
   5 -18   3 4612.55 515.726   1
   5 -18   3 4213.29 227.461   4
   5 -18  -3 4682.28 494.370   1
   5 -19  -3 1608.10 163.524   5
   5 -19   3 1586.95 155.753   5
   5 -19  -3 1651.36 319.161   1
   5 -19  -3 1393.35 154.746   4
   5 -19   3 1623.74 157.625   4
   5 -19   3 1451.74 327.346   1
   5 -20  -3 410.785 119.981   5
   5 -20   3 232.271 107.613   5
   5 -20  -3 276.876 190.532   1
   5 -20   3 253.206 105.793   4
   5 -20  -3 347.545 110.610   4
   5 -20   3 134.665 205.133   1
   5 -21  -3 1473.32 164.600   5
   5 -21   3 1509.31 160.023   5
   5 -21  -3 1444.22 146.550   4
   5 -21   3 1559.69 160.454   4
   5 -22  -3 8412.88 310.118   5
   5 -22   3 8329.97 304.946   5
   5 -22   3 7652.61 292.838   4
   5 -23  -3 864.053 141.167   5
   5 -23   3 614.802 114.911   4
   5 -23   3 649.787 129.940   5
   5 -24  -3 6571.19 280.746   5
   5 -24   3 6848.54 279.731   5
   5 -25  -3 1623.91 166.381   5
   5 -25   3 1545.76 163.976   5
   5 -26   3 1350.13 150.474   5
   5 -26  -3 1282.42 151.547   5
   5 -27  -3 810.071 131.166   5
   5 -27   3 713.412 127.004   5
   5 -28   3 2158.74 171.450   5
   5 -28  -3 2200.30 170.494   5
   5 -29   3 147.431 97.8382   5
   5 -29  -3 95.2822 96.5968   5
   5 -30   3 1228.74 132.631   5
   5 -30  -3 1194.73 129.733   5
   5 -31   3 392.911 97.5839   5
   5 -31  -3 544.227 102.384   5
   5 -32   3 494.481 97.9831   5
   5 -32  -3 567.912 100.178   5
   6   0  -3 18707.8 407.149   4
   6   0   3 20881.1 453.918   3
   6   1   3 16738.5 405.078   3
   6  -1   3 17058.1 416.079   3
   6   1  -3 15942.6 371.352   4
   6  -1  -3 16893.4 380.937   4
   6  -2  -3 2238.84 166.938   4
   6  -2   3 3460.34 217.206   3
   6   2  -3 2283.38 171.320   4
   6   2   3 3343.17 199.413   3
   6   3   3 1780.51 160.072   3
   6   3  -3 1637.08 145.754   4
   6  -3  -3 1540.43 143.174   4
   6  -3   3 1790.08 165.051   3
   6  -4   3 3041.90 414.846   1
   6   4  -3 3194.03 176.064   4
   6   4   3 3519.85 204.043   3
   6  -4  -3 2977.40 182.578   4
   6  -4   3 3365.38 209.973   3
   6  -5   3 3679.08 444.834   1
   6   5   3 3893.76 217.041   3
   6   5  -3 3699.45 188.262   4
   6  -5  -3 3283.17 194.806   4
   6  -5   3 4069.44 226.212   3
   6  -6   3 10020.1 684.467   1
   6  -6   3 10938.2 349.388   3
   6  -6  -3 10128.3 312.168   4
   6   6   3 10511.7 335.919   3
   6  -7   3 6571.43 565.362   1
   6  -7  -3 7018.76 468.364   1
   6  -7  -3 7276.32 268.460   4
   6   7   3 6805.87 276.526   3
   6  -7   3 6881.20 291.097   3
   6  -8  -3 1832.49 269.601   1
   6   8   3 1756.79 159.184   3
   6  -8   3 1924.20 342.153   1
   6  -8   3 2024.87 183.937   3
   6  -8  -3 1632.99 149.532   4
   6  -9   3 254.258 232.930   1
   6  -9  -3 124.694 147.154   1
   6   9   3 189.173 102.517   3
   6  -9  -3 101.152 98.8813   4
   6 -10  -3 3044.87 343.297   1
   6 -10  -3 2914.41 189.072   4
   6 -10   3 2655.51 392.955   1
   6 -11   3 857.128 271.778   1
   6 -11  -3 1334.91 144.593   4
   6 -11  -3 1065.94 228.814   1
   6 -12   3 1919.14 141.222   5
   6 -12   3 1949.49 360.050   1
   6 -12  -3 2283.25 171.193   4
   6 -12  -3 1910.04 291.393   1
   6 -12   3 2224.17 184.566   4
   6 -13   3 908.465 303.543   1
   6 -13  -3 912.921 242.523   1
   6 -13   3 958.567 140.649   4
   6 -13  -3 1074.26 135.358   4
   6 -13   3 1003.69 118.586   5
   6 -14   3 144.587 104.537   4
   6 -14   3 154.739 209.079   1
   6 -14   3 181.835 86.7604   5
   6 -14  -3-58.2960 176.679   1
   6 -14  -3-98.2801 119.801   4
   6 -15  -3 312.508 100.576   5
   6 -15   3 426.306 123.657   4
   6 -15   3 460.707 103.140   5
   6 -15  -3 133.420 191.455   1
   6 -15  -3 372.712 110.426   4
   6 -15   3 616.578 266.620   1
   6 -16   3 2172.31 157.053   5
   6 -16   3 2114.04 388.340   1
   6 -16  -3 2035.29 161.934   5
   6 -16  -3 2104.01 346.304   1
   6 -16  -3 2362.32 183.507   4
   6 -16   3 2347.83 192.310   4
   6 -17  -3 4835.78 509.601   1
   6 -17   3 5512.14 232.106   5
   6 -17  -3 5458.47 257.440   4
   6 -17  -3 4983.50 228.521   5
   6 -17   3 5506.76 267.816   4
   6 -17   3 5061.92 567.143   1
   6 -18  -3 1382.43 147.284   5
   6 -18   3 1456.53 139.017   5
   6 -18  -3 1480.72 160.602   4
   6 -18  -3 1620.42 372.558   1
   6 -18   3 1662.48 168.719   4
   6 -19   3 6593.58 256.794   5
   6 -19   3 6844.58 295.216   4
   6 -19  -3 6206.63 257.531   5
   6 -19  -3 7026.43 288.370   4
   6 -20  -3 8425.88 294.309   5
   6 -20   3 8964.54 299.537   5
   6 -20  -3 9218.24 319.366   4
   6 -20   3 9049.58 326.511   4
   6 -21  -3 1029.05 135.018   5
   6 -21   3 1072.56 131.156   5
   6 -21  -3 1045.59 135.258   4
   6 -21   3 978.594 135.776   4
   6 -22   3 1165.14 137.864   5
   6 -22  -3 957.772 132.864   5
   6 -22  -3 1070.17 129.030   4
   6 -22   3 1175.73 138.684   4
   6 -23   3 4553.11 221.592   5
   6 -23  -3 4395.79 220.052   5
   6 -23  -3 4104.21 206.993   4
   6 -23   3 3951.07 216.935   4
   6 -24   3 1162.29 139.778   5
   6 -24   3 1078.95 125.206   4
   6 -24  -3 1056.03 133.085   5
   6 -25  -3 268.794 100.043   5
   6 -25   3 383.402 108.931   5
   6 -26  -3 184.010 94.6147   5
   6 -26   3 244.378 99.4431   5
   6 -27   3 1748.31 145.388   5
   6 -27  -3 1953.30 155.647   5
   6 -28   3 1610.86 137.179   5
   6 -28  -3 1627.33 141.136   5
   6 -29   3 480.814 94.7152   5
   6 -29  -3 642.122 104.074   5
   6 -30  -3 132.189 77.6776   5
   6 -30   3 53.8034 74.4598   5
   7   0  -3 17781.9 422.708   4
   7   0   3 18925.2 421.504   4
   7   1  -3 15507.3 395.486   4
   7  -1  -3 15833.2 399.782   4
   7   1   3 16398.8 392.858   4
   7  -1   3 15906.9 395.197   4
   7   2  -3 5240.68 239.035   4
   7  -2  -3 6038.74 258.167   4
   7   2   3 6743.59 262.235   4
   7  -2   3 7701.91 292.937   4
   7   3  -3 10934.2 329.967   4
   7   3   3 11817.2 330.356   4
   7  -3   3 10706.6 340.611   4
   7  -3  -3 11795.4 345.447   4
   7   4  -3 4732.46 232.145   4
   7  -4  -3 4496.39 229.273   4
   7  -4   3 4599.82 240.037   4
   7  -5  -3 228.280 107.969   4
   7  -5   3 480.914 119.750   4
   7  -6   3 1986.75 380.430   1
   7  -6  -3 1915.85 168.779   4
   7  -6   3 1952.78 176.248   4
   7  -7  -3 7427.63 288.580   4
   7  -7   3 7120.10 290.510   4
   7  -8   3 2688.46 437.697   1
   7  -8  -3 3043.18 199.122   4
   7  -8   3 3032.21 204.487   4
   7  -9   3 71.6784 99.5473   4
   7  -9   3 203.143 239.171   1
   7  -9  -3 102.929 108.353   4
   7 -10   3 1095.43 308.647   1
   7 -10   3 899.875 138.380   4
   7 -10  -3 749.048 130.252   4
   7 -11   3 3985.36 506.619   1
   7 -11  -3 4140.59 230.961   4
   7 -11   3 4093.46 235.751   4
   7 -12   3 576.556 277.883   1
   7 -12   3 772.801 141.486   4
   7 -12  -3 595.613 127.192   4
   7 -13  -3 1287.67 154.118   4
   7 -13   3 1492.94 167.553   4
   7 -13   3 1305.45 316.329   1
   7 -14  -3 391.167 242.803   1
   7 -14   3 267.734 116.434   4
   7 -14  -3 221.880 113.472   4
   7 -15  -3 2211.01 187.718   4
   7 -15   3 2304.99 191.958   4
   7 -16  -3 2272.27 187.324   4
   7 -16   3 2433.94 195.781   4
   7 -17  -3 3921.91 226.415   4
   7 -17   3 4015.00 235.283   4
   7 -18   3 3529.91 226.040   4
   7 -18  -3 3327.05 214.919   4
   7 -19  -3 7532.69 291.068   4
   7 -19   3 7480.23 298.797   4
   7 -19   3 7113.46 250.088   5
   7 -20   3 670.140 111.295   5
   7 -20  -3 853.434 131.643   4
   7 -20   3 608.232 120.585   4
   7 -21   3 3130.86 180.232   5
   7 -21  -3 2965.15 184.897   4
   7 -21   3 2872.76 193.864   4
   7 -22   3 192.358 89.9660   5
   7 -22  -3 407.086 112.749   4
   7 -22   3 263.260 99.9076   4
   7 -23   3 1447.46 131.359   5
   7 -23  -3 1520.61 138.978   4
   7 -23   3 1158.16 127.397   4
   7 -24   3 803.300 108.690   5
   7 -24   3 597.475 101.516   4
   7 -25   3 899.889 110.738   5
   7 -25   3 646.690 99.5909   4
   7 -26   3 313.372 87.1849   5
   7 -27   3 567.420 91.7368   5
   7 -28   3 111.038 71.2295   5
   8   0  -3 20133.1 461.369   4
   8   0   3 17288.5 423.598   4
   8   1  -3 3505.09 220.399   4
   8  -1  -3 3188.39 220.360   4
   8   1   3 5508.00 255.338   4
   8  -1   3 4882.81 251.076   4
   8  -2  -3 4513.43 246.263   4
   8   2   3 4021.26 218.600   4
   8  -2   3 4271.57 241.904   4
   8   2  -3 3810.65 223.197   4
   8   3  -3 9483.12 323.668   4
   8  -3  -3 9177.37 325.330   4
   8  -4   3 2876.37 204.069   4
   8  -4  -3 2768.86 199.813   4
   8  -5   3 736.655 134.372   4
   8  -5  -3 374.660 119.081   4
   8  -6  -3 1255.00 148.862   4
   8  -6   3 1041.83 143.718   4
   8  -7   3 641.182 136.648   4
   8  -7  -3 550.818 135.365   4
   8  -8  -3 3705.60 218.246   4
   8  -8   3 3245.61 221.411   4
   8  -9  -3 475.866 121.611   4
   8  -9   3 700.182 137.954   4
   8 -10   3 338.885 122.755   4
   8 -10  -3 363.789 116.732   4
   8 -11   3 450.492 125.413   4
   8 -11  -3 465.535 125.153   4
   8 -12  -3 1518.10 169.000   4
   8 -12   3 1505.37 170.006   4
   8 -13  -3 3559.38 222.039   4
   8 -13   3 3730.88 230.416   4
   8 -14  -3 2541.15 192.764   4
   8 -14   3 2628.76 200.003   4
   8 -15   3 874.878 142.493   4
   8 -15  -3 746.309 138.106   4
   8 -16  -3 3917.11 227.014   4
   8 -16   3 3674.44 225.127   4
   8 -17   3 754.988 136.886   4
   8 -17  -3 682.874 129.811   4
   8 -18  -3 1751.82 160.271   4
   8 -18   3 1556.67 160.336   4
   8 -19  -3 349.590 110.075   4
   8 -19   3 466.900 119.185   4
   8 -20  -3 3060.51 184.773   4
   8 -20   3 2698.05 186.087   4
   8 -21   3 1071.30 129.537   4
   8 -21  -3 1273.31 131.677   4
   8 -22  -3 537.080 105.484   4
   8 -22   3 285.613 87.1670   4
   8 -23   3 522.571 98.5742   4
   8 -23  -3 755.246 104.699   4
   8 -24   3 1386.73 122.561   4
   8 -24  -3 1533.52 122.158   4
   8 -25   3 140.663 69.5502   4
   9   0   3 1009.12 130.042   4
   9   0  -3 878.983 132.395   4
   9   1   3 643.519 114.510   4
   9  -1   3 1003.49 132.312   4
   9   1  -3 554.803 121.501   4
   9  -1  -3 706.637 134.053   4
   9  -2  -3 3958.92 225.947   4
   9  -2   3 4154.28 217.800   4
   9  -3  -3 7688.80 301.465   4
   9  -3   3 7838.45 292.541   4
   9  -4  -3 5758.41 265.593   4
   9  -4   3 5909.58 261.223   4
   9  -5  -3 1711.25 170.263   4
   9  -5   3 1971.05 172.240   4
   9  -6   3 1660.87 165.276   4
   9  -6  -3 1575.76 162.008   4
   9  -7  -3 940.394 144.669   4
   9  -7   3 1051.07 144.304   4
   9  -8  -3 2574.14 199.214   4
   9  -8   3 2510.40 190.639   4
   9  -9  -3 3460.68 216.636   4
   9  -9   3 3382.03 213.729   4
   9 -10  -3 1586.00 167.695   4
   9 -10   3 1360.97 155.705   4
   9 -11  -3 726.646 139.338   4
   9 -11   3 721.162 131.741   4
   9 -12  -3 756.392 136.476   4
   9 -12   3 736.400 131.944   4
   9 -13  -3 1036.32 146.011   4
   9 -13   3 1043.37 149.434   4
   9 -14  -3 5577.18 255.928   4
   9 -14   3 5388.35 257.815   4
   9 -15  -3 2169.60 173.950   4
   9 -15   3 1912.74 169.677   4
   9 -16  -3 479.945 111.552   4
   9 -16   3 244.401 101.411   4
   9 -17  -3 1818.63 152.125   4
   9 -17   3 1434.57 143.437   4
   9 -18  -3 519.532 106.536   4
   9 -18   3 265.910 93.0891   4
   9 -19  -3 232.844 92.8818   4
   9 -19   3 128.223 84.6305   4
   9 -20  -3 298.342 88.5925   4
   9 -20   3 217.729 84.8317   4
   9 -21  -3 1079.33 111.958   4
   9 -21   3 937.337 109.995   4
  -9  21   3 1069.15 161.148   3
   9 -22  -3 275.310 77.7301   4
   9 -22   3 103.628 73.4596   4
  10   0  -3 343.193 100.967   4
  10  -1  -3 743.403 122.877   4
  10  -1   3 701.013 107.860   4
  10  -2  -3 2278.09 173.882   4
  10  -2   3 2235.22 158.694   4
  10  -3  -3 2303.20 171.428   4
  10  -3   3 2328.61 164.210   4
  10  -4  -3 2739.79 184.948   4
  10  -4   3 2762.92 182.377   4
  10  -5  -3 3123.77 191.680   4
  10  -5   3 2877.83 182.236   4
  10  -6   3 1653.73 150.889   4
  10  -6  -3 1428.59 146.926   4
  10  -7  -3 2874.56 185.583   4
  10  -7   3 2657.73 178.009   4
  10  -8  -3 637.541 120.067   4
  10  -8   3 536.798 108.809   4
  10  -9  -3 1935.02 160.570   4
  10  -9   3 1590.47 148.186   4
  10 -10  -3 1878.94 161.526   4
  10 -10   3 1491.36 147.792   4
  10 -11  -3 3831.57 199.140   4
  10 -11   3 3508.73 199.682   4
  10 -12  -3 959.148 127.299   4
  10 -12   3 841.222 122.519   4
  10 -13  -3 3304.93 184.994   4
  10 -13   3 3054.86 184.051   4
  10 -14  -3 1363.80 131.203   4
  10 -14   3 1218.92 129.571   4
  10 -15  -3 360.922 93.1274   4
  10 -15   3 228.149 87.0075   4
  10 -16  -3 562.592 98.1371   4
  10 -16   3 354.036 89.1103   4
  10 -17  -3 312.677 83.9423   4
  10 -17   3 97.9394 76.2683   4
  11  -2  -3 508.354 89.1913   4
  11  -3  -3 542.338 93.8318   4
  11  -4  -3 1463.49 123.881   4
  11  -4   3 1237.48 112.820   4
  11  -5  -3 575.651 97.4462   4
  11  -5   3 546.896 93.2317   4
  11  -6  -3 1634.22 129.180   4
  11  -6   3 1353.53 118.943   4
  11  -7   3 761.259 106.348   4
  11  -7  -3 914.826 106.517   4
  11  -8  -3 236.137 82.4839   4
  11  -8   3 224.443 75.6978   4
  11  -9   3 773.717 100.351   4
  11  -9  -3 823.797 102.556   4
  11 -10   3 1967.52 135.767   4
  11 -10  -3 2107.90 136.084   4
   0   0  -4 11301.5 521.892   2
   0   1  -4 3206.11 304.827   2
   0  -1  -4 2540.61 271.494   2
   0   2  -4 44743.8 1038.89   2
   0  -2  -4 44859.0 1005.49   2
   0  -3  -4 12334.0 546.491   2
   0   3  -4 11230.2 551.085   2
   0   4  -4 4283.98 373.171   2
   0  -4  -4 3898.70 325.065   2
   0   5  -4 1503.81 299.242   2
   0   6  -4 63650.4 1368.18   2
   0   7  -4 56269.4 1313.59   2
   0   8  -4 4652.07 408.882   2
   0   9  -4 724.513 224.977   2
   0  10  -4 14261.5 710.784   2
   0 -10  -4 13852.8 326.577   5
   0  11  -4 44415.7 1266.00   2
   0 -11  -4 41416.2 572.156   5
   0  12  -4 17782.5 834.662   2
   0 -12  -4 16653.5 377.394   5
   0  13  -4 12828.1 749.306   2
   0 -13  -4 11619.4 320.424   5
   0  14  -4 24109.7 1030.84   2
   0 -14  -4 23482.2 458.173   5
   0 -15  -4 228.408 113.756   5
   0  15  -4 28.5636 181.248   2
   0 -16  -4 281.194 116.704   5
   0  16  -4 134.900 200.723   2
   0 -17   4 9041.32 302.212   5
   0  17  -4 7571.71 646.209   2
   0 -17  -4 7875.44 294.338   5
   0 -18   4 5827.57 249.029   5
   0 -18  -4 5408.82 256.462   5
   0 -19  -4 520.956 131.554   5
   0  19  -4 408.416 249.194   2
   0 -19   4 520.737 125.675   5
   0 -20   4 1786.59 170.997   5
   0 -20  -4 1777.54 177.155   5
   0 -21  -4 44.5421 120.045   5
   0 -21   4 53.4424 110.246   5
   0  21  -4 112.010 236.763   2
   0 -22  -4 550.071 145.970   5
   0 -22   4 379.791 123.004   5
   0  22  -4 326.180 233.637   2
   0 -23  -4 292.112 131.030   5
   0 -23   4 311.783 119.078   5
   0  23  -4 171.062 234.315   2
   0 -24  -4 175.101 138.911   5
   0 -24   4 114.593 111.070   5
   0 -25  -4 150.386 128.836   5
   0 -25   4 93.8916 109.071   5
   0 -26   4 1280.97 154.678   5
   0 -26  -4 1174.20 161.530   5
   0 -27   4 615.416 127.830   5
   0 -27  -4 475.397 128.174   5
   0 -28   4 243.228 123.200   5
   0 -28  -4 262.617 117.614   5
   0 -29  -4 82.1005 109.133   5
   0 -29   4 35.3862 97.3018   5
   0 -30  -4 347.153 118.006   5
   0 -30   4 370.592 112.813   5
   0 -31   4 918.627 126.220   5
   0 -31  -4 768.716 126.720   5
   0 -32  -4 1229.48 137.574   5
   0 -32   4 1275.08 130.760   5
   0 -33  -4 200.182 94.2682   5
   0 -33   4 140.114 86.3945   5
   0 -34  -4 179.812 80.4504   5
  -1   0  -4 112118. 1563.02   2
   1   0  -4 105717. 1582.25   2
  -1   1  -4 57450.4 1140.32   2
  -1  -1  -4 58510.5 1114.60   2
   1   1  -4 56302.0 1170.58   2
   1  -1  -4 58495.0 1176.28   2
   1   2  -4 9425.70 516.031   2
  -1  -2  -4 8817.30 438.970   2
   1  -2  -4 9294.62 490.089   2
   1   3  -4 90480.4 1514.56   2
  -1  -3  -4 93702.3 1388.61   2
   1  -3  -4 90569.4 1470.46   2
  -1   3  -4 91306.6 1501.85   2
  -1  -4  -4 52020.2 1030.03   2
  -1   4  -4 48360.2 1119.38   2
   1   4  -4 48833.7 1140.53   2
   1  -4  -4 48246.0 1078.03   2
  -1   5  -4 13510.1 618.039   2
   1   5  -4 14344.6 647.282   2
  -1   6  -4 20017.2 770.828   2
   1   6  -4 21067.9 792.816   2
  -1   7  -4 46016.0 1196.27   2
   1   7  -4 47444.2 1207.30   2
  -1   8  -4 5997.91 485.307   2
   1   8  -4 5955.39 479.122   2
   1   9  -4 8053.80 562.823   2
  -1   9  -4 8338.53 551.743   2
   1  10  -4 3563.06 395.620   2
  -1  10  -4 3449.77 398.909   2
   1 -10  -4 3643.58 181.171   5
   1  11  -4 16402.1 801.142   2
  -1 -11  -4 14985.2 363.843   5
  -1  11  -4 16131.3 794.007   2
   1 -11  -4 15551.3 355.009   5
   1  12  -4 23065.3 936.783   2
   1 -12   4 21771.2 838.481   1
  -1  12  -4 23214.8 964.495   2
   1 -12  -4 21656.9 420.976   5
  -1 -12  -4 21492.8 435.889   5
  -1  13  -4 11023.1 696.178   2
   1  13  -4 10378.5 659.122   2
   1 -13   4 10412.0 585.873   1
   1 -13  -4 10194.2 302.160   5
  -1  13   4 8636.50 313.291   3
  -1 -13  -4 10348.5 319.198   5
   1  14  -4 6370.91 545.279   2
   1 -14   4 6282.71 478.980   1
  -1  14  -4 6799.02 575.747   2
  -1 -14  -4 5829.78 254.904   5
  -1  14   4 5073.52 243.361   3
   1 -14  -4 5881.61 241.164   5
  -1 -15  -4 10657.6 334.169   5
   1  15  -4 10693.1 710.616   2
   1 -15   4 10889.3 609.593   1
  -1  15  -4 10842.2 725.533   2
   1 -15  -4 10763.7 317.815   5
   1 -16   4 422.959 201.709   1
  -1 -16   4 323.793 100.694   5
   1 -16   4 571.091 128.362   5
  -1  16  -4 544.568 272.119   2
   1  16  -4 374.569 232.616   2
   1 -16  -4 388.256 117.712   5
  -1 -16  -4 292.919 122.176   5
   1  17  -4 5671.77 565.087   2
  -1 -17  -4 5969.72 269.605   5
  -1 -17   4 6620.34 251.290   5
   1 -17  -4 6393.40 263.617   5
  -1  17  -4 6077.04 596.834   2
   1 -17   4 6711.61 263.267   5
   1 -18  -4 4303.46 233.381   5
   1  18  -4 3830.19 485.324   2
  -1 -18  -4 3978.92 232.351   5
  -1  18  -4 4098.03 530.056   2
   1 -18   4 4819.07 241.327   5
  -1 -18   4 4624.60 218.789   5
   1 -19  -4 9584.65 330.147   5
   1  19  -4 8383.62 692.493   2
   1 -19   4 10558.0 338.417   5
  -1 -19  -4 9485.89 338.539   5
  -1  19  -4 8374.13 756.339   2
  -1 -19   4 10302.1 317.819   5
   1 -20  -4 2859.48 207.397   5
   1  20  -4 2370.85 415.374   2
  -1 -20   4 3038.34 194.649   5
   1 -20   4 3014.25 206.617   5
  -1  20  -4 2173.43 436.096   2
  -1 -20  -4 3148.78 220.092   5
   1 -21  -4 5720.71 272.908   5
   1  21  -4 4168.83 530.484   2
  -1 -21   4 5640.55 247.909   5
   1 -21   4 5939.06 273.982   5
  -1  21  -4 4668.09 574.045   2
  -1 -21  -4 5473.52 271.085   5
   1 -22  -4 805.075 151.525   5
  -1 -22   4 683.068 126.734   5
   1 -22   4 827.805 145.798   5
  -1  22  -4 670.507 308.142   2
   1  22  -4 668.476 274.711   2
  -1 -22  -4 1186.94 167.001   5
  -1 -23  -4 5329.31 269.687   5
   1  23  -4 4455.12 568.291   2
   1 -23  -4 5315.75 271.810   5
  -1 -23   4 5124.99 242.625   5
   1 -23   4 5371.85 273.747   5
  -1  23  -4 4346.23 591.687   2
   1 -24   4 677.107 149.501   5
  -1 -24  -4 798.365 147.630   5
  -1 -24   4 575.663 118.117   5
   1 -24  -4 764.561 154.162   5
  -1 -25  -4 1394.16 165.150   5
  -1 -25   4 1321.81 145.493   5
   1 -25   4 1345.62 168.658   5
   1 -25  -4 1701.05 188.877   5
  -1 -26   4 993.624 131.280   5
   1 -26  -4 913.760 153.294   5
   1 -26   4 998.463 151.634   5
  -1 -26  -4 972.570 146.743   5
  -1 -27   4 3434.70 199.607   5
   1 -27   4 4046.90 237.794   5
  -1 -27  -4 3314.02 214.222   5
   1 -27  -4 4042.13 244.693   5
  -1 -28   4 3983.36 205.437   5
   1 -28   4 4644.94 254.338   5
  -1 -28  -4 4170.42 229.674   5
   1 -28  -4 4372.87 253.574   5
  -1 -29   4 499.005 105.622   5
   1 -29   4 592.504 133.651   5
  -1 -29  -4 517.559 114.717   5
   1 -29  -4 472.932 136.466   5
   1 -30  -4 2551.63 197.360   5
  -1 -30  -4 2181.28 168.297   5
   1 -30   4 2800.03 197.169   5
  -1 -31  -4 749.572 119.055   5
   1 -31  -4 717.191 132.633   5
   1 -31   4 803.404 130.196   5
   1 -32   4 620.057 121.239   5
   1 -32  -4 394.360 108.807   5
  -1 -32  -4 453.829 101.834   5
   1 -33   4 1454.38 139.395   5
   1 -33  -4 1254.62 132.512   5
   1 -34  -4 200.675 89.6182   5
   1 -34   4 94.7221 82.0173   5
  -2   0  -4 9818.23 460.472   2
   2   0  -4 10287.0 532.890   2
  -2  -1  -4 16858.9 584.960   2
   2   1  -4 17909.8 684.760   2
  -2   1  -4 17153.1 631.620   2
   2  -1  -4 17329.4 682.480   2
   2   2  -4 6728.83 441.348   2
   2  -2  -4 6677.44 428.947   2
  -2  -2  -4 6468.84 356.626   2
  -2   2  -4 6357.78 406.276   2
  -2   3  -4 9972.93 516.837   2
   2   3  -4 10412.6 541.936   2
  -2  -3  -4 9388.59 436.001   2
   2  -3  -4 10497.9 533.100   2
  -2   4  -4 3380.81 327.393   2
   2   4  -4 3662.64 352.496   2
  -2  -4  -4 2733.34 233.534   2
  -2   5  -4 7334.06 468.920   2
   2   5  -4 7956.65 496.205   2
  -2   6  -4 9600.93 546.137   2
   2   6  -4 11438.2 597.180   2
   2   7  -4 2968.60 345.618   2
  -2   7  -4 3220.27 354.760   2
   2   8  -4 18010.3 779.904   2
  -2   8  -4 17135.3 761.991   2
   2  -9   4 31354.6 1000.08   1
   2   9  -4 32232.5 1064.20   2
   2  -9  -4 30733.8 482.397   5
  -2   9  -4 31703.8 1045.32   2
  -2  10  -4 1762.16 307.134   2
   2 -10  -4 1853.30 152.641   5
   2 -10   4 1658.97 289.198   1
   2  10  -4 1587.60 302.649   2
   2 -10  -4 1794.97 144.037   4
  -2  10   4 2133.87 191.277   3
   2 -11   4 8806.67 555.415   1
   2  11  -4 8947.83 593.164   2
  -2  11  -4 8273.18 589.499   2
   2 -11  -4 7212.70 241.532   4
  -2  11   4 7641.84 324.163   3
  -2 -11  -4 8414.53 288.025   5
   2 -11  -4 8422.06 271.984   5
   2 -12   4 7276.86 525.621   1
   2  12  -4 7452.49 551.310   2
  -2 -12  -4 6709.18 262.866   5
   2 -12  -4 6740.07 238.344   4
  -2  12   4 6518.39 301.633   3
  -2  12  -4 6441.69 546.980   2
   2 -12  -4 7251.06 257.322   5
   2 -13  -4 1769.08 146.699   5
   2  13  -4 1825.71 319.822   2
  -2  13  -4 1671.78 333.588   2
   2 -13  -4 1356.37 128.963   4
  -2  13   4 1521.46 182.116   3
   2 -13   4 1753.38 286.386   1
  -2 -13  -4 1699.23 157.691   5
  -2 -14  -4 169.179 117.080   5
   2 -14  -4 240.175 112.701   5
   2 -14   4 215.670 196.187   1
  -2  14  -4 255.597 206.217   2
   2  14  -4 287.894 200.582   2
   2 -14  -4 253.477 94.9742   4
  -2  14   4 387.688 140.019   3
   2 -15  -4 2463.23 176.789   5
   2 -15   4 2211.19 345.445   1
   2  15  -4 2754.59 386.557   2
  -2 -15  -4 2517.27 183.416   5
   2 -15  -4 2028.22 146.199   4
  -2  15   4 1967.02 194.000   3
  -2  15  -4 2195.00 374.941   2
   2 -16   4 189.512 201.484   1
   2 -16  -4 234.008 110.421   5
  -2 -16   4 133.909 90.4549   5
   2 -16   4 207.593 107.512   5
  -2 -16  -4 149.673 115.528   5
  -2  16  -4 125.557 230.009   2
   2  16  -4 135.979 193.888   2
   2 -17  -4 2207.02 178.226   5
   2  17  -4 2169.07 365.020   2
   2 -17   4 2416.33 361.818   1
   2 -17   4 2362.96 181.707   5
  -2  17  -4 1925.40 377.894   2
  -2 -17   4 2301.63 154.129   5
  -2 -17  -4 2275.93 185.643   5
   2 -18  -4 940.652 147.598   5
  -2 -18  -4 821.608 143.796   5
   2 -18   4 1026.04 148.059   5
  -2  18  -4 745.595 281.505   2
   2  18  -4 802.331 260.320   2
   2 -18   4 1009.33 283.928   1
   2 -19  -4 1354.22 163.776   5
   2 -19   4 1347.89 161.113   5
   2 -19   4 1420.39 306.068   1
  -2  19  -4 1286.76 343.812   2
   2  19  -4 888.134 277.758   2
  -2 -19  -4 1270.78 157.518   5
   2 -20  -4 3483.50 223.529   5
   2  20  -4 2467.71 403.556   2
   2 -20   4 3639.27 228.288   5
  -2 -20  -4 3417.41 223.292   5
  -2  20  -4 3086.80 485.174   2
   2 -21  -4 3719.55 232.054   5
   2  21  -4 2995.45 444.998   2
   2 -21   4 3751.57 232.861   5
  -2 -21  -4 3588.38 222.997   5
  -2  21  -4 3075.97 505.483   2
   2 -21  -4 3281.58 446.275   1
   2 -22  -4 1727.58 191.418   5
   2 -22  -4 1529.21 338.319   1
   2 -22   4 1572.33 176.386   5
  -2  22  -4 1177.97 328.115   2
   2  22  -4 1203.54 316.541   2
  -2 -22  -4 1543.83 168.455   5
  -2 -23  -4 146.099 109.396   5
   2 -23  -4 235.750 206.131   1
   2 -23  -4 235.258 134.680   5
  -2  23  -4 473.908 303.047   2
   2  23  -4 305.380 224.183   2
   2 -23   4 145.625 120.052   5
  -2 -24  -4 379.168 114.477   5
   2 -24  -4 502.097 143.749   5
   2 -24   4 413.201 134.969   5
   2 -25   4 577.155 140.152   5
   2 -25  -4 762.589 155.635   5
  -2 -25  -4 630.155 118.882   5
  -2 -26  -4 451.579 117.770   5
   2 -26  -4 443.530 138.116   5
   2 -26   4 419.015 130.602   5
   2 -27  -4 1034.57 157.738   5
   2 -27   4 1076.13 156.567   5
   2 -28   4 600.249 137.808   5
   2 -28  -4 582.782 142.133   5
   2 -29   4 1873.79 180.284   5
   2 -29  -4 1806.16 181.412   5
   2 -30  -4 545.515 126.423   5
   2 -30   4 463.802 123.611   5
   2 -31  -4 54.3754 103.728   5
   2 -31   4 2.92136 100.250   5
   2 -32   4 108.694 104.629   5
   2 -32  -4-4.07684 97.7214   5
   2 -33  -4 206.217 94.6444   5
   2 -33   4 196.859 95.9363   5
   3   0  -4 90617.6 1569.84   2
  -3   0  -4 85155.4 1267.23   2
  -3   1  -4 16264.1 596.788   2
   3   1  -4 17705.4 718.459   2
   3  -1  -4 18368.8 724.862   2
  -3   2  -4 7284.91 423.304   2
   3   2  -4 8019.88 490.684   2
  -3   3  -4 15807.6 635.139   2
   3  -3   4 15382.0 327.804   3
   3   3  -4 14370.5 652.473   2
   3  -3  -4 14159.9 327.395   4
  -3   4  -4 10111.0 529.175   2
   3  -4   4 9929.92 268.610   3
   3   4  -4 10389.2 560.201   2
   3  -4  -4 11080.5 292.423   4
  -3   5  -4 30118.7 914.840   2
   3  -5   4 28928.7 446.392   3
   3  -5  -4 27726.4 459.511   4
   3   5  -4 30191.9 959.038   2
  -3   6  -4 46203.8 1182.64   2
   3  -6   4 45860.9 564.917   3
   3  -6  -4 46833.1 596.733   4
   3  -7   4 8933.12 259.238   3
   3   7  -4 9672.21 578.253   2
   3  -7  -4 8942.56 276.127   4
   3  -7  -4 8626.71 268.273   5
  -3   7  -4 9884.95 581.431   2
   3  -8   4 18558.7 811.950   1
   3   8   4 17676.3 348.412   3
   3   8  -4 19425.6 801.565   2
   3  -8   4 17581.3 359.787   3
   3  -8  -4 18100.2 382.981   4
  -3   8  -4 18166.4 794.536   2
   3  -8  -4 18032.6 375.471   5
   3  -9   4 13869.5 716.736   1
   3  -9   4 12525.3 309.124   3
   3  -9  -4 12792.5 326.920   4
  -3   9  -4 12764.4 688.556   2
   3   9   4 12465.6 295.781   3
   3   9  -4 13124.2 679.607   2
   3  -9  -4 12343.9 317.546   5
   3 -10   4 26901.4 994.531   1
   3 -10   4 26441.6 448.655   3
   3  10   4 26492.5 428.802   3
   3  10  -4 27506.4 977.822   2
  -3  10  -4 25485.0 980.073   2
   3 -10  -4 26515.7 459.398   4
   3 -10  -4 26258.2 461.871   5
   3 -11   4 5170.27 472.792   1
   3 -11   4 5033.03 207.163   3
  -3  11  -4 5014.00 474.143   2
   3  11  -4 5233.18 466.653   2
   3 -11  -4 5489.17 236.038   4
   3 -11  -4 5308.13 228.771   5
   3 -12   4 12379.1 317.399   3
   3  12  -4 13262.7 718.944   2
   3 -12  -4 12964.5 337.777   5
   3 -12   4 12846.2 719.588   1
   3 -12  -4 12631.8 328.810   4
  -3  12  -4 11946.0 723.746   2
   3 -13   4 5449.78 220.438   3
   3 -13  -4 6407.66 252.024   5
   3 -13   4 6096.26 512.686   1
   3 -13  -4 6496.20 248.304   4
  -3  13  -4 6170.68 548.673   2
   3  13  -4 6645.22 531.294   2
   3 -14  -4 5644.21 240.172   5
   3 -14  -4 5895.17 236.393   4
  -3  14   4 5140.96 306.648   3
   3 -14   4 5763.38 507.802   1
  -3  14  -4 4860.42 516.254   2
   3  14  -4 5907.79 520.410   2
   3 -14   4 5396.52 232.157   5
   3 -15  -4 2713.66 188.112   5
   3  15  -4 2860.07 391.773   2
   3 -15   4 2502.43 180.699   5
  -3  15  -4 2172.78 387.198   2
   3 -15  -4 2480.43 170.560   4
  -3  15   4 3085.25 251.185   3
   3 -15   4 2636.13 373.592   1
   3 -16  -4 9829.15 316.536   5
   3 -16   4 9702.08 685.776   1
   3  16  -4 8725.54 642.057   2
   3 -16   4 9379.17 307.676   5
  -3  16  -4 8460.60 710.539   2
   3 -16  -4 9093.04 289.927   4
  -3  16   4 8830.14 372.516   3
   3 -17  -4 6756.39 273.516   5
   3  17  -4 6103.67 556.862   2
   3 -17   4 6638.81 270.777   5
   3 -17  -4 6635.55 245.340   4
  -3  17   4 6443.90 319.608   3
  -3  17  -4 5901.76 599.944   2
   3 -17   4 6464.31 570.036   1
  -3  18  -4 4939.80 586.407   2
   3  18  -4 4268.07 477.424   2
   3 -18  -4 5600.52 258.227   5
   3 -18   4 5429.31 531.591   1
   3 -18   4 5352.52 249.440   5
   3 -18  -4 5303.42 517.312   1
   3 -19  -4 5689.18 262.686   5
   3  19  -4 4758.50 506.412   2
   3 -19   4 5683.88 261.966   5
  -3  19  -4 4421.23 571.866   2
   3 -19   4 5875.13 565.749   1
   3 -19  -4 5325.44 528.049   1
   3 -20  -4 1243.47 159.250   5
   3 -20   4 1331.23 161.943   5
   3 -20  -4 1276.67 299.579   1
  -3  20  -4 1164.52 342.064   2
   3 -20   4 1445.29 329.426   1
   3  20  -4 1103.09 293.823   2
   3 -21  -4 114.095 197.597   1
   3 -21   4-44.5276 119.373   5
  -3  21  -4-180.591 270.734   2
   3  21  -4 6.99304 191.955   2
   3 -21   4 7.34520 202.689   1
   3 -21  -4 66.0156 117.664   5
   3 -22  -4 1321.33 173.470   5
   3 -22   4 1158.47 158.296   5
  -3  22  -4 670.717 285.983   2
   3  22  -4 786.037 261.685   2
   3 -23  -4 5493.85 273.523   5
   3 -23   4 5975.97 284.163   5
   3 -24  -4 3587.33 230.699   5
   3 -24   4 3815.04 234.839   5
   3 -25   4 2320.77 194.690   5
   3 -25  -4 2255.60 197.171   5
   3 -26   4 2272.15 193.516   5
   3 -26  -4 2086.25 190.699   5
   3 -27   4 2003.39 181.998   5
   3 -27  -4 1819.97 178.678   5
   3 -28   4 2123.23 185.616   5
   3 -28  -4 1997.07 182.891   5
   3 -29   4 3758.37 224.462   5
   3 -29  -4 3182.27 210.999   5
   3 -30   4 4699.05 235.056   5
   3 -30  -4 4452.70 233.404   5
   3 -31  -4 221.969 106.003   5
   3 -31   4 160.024 100.746   5
   3 -32   4 2032.14 157.746   5
   3 -32  -4 1706.51 148.406   5
   4   0   4 6932.30 237.525   3
   4   0  -4 7641.19 248.313   4
   4   1   4 3535.02 176.472   3
   4  -1   4 3341.06 177.134   3
   4  -1  -4 3221.35 176.381   4
   4   1  -4 3176.90 172.938   4
   4   1  -4 3080.18 320.190   2
   4  -2  -4 5922.06 219.658   4
   4  -2   4 5254.79 214.487   3
   4   2   4 5255.62 205.494   3
   4   2  -4 5736.76 219.422   4
   4   2  -4 5210.50 405.584   2
   4  -3   4 1308.14 131.446   3
   4   3   4 1388.69 124.300   3
   4   3  -4 989.406 118.618   4
   4  -3  -4 1086.92 130.138   4
   4   3  -4 909.688 222.128   2
   4  -4   4 4220.14 200.257   3
   4   4   4 3896.00 179.211   3
   4   4  -4 3870.83 188.254   4
   4   4  -4 4145.37 387.774   2
   4  -4  -4 4445.44 203.614   4
   4  -5   4 5145.98 216.610   3
   4   5   4 5247.40 205.329   3
   4   5  -4 5322.79 210.651   4
   4  -5  -4 5950.39 232.496   4
   4   5  -4 5614.27 451.913   2
  -4   6  -4 4168.33 393.080   2
   4  -6   4 4216.84 203.544   3
   4   6   4 4257.94 185.390   3
   4  -6  -4 4688.30 206.728   5
   4   6  -4 4483.86 408.475   2
   4   6  -4 4151.25 184.689   4
   4  -6  -4 4813.07 216.780   4
  -4  -6   4 4437.31 251.289   3
   4  -7   4 2332.49 160.205   3
   4   7   4 2373.16 147.510   3
  -4   7  -4 2281.99 312.665   2
   4  -7   4 2758.78 380.706   1
   4   7  -4 2334.41 319.467   2
   4  -7  -4 2415.91 171.418   4
  -4  -7   4 2667.35 209.885   3
   4  -7  -4 2372.91 161.369   5
   4  -8   4 3553.99 191.542   3
   4   8   4 3197.14 175.772   3
   4   8  -4 3756.44 387.059   2
   4  -8  -4 3673.38 203.380   4
   4  -8   4 3637.65 431.073   1
  -4   8  -4 3475.40 384.393   2
   4  -8  -4 3519.55 198.411   5
   4  -9   4 4083.53 202.190   3
   4  -9   4 4020.13 454.532   1
   4   9   4 4094.01 193.626   3
   4   9  -4 4109.41 405.215   2
   4  -9  -4 3986.76 209.185   5
   4  -9  -4 4110.71 211.697   4
  -4   9  -4 3689.47 410.402   2
   4 -10   4 1522.67 141.552   3
   4  10   4 1555.56 132.659   3
  -4  10  -4 1421.46 297.247   2
   4  10  -4 1584.18 281.298   2
   4 -10   4 1492.50 309.271   1
   4 -10  -4 1454.09 151.752   4
   4 -10  -4 1621.69 153.398   5
   4 -11  -4 544.272 121.151   5
   4 -11   4 685.602 270.084   1
  -4  11  -4 435.436 231.908   2
   4 -11   4 416.812 99.6366   3
   4  11  -4 413.252 187.668   2
   4 -11  -4 610.275 123.890   4
   4 -12   4 2077.29 160.807   3
  -4  12  -4 1819.48 337.609   2
   4  12  -4 2072.92 325.610   2
   4 -12   4 2074.10 160.885   5
   4 -12  -4 2182.34 172.219   4
   4 -12  -4 2478.71 178.799   5
   4 -12   4 2631.06 386.572   1
   4 -13   4 6557.89 254.081   5
   4  13  -4 6567.15 533.159   2
   4 -13  -4 7039.62 267.518   4
   4 -13   4 6756.25 586.460   1
   4 -13  -4 6817.45 525.625   1
  -4  13  -4 6250.70 576.946   2
   4 -13  -4 6686.58 265.397   5
   4 -13   4 6203.14 254.712   3
   4 -14   4 3963.17 459.227   1
   4 -14   4 4131.49 210.676   5
   4 -14  -4 4733.23 233.746   4
   4  14  -4 4249.04 438.956   2
  -4  14  -4 3986.80 480.992   2
   4 -14  -4 4668.26 460.239   1
   4 -14   4 4109.08 214.870   3
   4 -14  -4 4398.01 223.855   5
   4 -15  -4 550.465 230.231   1
   4 -15  -4 383.710 118.944   5
   4 -15   4 408.027 115.344   5
  -4  15  -4 310.145 244.758   2
   4 -15   4 429.048 107.786   3
   4  15  -4 201.866 181.902   2
   4 -15  -4 523.847 123.366   4
   4 -15   4 430.539 244.435   1
   4 -16  -4 3788.73 209.099   4
   4 -16   4 3388.15 203.226   5
   4  16  -4 3190.79 398.749   2
   4 -16   4 3051.32 441.802   1
   4 -16  -4 3347.14 408.841   1
  -4  16  -4 2859.83 446.608   2
   4 -16  -4 3491.41 207.513   5
   4 -17  -4 1672.69 318.347   1
   4 -17   4 1603.87 159.073   5
  -4  17  -4 1349.43 336.083   2
   4 -17  -4 1521.62 154.746   4
  -4  17   4 1864.55 230.403   3
   4 -17   4 1420.15 328.832   1
   4  17  -4 1029.01 268.657   2
   4 -17  -4 1599.85 162.796   5
   4 -18   4 1160.70 154.109   5
   4 -18  -4 1196.99 302.991   1
   4 -18  -4 1337.99 147.004   4
  -4  18  -4 766.732 282.495   2
  -4  18   4 1403.10 207.607   3
   4 -18   4 1242.51 318.271   1
   4  18  -4 1057.70 279.062   2
   4 -18  -4 1236.43 157.808   5
   4 -19   4 6444.64 275.717   5
   4  19  -4 4842.56 501.146   2
   4 -19   4 6385.94 618.041   1
   4 -19  -4 6836.65 262.292   4
  -4  19  -4 5035.58 605.215   2
   4 -19  -4 6868.93 598.430   1
   4 -19  -4 6702.14 286.641   5
  -4  20  -4 2285.78 452.381   2
   4 -20   4 2681.05 200.917   5
   4 -20  -4 2630.97 400.060   1
   4 -20   4 2751.01 431.198   1
   4 -20  -4 2761.15 203.324   5
   4 -21  -4 575.619 134.658   5
   4 -21   4 442.059 125.732   5
   4 -21   4 308.917 99.1923   4
   4 -22   4 582.128 111.185   4
   4 -22  -4 835.389 144.422   5
   4 -22   4 775.343 135.227   5
   4 -23   4 5064.24 256.254   5
   4 -23  -4 5100.10 261.043   5
   4 -24   4 4088.52 232.958   5
   4 -24  -4 3885.56 231.272   5
   4 -25  -4 163.547 116.972   5
   4 -25   4 41.8864 116.802   5
   4 -26  -4 401.206 120.068   5
   4 -26   4 266.931 115.084   5
   4 -27  -4 1068.13 145.248   5
   4 -27   4 1030.32 143.481   5
   4 -28   4 896.288 141.217   5
   4 -28  -4 914.615 138.976   5
   4 -29  -4 500.714 119.731   5
   4 -29   4 607.496 119.402   5
   4 -30  -4 377.346 107.657   5
   4 -30   4 461.268 112.689   5
   4 -31   4 1019.99 126.237   5
   4 -31  -4 734.632 113.490   5
   5   0   4 2842.65 180.400   3
   5   0  -4 2350.88 168.617   4
   5  -1   4 5602.99 241.962   3
   5   1  -4 5329.27 222.386   4
   5  -1  -4 5240.24 226.554   4
   5  -2   4 15742.6 392.505   3
   5   2   4 15547.5 381.994   3
   5   2  -4 13133.5 335.901   4
   5  -2  -4 12266.6 340.134   4
   5   3   4 36365.3 564.683   3
   5   3  -4 36486.8 540.480   4
   5  -3  -4 36801.4 564.338   4
   5  -4   4 4887.21 244.962   3
   5   4   4 4746.10 227.992   3
   5  -4  -4 4574.24 237.432   4
   5  -5   4 14303.9 376.771   3
   5   5   4 13700.7 354.704   3
   5   5  -4 12928.5 325.554   4
   5  -5  -4 13903.7 355.039   4
   5   5  -4 14127.5 703.165   2
   5  -6   4 5742.18 254.437   3
   5   6   4 5697.67 237.655   3
   5  -6  -4 6532.33 260.932   4
   5   6  -4 5438.59 457.925   2
   5   6  -4 5107.24 218.806   4
   5  -6  -4 5323.06 406.199   1
   5  -7   4 11782.5 361.177   3
   5   7   4 11887.2 335.285   3
   5   7  -4 12896.0 685.041   2
   5  -7  -4 12863.6 342.909   4
   5   7  -4 11686.7 311.946   4
   5  -7  -4 11704.0 582.277   1
   5  -8   4 1030.66 144.421   3
   5   8   4 752.362 118.927   3
   5  -8  -4 683.948 211.865   1
   5  -8  -4 1038.53 149.457   4
   5   8  -4 748.335 226.328   2
   5  -9   4 10512.0 360.724   3
   5   9   4 10914.7 335.076   3
   5   9  -4 11775.2 680.608   2
   5  -9   4 11094.7 730.079   1
   5  -9  -4 12214.5 321.956   5
   5  -9   4 10285.0 287.140   5
   5  -9  -4 12055.6 339.500   4
   5  -9  -4 10952.4 610.965   1
   5  10   4 1889.68 159.417   3
   5 -10   4 1782.92 147.613   5
   5 -10  -4 2086.03 176.227   4
   5  10  -4 1351.14 270.669   2
   5 -10  -4 1701.58 290.130   1
   5 -10  -4 2088.60 169.694   5
   5 -10   4 1632.41 169.330   3
   5 -10   4 1830.18 353.670   1
   5 -11  -4 5319.63 235.054   5
   5 -11   4 4895.01 516.593   1
   5 -11   4 4583.01 252.450   3
   5 -11  -4 5435.46 243.084   4
   5  11  -4 4887.25 449.833   2
   5 -11  -4 4827.63 443.330   1
   5 -11   4 4626.91 207.333   5
   5 -12   4 4910.16 531.995   1
   5  12  -4 4644.42 450.864   2
   5 -12  -4 4760.04 237.234   4
   5 -12   4 4376.66 238.923   3
   5 -12  -4 4460.88 435.473   1
   5 -12   4 4234.37 205.810   5
   5 -12  -4 4621.74 224.854   5
   5 -13   4 13220.0 837.504   1
   5 -13   4 13115.9 342.694   5
   5  13  -4 13005.2 730.577   2
   5 -13  -4 14172.8 385.203   4
   5 -13   4 13487.8 389.305   3
   5 -13  -4 14702.4 784.903   1
   5 -13  -4 14609.6 372.949   5
   5 -14   4 2643.94 197.966   3
   5 -14   4 2550.86 176.457   5
   5  14  -4 2158.62 325.696   2
  -5  14  -4 2034.83 387.856   2
   5 -14  -4 3032.44 205.202   4
   5 -14  -4 2909.95 395.887   1
   5 -14  -4 2828.89 192.109   5
   5 -14   4 2289.92 404.099   1
   5 -15   4 2062.59 161.675   5
   5 -15  -4 2173.74 177.741   4
   5 -15   4 1734.28 354.711   1
  -5  15  -4 1547.71 360.656   2
   5 -15  -4 2077.11 348.116   1
   5 -15  -4 2115.51 170.680   5
   5 -16  -4 733.342 132.042   5
   5 -16  -4 1431.90 311.730   1
   5 -16   4 672.340 124.746   5
   5 -16   4 746.938 286.483   1
   5 -16  -4 872.155 139.299   4
  -5  16  -4 682.380 278.722   2
   5 -17   4 4734.03 229.414   5
   5 -17   4 4506.84 539.231   1
   5 -17  -4 5387.25 526.366   1
   5 -17  -4 5303.43 253.641   4
   5 -17  -4 4744.82 233.364   5
   5 -18  -4 236.487 110.735   5
   5 -18   4 193.315 107.079   5
   5 -18   4 510.999 262.313   1
  -5  18  -4-10.5813 236.306   2
   5 -18  -4 322.291 119.681   4
   5 -18  -4 189.669 202.606   1
   5 -19   4 2589.75 189.011   5
   5 -19  -4 2602.82 185.875   4
  -5  19   4 2550.44 248.848   3
   5 -19   4 2275.62 182.277   4
   5 -19  -4 2381.56 189.210   5
   5 -20   4 2149.95 182.868   5
   5 -20  -4 2086.86 168.964   4
   5 -20   4 1931.34 171.443   4
   5 -20  -4 1912.20 171.909   5
   5 -21   4 4427.56 232.240   5
   5 -21  -4 4210.83 226.713   5
   5 -21  -4 3753.24 213.065   4
   5 -21   4 3957.66 222.277   4
   5 -22  -4 375.412 117.747   5
   5 -22   4 322.186 114.182   5
   5 -22   4 262.948 97.9925   4
   5 -23   4 1356.98 154.699   5
   5 -23   4 1185.35 139.952   4
   5 -23  -4 1339.04 151.701   5
   5 -24   4 1006.05 139.801   5
   5 -24  -4 1039.02 143.386   5
   5 -25   4 2386.20 180.116   5
   5 -25  -4 2124.70 172.825   5
   5 -26  -4 416.076 111.688   5
   5 -26   4 395.911 110.962   5
   5 -27   4 1946.25 159.700   5
   5 -27  -4 1689.07 154.788   5
   5 -28  -4 497.761 110.706   5
   5 -28   4 476.163 107.277   5
   5 -29   4 2056.79 152.843   5
   5 -29  -4 1851.97 145.298   5
   5 -30  -4 177.451 85.9067   5
   5 -30   4 249.393 90.2070   5
   6   0   4 8559.49 321.385   3
   6   0  -4 8531.19 291.527   4
   6  -1   4 5296.55 264.813   3
   6   1   4 5593.19 265.767   3
   6   1  -4 5186.35 233.795   4
   6  -1  -4 5151.89 236.698   4
   6   2   4 2266.52 186.719   3
   6   2  -4 2390.02 176.300   4
   6  -2  -4 2548.92 185.719   4
   6  -2   4 2459.07 193.295   3
   6   3   4 882.514 138.296   3
   6   3  -4 925.942 135.137   4
   6  -3  -4 872.794 142.235   4
   6  -3   4 1009.28 150.925   3
   6  -4  -4 962.100 139.936   4
   6   4   4 746.246 129.976   3
   6   4  -4 778.236 127.251   4
   6  -4   4 858.968 144.829   3
   6  -5   4 462.566 128.148   3
   6   5   4 424.647 116.815   3
   6   5  -4 413.342 111.615   4
   6  -5  -4 402.733 124.527   4
   6  -6   4 2838.57 210.290   3
   6  -6  -4 2922.52 195.435   4
   6   6  -4 2327.36 172.160   4
   6   6   4 2620.80 198.138   3
   6  -7  -4 3025.13 199.039   4
   6  -7   4 2900.31 212.145   3
   6   7   4 2829.36 199.871   3
   6  -8  -4 2094.81 178.203   4
   6   8   4 1775.44 170.424   3
   6  -8   4 2028.88 191.242   3
   6   9   4 2952.18 203.922   3
   6  -9   4 2844.59 216.681   3
   6  -9  -4 3269.28 211.683   4
   6 -10   4 685.392 144.147   3
   6  10   4 565.060 124.405   3
   6 -10   4 842.998 300.969   1
   6 -10  -4 746.746 141.021   4
   6 -11   4 1642.22 153.252   5
   6 -11  -4 1239.01 247.653   1
   6 -11  -4 1873.63 174.676   4
   6 -11   4 1686.43 182.056   3
   6 -11   4 1538.72 356.872   1
   6 -12   4 775.263 117.021   5
   6 -12  -4 1021.83 149.640   4
   6 -12  -4 775.612 238.839   1
   6 -12   4 677.749 266.661   1
   6 -13   4-82.9250 210.102   1
   6 -13   4 212.879 94.9571   5
   6 -13  -4 168.047 167.939   1
   6 -13  -4 429.886 131.473   4
   6 -14   4 413.659 101.997   5
   6 -14  -4 553.068 220.253   1
   6 -14   4 333.319 243.299   1
   6 -14  -4 695.390 137.828   4
   6 -15  -4 4781.12 486.314   1
   6 -15   4 5118.24 574.878   1
   6 -15   4 5276.20 235.372   5
   6 -15  -4 5984.16 268.173   4
   6 -15   4 5991.85 292.383   4
   6 -15  -4 5295.44 241.834   5
   6 -16   4 6799.88 260.559   5
   6 -16  -4 7482.00 295.234   4
   6 -16   4 7735.26 315.800   4
   6 -16  -4 6572.72 266.621   5
   6 -17   4 741.908 137.168   4
   6 -17  -4 544.092 115.103   5
   6 -17   4 629.910 118.303   5
   6 -17  -4 755.038 137.443   4
   6 -18   4 1104.93 131.350   5
   6 -18  -4 1274.36 142.178   5
   6 -18  -4 1479.22 154.947   4
   6 -18   4 1119.39 148.250   4
   6 -19  -4 113.067 96.5547   5
   6 -19   4 144.136 95.9382   5
   6 -19   4 145.995 103.062   4
   6 -19  -4 204.462 104.277   4
   6 -20   4 2461.10 175.945   5
   6 -20  -4 2480.05 180.838   4
  -6  20   4 2361.66 240.851   3
   6 -20   4 2472.35 182.950   4
   6 -20  -4 2285.42 172.604   5
   6 -21   4 3485.95 200.275   5
   6 -21  -4 3652.73 203.994   4
   6 -21   4 3230.33 204.466   4
   6 -21  -4 3204.13 194.436   5
   6 -22  -4 705.628 123.007   5
   6 -22   4 576.781 111.985   5
   6 -22  -4 715.622 114.013   4
   6 -22   4 586.798 113.194   4
   6 -23  -4 520.740 111.653   5
   6 -23   4 651.283 118.400   5
   6 -23   4 594.138 106.811   4
   6 -24   4 2712.87 176.822   5
   6 -24   4 2211.80 159.089   4
   6 -24  -4 2437.37 168.172   5
   6 -25   4 395.358 102.495   5
   6 -25  -4 378.658 100.709   5
   6 -26  -4 293.964 90.5933   5
   6 -26   4 301.197 91.9799   5
   6 -27   4 812.679 107.158   5
   6 -27  -4 804.849 105.112   5
   6 -28  -4 204.419 80.5511   5
   6 -28   4 132.702 78.8012   5
   7   0  -4 7385.38 290.354   4
   7   0   4 7098.48 319.608   3
   7   1   4 5469.44 296.061   3
   7   1  -4 3243.42 213.783   4
   7  -1  -4 3486.79 218.149   4
   7  -1   4 4835.16 283.741   3
   7  -2   4 12513.0 415.016   3
   7   2   4 12359.5 406.968   3
   7   2  -4 12446.4 366.990   4
   7  -2  -4 13025.0 375.834   4
   7  -3   4 8560.30 360.720   3
   7  -3  -4 7970.59 304.366   4
   7   3   4 8306.08 346.704   3
   7  -4   4 11421.1 406.720   3
   7   4   4 11210.1 388.732   3
   7   4  -4 11255.3 345.656   4
   7  -4  -4 11623.9 358.205   4
   7   5  -4 3282.70 207.767   4
   7  -5  -4 4221.61 233.681   4
   7  -5   4 4142.66 277.980   3
   7   5   4 3831.91 250.021   3
   7  -6   4 4938.05 283.867   3
   7  -6  -4 5132.79 248.768   4
   7   6   4 5152.33 278.698   3
   7   7   4 3342.95 233.496   3
   7  -7  -4 4526.89 238.045   4
   7  -8  -4 2491.35 195.656   4
   7  -9  -4 5247.05 259.371   4
   7  -9   4 5006.74 269.175   4
   7 -10  -4 9819.95 336.058   4
   7 -10   4 9032.45 345.569   4
   7 -11  -4 1832.36 181.613   4
   7 -11   4 1649.51 180.049   4
   7 -12  -4 1268.86 161.513   4
   7 -12   4 1158.83 175.359   4
   7 -13  -4 1695.77 174.704   4
   7 -13   4 1547.75 175.638   4
   7 -14  -4 4408.11 240.460   4
   7 -14   4 4276.84 249.724   4
   7 -15  -4 5592.08 262.777   4
   7 -15   4 5699.08 277.278   4
   7 -16  -4 3731.88 222.330   4
   7 -16   4 3541.35 227.305   4
   7 -17  -4 5717.30 262.062   4
   7 -17   4 5231.66 264.087   4
   7 -18   4 3833.24 195.495   5
   7 -18  -4 4148.62 224.674   4
   7 -18   4 3722.89 228.498   4
   7 -19   4 455.507 118.235   4
   7 -19   4 451.856 100.224   5
   7 -19  -4 452.510 117.944   4
   7 -20   4 1964.44 148.152   5
   7 -20  -4 2045.74 163.559   4
  -7  20   4 1975.67 224.957   3
   7 -20   4 1993.22 168.207   4
   7 -21   4 1902.12 142.804   5
   7 -21  -4 2108.30 160.486   4
  -7  21   4 2018.43 215.547   3
   7 -21   4 1743.79 159.420   4
   7 -22  -4 3179.72 177.635   4
   7 -22   4 3382.00 175.707   5
   7 -22   4 3058.39 186.390   4
   7 -23   4 830.460 108.791   5
   7 -23  -4 873.166 109.977   4
   7 -23   4 750.085 110.822   4
   7 -24   4 1347.31 117.907   5
   7 -24   4 853.694 104.617   4
   7 -25   4 991.746 108.333   5
   7 -25   4 681.127 92.3685   4
   7 -26   4 238.454 78.1088   5
   8   0  -4 3322.73 210.692   4
   8   0   4 3077.53 203.314   4
   8   1  -4 3458.01 217.690   4
   8  -1  -4 3228.24 210.598   4
   8   1   4 3048.13 200.794   4
   8  -1   4 3387.56 207.129   4
   8   2  -4 3465.02 212.608   4
   8  -2  -4 4196.31 235.211   4
   8   2   4 3798.69 214.137   4
   8   3  -4 8879.88 315.531   4
   8  -3  -4 9291.50 328.751   4
   8  -3   4 8656.50 320.461   4
   8   4  -4 6455.86 273.664   4
   8  -4  -4 6493.10 286.951   4
   8  -4   4 6048.50 277.134   4
   8  -5  -4 1306.18 160.306   4
   8  -5   4 1452.74 161.394   4
   8  -6   4 434.630 122.944   4
   8  -6  -4 616.242 139.405   4
   8  -7  -4 1807.13 173.417   4
   8  -7   4 1455.28 163.269   4
   8  -8  -4 2026.25 180.797   4
   8  -8   4 1933.54 182.871   4
   8  -9  -4 2812.98 200.333   4
   8  -9   4 2334.66 196.011   4
   8 -10   4 58.4089 102.646   4
   8 -10  -4 185.006 119.056   4
   8 -11   4 676.266 134.082   4
   8 -11  -4 875.990 144.474   4
   8 -12  -4 537.269 133.906   4
   8 -12   4 358.143 122.370   4
   8 -13  -4 3192.00 210.798   4
   8 -13   4 2950.16 215.489   4
   8 -14  -4 3324.83 211.988   4
   8 -14   4 3486.43 226.884   4
   8 -15  -4 1565.69 161.702   4
   8 -15   4 1231.79 154.282   4
   8 -16  -4 400.794 114.062   4
   8 -16   4 366.397 117.573   4
   8 -17  -4 2077.07 170.750   4
   8 -17   4 1716.30 163.562   4
   8 -18  -4 536.822 116.360   4
   8 -18   4 341.546 104.467   4
   8 -19  -4 130.184 93.1096   4
   8 -19   4 104.972 90.8474   4
   8 -20  -4 287.222 96.1267   4
   8 -20   4 284.007 96.8972   4
   8 -21  -4 686.013 103.698   4
   8 -21   4 592.387 103.445   4
   8 -22  -4 158.086 75.1439   4
   8 -22   4-5.06212 76.3419   4
   8 -23  -4 412.136 82.4796   4
   8 -23   4 100.351 68.6234   4
   9   0   4 1174.81 134.582   4
   9   0  -4 643.068 127.135   4
   9   1  -4 2603.55 185.591   4
   9  -1  -4 2549.93 185.237   4
   9  -1   4 2361.10 171.071   4
   9  -2  -4 1176.36 149.448   4
   9  -2   4 1263.76 142.019   4
   9   2  -4 845.238 130.347   4
   9  -3  -4 1427.30 158.714   4
   9  -3   4 1166.28 136.780   4
   9  -4  -4 2000.39 171.095   4
   9  -4   4 2101.95 171.958   4
   9  -5  -4 3395.38 209.714   4
   9  -5   4 3373.24 208.127   4
   9  -6  -4 5470.19 251.533   4
   9  -6   4 4911.64 247.527   4
   9  -7  -4 4338.66 230.087   4
   9  -7   4 3938.57 227.787   4
   9  -8  -4 775.456 136.207   4
   9  -8   4 1038.83 145.439   4
   9  -9  -4 2608.24 188.204   4
   9  -9   4 2469.98 189.014   4
   9 -10  -4 3139.17 198.770   4
   9 -10   4 2867.78 200.684   4
   9 -11  -4 1601.42 158.626   4
   9 -11   4 1500.75 157.575   4
   9 -12  -4 1614.87 157.553   4
   9 -12   4 1395.93 153.498   4
   9 -13  -4 1746.27 156.351   4
   9 -13   4 1585.14 155.584   4
   9 -14  -4 1600.17 151.971   4
   9 -14   4 1230.17 143.107   4
   9 -15  -4 1849.95 151.481   4
   9 -15   4 1721.54 154.958   4
   9 -16  -4 719.109 115.886   4
   9 -16   4 603.435 114.240   4
   9 -17  -4 1577.62 137.487   4
   9 -17   4 1295.62 134.102   4
   9 -18  -4 1921.85 139.842   4
  -9  18   4 1866.79 209.580   3
   9 -18   4 1474.24 133.411   4
   9 -19  -4 426.404 88.7819   4
   9 -19   4 249.903 84.0196   4
  -9  19   4 566.895 142.497   3
  10   0  -4 1039.42 127.211   4
  10  -1  -4 1302.80 133.061   4
  10  -2  -4 1769.45 146.817   4
  10  -2   4 2041.24 147.030   4
  10  -3  -4 3278.14 182.753   4
  10  -3   4 3026.70 172.553   4
  10  -4  -4 1952.82 151.018   4
  10  -4   4 1999.72 149.811   4
  10  -5  -4 2235.68 161.791   4
  10  -5   4 2337.75 160.782   4
  10  -6  -4 4111.08 201.589   4
  10  -6   4 3562.93 191.877   4
  10  -7  -4 829.801 119.773   4
  10  -7   4 589.784 104.639   4
  10  -8  -4 514.944 104.180   4
  10  -8   4 83.5579 78.5982   4
  10  -9  -4 713.062 113.193   4
  10  -9   4 299.264 91.4019   4
  10 -10  -4 915.056 113.966   4
  10 -10   4 527.425 97.1745   4
  10 -11  -4 466.792 100.354   4
  10 -11   4 244.545 86.5526   4
  10 -12  -4 1608.18 132.515   4
  10 -12   4 1166.51 122.973   4
  10 -13  -4 434.817 93.6098   4
  10 -13   4 137.340 78.8330   4
  10 -14  -4 1531.16 124.546   4
  10 -14   4 1257.35 122.108   4
 -11   0   4 344.094 110.354   3
 -11  -1   4 194.968 90.0464   3
 -11   1   4 442.633 118.382   3
 -11   2   4 680.166 136.384   3
  11  -3  -4 1681.89 112.898   4
   0   0  -5 1393.09 256.904   2
   0   0   5 2209.80 176.498   3
   0   1  -5 5362.40 437.316   2
   0  -1   5 6446.05 248.362   3
   0   1   5 6446.90 252.000   3
   0  -1  -5 4976.78 406.089   2
   0  -1  -5 4885.56 229.457   5
   0   2  -5 7928.56 515.523   2
   0  -2   5 7087.12 254.660   3
   0   2   5 7894.88 269.379   3
   0  -2  -5 7896.38 506.887   2
   0  -2  -5 7355.85 265.050   5
   0  -3  -5 1484.87 138.523   5
   0   3  -5 1657.20 262.000   2
   0  -3   5 1660.48 134.238   3
   0   3   5 1723.04 142.281   3
   0  -3  -5 1657.92 253.589   2
   0  -4  -5 1254.74 138.991   5
   0  -4   5 1425.40 129.925   3
   0   4  -5 1780.19 283.642   2
   0  -4  -5 1270.85 236.521   2
   0   4   5 1694.03 150.902   3
   0   5  -5 4551.24 428.747   2
   0  -5  -5 4111.97 211.117   5
   0  -5   5 4038.79 191.401   3
   0   5   5 4538.16 213.910   3
   0  -6  -5 12503.0 338.855   5
   0  -6   5 12018.5 313.953   3
   0   6   5 11753.6 328.365   3
   0  -7  -5 254.835 112.804   5
   0   7  -5 211.650 192.733   2
   0  -7   5 94.2592 75.1826   3
   0   7   5 349.821 105.890   3
   0   8   5 907.042 127.188   3
   0  -8  -5 751.419 124.624   5
   0   8  -5 775.141 237.400   2
   0  -8   5 546.696 88.7633   3
   0  -9  -5 256.456 113.679   5
   0   9  -5 367.535 219.182   2
   0  -9   5 79.6659 69.2490   3
   0   9   5 440.851 110.280   3
   0 -10  -5 184.244 115.529   5
   0  10  -5 101.915 201.813   2
   0 -10   5-52.6508 78.0348   3
   0  10   5 217.486 102.058   3
   0  11  -5 3014.08 406.676   2
   0  11   5 3037.87 192.838   3
   0 -11  -5 3160.16 208.956   5
   0  12   5 20530.2 447.878   3
   0 -12  -5 21248.2 460.955   5
   0  13  -5 5713.43 553.000   2
   0  13   5 5717.99 244.965   3
   0 -13  -5 6160.03 271.468   5
   0  14   5 1301.64 141.316   3
   0  14  -5 1370.47 316.857   2
   0 -14  -5 1407.28 161.962   5
   0  15  -5 1985.13 381.771   2
   0 -15  -5 2093.39 183.986   5
   0 -16  -5 584.562 139.244   5
   0  16  -5 629.992 282.989   2
   0 -17  -5 669.324 149.296   5
   0 -17   5 660.666 139.696   5
   0  17  -5 484.405 266.452   2
   0 -18  -5 348.272 140.942   5
   0 -18   5 402.908 132.611   5
   0  18  -5 307.366 265.321   2
   0 -19   5 1510.09 177.759   5
   0  19  -5 1226.48 335.987   2
   0 -19  -5 1384.19 178.002   5
   0 -20  -5 392.308 148.740   5
   0 -20   5 388.108 133.949   5
   0  20  -5 141.050 231.177   2
   0 -21  -5 663.540 157.651   5
   0 -21   5 602.772 141.915   5
   0  21  -5 231.067 234.302   2
   0 -22  -5 694.973 160.633   5
   0 -22   5 637.411 145.578   5
   0 -23  -5 628.158 149.141   5
   0 -23   5 637.089 139.862   5
   0 -24   5 659.528 138.601   5
   0 -24  -5 561.052 140.938   5
   0 -25  -5 487.440 142.201   5
   0 -25   5 479.316 124.582   5
   0 -26   5 485.050 122.458   5
   0 -26  -5 492.065 132.088   5
   0 -27   5-32.5843 98.6591   5
   0 -27  -5 158.965 121.838   5
   0 -28   5-13.4332 94.2319   5
   0 -28  -5 117.432 114.110   5
   0 -29  -5 354.902 113.465   5
   0 -29   5 363.625 108.415   5
   0 -30   5 2009.86 155.331   5
   0 -30  -5 1836.92 158.572   5
   0 -31  -5 737.021 119.097   5
   0 -31   5 539.468 98.9751   5
   0 -32  -5 104.865 84.9739   5
   0 -32   5 217.610 81.1295   5
   1   0   5 27401.6 478.465   3
  -1   0  -5 29023.2 918.177   2
   1   0  -5 28290.0 938.394   2
  -1   0   5 28543.9 524.289   3
   1   0  -5 27485.0 499.414   5
  -1   1  -5 10187.8 568.483   2
   1  -1   5 9618.97 289.839   3
   1   1   5 10995.1 308.179   3
   1  -1  -5 11074.7 603.756   2
   1   1  -5 10170.6 575.971   2
  -1  -1  -5 10485.3 564.773   2
   1  -1  -5 10304.9 313.359   5
  -1  -1   5 9886.41 315.140   3
  -1   1   5 11392.4 343.595   3
   1  -2  -5 4468.44 209.055   5
  -1   2  -5 4924.53 408.209   2
   1  -2   5 4331.18 198.443   3
   1   2   5 4574.86 206.099   3
   1   2  -5 4216.78 384.999   2
  -1  -2  -5 4743.67 387.569   2
  -1   2   5 4690.93 228.985   3
   1  -2  -5 4698.25 402.117   2
  -1  -2  -5 4405.44 217.903   5
  -1  -2   5 4355.09 209.818   3
   1  -3   5 3102.70 173.777   3
   1   3  -5 3473.22 373.706   2
   1   3   5 3460.87 187.714   3
  -1   3  -5 3158.82 344.164   2
  -1  -3   5 3505.70 198.999   3
  -1  -3  -5 3022.64 321.869   2
  -1   3   5 3130.69 198.052   3
   1  -3  -5 2950.77 330.575   2
  -1  -3  -5 3136.33 192.529   5
   1  -3  -5 2869.89 178.315   5
   1   4  -5 12713.3 665.634   2
   1  -4   5 12199.3 318.067   3
  -1  -4  -5 12506.7 349.075   5
   1   4   5 12164.2 323.495   3
  -1   4  -5 13818.8 688.963   2
  -1  -4   5 11911.6 323.004   3
  -1   4   5 12233.2 359.967   3
  -1  -4  -5 12633.0 604.581   2
   1  -4  -5 11973.2 324.834   5
  -1   5  -5 7830.58 529.892   2
   1   5  -5 8591.70 560.438   2
   1  -5   5 7030.67 247.758   3
   1   5   5 8417.88 277.532   3
  -1  -5   5 7412.14 254.506   3
   1  -5  -5 7682.79 265.657   5
  -1   5   5 7905.97 296.993   3
  -1  -5  -5 8570.65 301.070   5
  -1   6  -5 3817.59 399.738   2
   1  -6  -5 3692.23 198.474   5
   1  -6   5 3320.21 174.507   3
   1   6   5 3673.09 190.570   3
  -1  -6   5 3248.78 176.189   3
  -1   6   5 3678.20 213.702   3
  -1  -6  -5 3779.32 209.137   5
   1   6  -5 3617.26 390.970   2
  -1   7  -5 11973.3 689.018   2
  -1  -7  -5 11271.6 333.767   5
   1  -7  -5 10576.7 310.600   5
   1   7  -5 12787.5 704.305   2
   1  -7   5 10653.7 293.244   3
   1   7   5 10841.4 310.257   3
  -1  -7   5 10700.3 302.188   3
  -1   7   5 10150.0 345.620   3
  -1   8  -5 15764.8 795.322   2
   1   8  -5 16048.1 802.305   2
   1  -8  -5 14526.7 371.727   5
   1  -8   5 13993.7 332.526   3
   1   8   5 13924.5 361.242   3
  -1  -8   5 13172.5 324.917   3
  -1   8   5 14070.2 400.984   3
  -1  -8  -5 14686.0 382.567   5
   1  -9   5 491.019 97.1866   3
  -1  -9  -5 858.017 155.181   5
   1   9   5 717.105 116.797   3
  -1  -9   5 1088.07 124.233   3
  -1   9  -5 674.175 260.834   2
   1   9  -5 946.305 296.019   2
  -1   9   5 436.045 130.557   3
   1  -9  -5 627.132 145.029   5
  -1  10  -5 13943.6 796.055   2
   1 -10   5 13345.9 327.433   3
   1  10   5 13281.3 346.698   3
  -1  10   5 12393.3 375.541   3
  -1 -10  -5 13632.8 379.149   5
   1 -10  -5 13490.0 357.642   5
  -1  11  -5 3583.63 449.909   2
   1  11  -5 4061.64 455.324   2
   1  11   5 3787.95 197.169   3
   1 -11  -5 4037.58 216.539   5
  -1  11   5 3227.19 218.211   3
   1 -11   5 3328.02 175.155   3
  -1 -11  -5 4141.89 241.152   5
  -1  12  -5 3061.33 427.000   2
   1  12  -5 3514.62 443.005   2
   1  12   5 2826.80 176.064   3
  -1  12   5 2582.76 198.473   3
  -1 -12  -5 2771.51 213.686   5
   1 -12  -5 3046.13 204.304   5
  -1  13  -5 11892.8 787.936   2
   1  13  -5 12976.2 797.379   2
   1  13   5 12283.6 334.357   3
   1 -13  -5 12421.0 357.979   5
  -1  13   5 11569.4 366.630   3
  -1 -13  -5 12443.0 383.555   5
  -1  14  -5 6570.61 618.071   2
   1  14  -5 6845.34 617.642   2
  -1  14   5 6164.06 276.569   3
  -1 -14  -5 6825.13 299.527   5
   1 -14  -5 6795.39 281.119   5
  -1  15  -5 6174.77 606.482   2
   1  15  -5 6256.44 599.421   2
   1 -15  -5 6309.67 277.739   5
  -1 -15  -5 6062.36 288.988   5
  -1  15   5 6386.86 281.642   3
  -1  16  -5 6567.91 626.893   2
   1  16  -5 6771.66 639.109   2
  -1 -16  -5 6871.67 310.103   5
   1 -16  -5 6803.53 292.563   5
  -1  17  -5 8539.93 729.571   2
   1  17  -5 9128.54 751.066   2
  -1 -17   5 10600.2 336.355   5
   1 -17   5 10748.9 349.651   5
  -1 -17  -5 9386.19 351.044   5
   1 -17  -5 9233.59 337.897   5
  -1  18  -5 4060.64 530.743   2
   1  18  -5 3923.68 517.292   2
   1 -18   5 5547.22 265.192   5
  -1 -18  -5 4765.69 263.724   5
  -1 -18   5 5196.37 246.726   5
   1 -18  -5 4767.33 260.294   5
  -1  19  -5 3704.01 517.223   2
   1  19  -5 3718.76 510.295   2
  -1 -19   5 4838.93 242.434   5
   1 -19   5 4686.47 255.659   5
   1 -19  -5 4171.77 250.483   5
  -1 -19  -5 4008.79 248.587   5
  -1  20  -5 9617.16 816.064   2
   1  20  -5 9413.98 788.347   2
   1 -20   5 13080.2 398.995   5
  -1 -20   5 12274.9 365.068   5
  -1 -20  -5 11423.6 384.519   5
   1 -20  -5 11557.5 383.935   5
  -1  21  -5 6326.31 689.584   2
   1  21  -5 6543.89 678.521   2
  -1 -21   5 7441.36 293.417   5
   1 -21   5 8132.42 329.869   5
   1 -21  -5 7364.45 317.035   5
  -1 -21  -5 7466.00 326.327   5
   1 -22  -5 939.112 168.217   5
  -1 -22   5 1120.21 145.508   5
   1 -22   5 1125.17 163.288   5
  -1 -22  -5 1146.13 168.787   5
  -1 -23   5 3485.04 206.248   5
   1 -23   5 3847.21 240.053   5
  -1 -23  -5 3279.70 228.339   5
   1 -23  -5 3320.09 234.370   5
  -1 -24   5 6614.06 269.563   5
   1 -24   5 7298.22 311.550   5
  -1 -24  -5 6322.68 292.065   5
   1 -24  -5 6834.83 306.737   5
  -1 -25   5 3544.16 201.789   5
   1 -25   5 3850.12 234.753   5
  -1 -25  -5 3650.42 231.297   5
   1 -25  -5 3587.18 234.021   5
   1 -26   5 1158.47 156.147   5
  -1 -26   5 1135.73 131.662   5
  -1 -26  -5 1200.99 158.676   5
   1 -26  -5 1166.17 161.586   5
  -1 -27   5 1060.21 124.419   5
   1 -27   5 1186.11 152.924   5
  -1 -27  -5 1256.10 153.673   5
   1 -27  -5 1234.14 159.519   5
  -1 -28   5 1314.48 127.773   5
   1 -28   5 1772.57 166.218   5
  -1 -28  -5 1525.21 158.161   5
   1 -28  -5 1501.25 164.713   5
  -1 -29  -5 801.650 123.830   5
   1 -29   5 888.341 132.326   5
   1 -29  -5 860.825 139.700   5
   1 -30  -5 476.491 120.413   5
  -1 -30  -5 280.663 98.2671   5
   1 -30   5 483.461 116.440   5
   1 -31   5 1031.68 125.833   5
   1 -31  -5 979.443 127.601   5
  -1 -31  -5 894.150 113.458   5
   1 -32   5 1175.61 121.674   5
   1 -32  -5 1130.31 122.189   5
   2   0  -5 834.606 134.966   5
   2   0   5 1013.84 118.300   3
  -2   0   5 1099.19 150.017   3
  -2   0  -5 960.628 201.072   2
   2   0  -5 894.203 226.235   2
   2   1   5 3161.46 172.813   3
  -2   1  -5 3307.89 328.699   2
  -2  -1  -5 2887.21 297.113   2
   2  -1  -5 3424.28 350.776   2
  -2  -1   5 3773.53 222.150   3
  -2   1   5 3460.54 220.445   3
   2   1  -5 3709.93 368.303   2
   2  -1   5 3440.75 182.607   3
   2  -1  -5 3390.76 195.864   5
   2  -2   5 4369.76 203.686   3
  -2   2  -5 4220.99 375.974   2
   2   2   5 4270.75 200.039   3
   2   2  -5 4102.04 388.550   2
  -2  -2  -5 3651.49 328.217   2
  -2  -2   5 4485.03 235.497   3
   2  -2  -5 4388.94 391.278   2
  -2   2   5 4520.17 247.358   3
   2  -2  -5 4148.49 213.405   5
  -2   3  -5 6411.81 462.702   2
   2   3   5 6013.63 230.687   3
   2  -3   5 5599.15 227.242   3
   2   3  -5 6421.21 481.080   2
  -2  -3  -5 5632.19 388.274   2
  -2  -3   5 6044.36 261.148   3
  -2   3   5 6467.56 287.179   3
   2  -3  -5 6241.13 248.671   5
  -2   4  -5 12249.0 653.029   2
   2  -4   5 11226.5 313.434   3
   2   4   5 10973.8 309.964   3
   2   4  -5 11735.9 644.276   2
   2  -4  -5 11904.1 332.837   4
  -2  -4   5 11045.2 340.753   3
  -2   4   5 11128.4 370.412   3
  -2  -4  -5 10282.5 345.994   5
   2  -4  -5 11351.4 323.183   5
  -2   5  -5 14282.6 712.097   2
   2  -5  -5 14401.4 365.384   5
   2  -5   5 13916.5 346.673   3
   2   5   5 14562.9 355.022   3
   2  -5  -5 14363.8 375.051   4
  -2  -5   5 14853.5 390.433   3
  -2   5   5 14241.1 419.750   3
  -2  -5  -5 14700.4 409.716   5
  -2   6  -5 3600.73 393.054   2
   2  -6   5 3267.67 185.637   3
   2   6   5 3646.55 189.094   3
   2   6  -5 3753.27 411.866   2
   2  -6  -5 3824.26 210.588   4
  -2  -6   5 3563.49 207.386   3
  -2   6   5 3720.47 243.291   3
   2  -6  -5 3572.95 207.170   5
  -2  -6  -5 3566.78 234.477   5
  -2   7  -5 4072.49 421.451   2
   2  -7   5 3748.13 195.166   3
   2   7   5 3757.15 189.725   3
   2   7  -5 3968.21 422.451   2
  -2  -7  -5 3438.22 230.179   5
   2  -7  -5 3644.96 210.384   4
  -2  -7   5 3491.40 191.874   3
  -2   7   5 3787.12 251.426   3
   2  -7  -5 4142.65 219.474   5
  -2   8  -5 6443.01 528.220   2
   2  -8   5 5885.91 230.081   3
  -2  -8  -5 5752.39 279.523   5
   2   8  -5 6621.58 537.559   2
   2   8   5 6016.30 234.454   3
   2  -8  -5 6163.27 255.959   4
  -2  -8   5 5880.35 234.857   3
  -2   8   5 5932.47 302.393   3
   2  -8  -5 6544.42 256.608   5
  -2   9  -5 6528.86 551.661   2
   2  -9   5 6019.90 234.854   3
   2   9   5 5734.54 230.972   3
   2  -9  -5 6641.03 265.403   4
  -2   9   5 5934.11 309.782   3
   2   9  -5 6308.38 537.053   2
  -2  -9  -5 5410.94 278.564   5
   2  -9  -5 6633.55 264.100   5
  -2  10  -5 6652.26 571.698   2
   2 -10   5 6101.70 236.669   3
   2  10  -5 6397.06 560.840   2
   2  10   5 6585.77 247.760   3
   2 -10  -5 6742.96 262.600   4
  -2  10   5 6065.52 303.017   3
  -2 -10  -5 6313.29 291.997   5
   2 -10  -5 6726.31 270.307   5
  -2 -11  -5 1766.23 190.097   5
   2 -11   5 1413.98 131.446   3
   2  11  -5 1546.76 332.070   2
   2  11   5 1895.44 152.112   3
   2 -11  -5 1551.66 161.531   4
  -2  11   5 1658.30 199.058   3
  -2  11  -5 1392.46 294.907   2
   2 -11  -5 1765.62 174.772   5
  -2  12  -5 2202.62 380.667   2
   2  12   5 2713.14 173.470   3
   2 -12   5 2116.05 152.300   3
  -2 -12  -5 2294.89 202.783   5
   2  12  -5 2339.90 389.533   2
   2 -12  -5 2294.09 172.901   4
  -2  12   5 2054.07 218.103   3
   2 -12  -5 2356.44 191.230   5
  -2  13  -5 6074.64 587.032   2
   2  13  -5 6549.93 583.212   2
   2 -13  -5 5889.36 243.798   4
  -2  13   5 5769.30 305.021   3
  -2 -13  -5 5962.39 289.043   5
   2  13   5 6381.32 245.974   3
   2 -13  -5 6445.03 272.406   5
  -2  14  -5 6067.39 588.264   2
   2  14  -5 6079.93 565.324   2
   2 -14  -5 4928.79 223.859   4
  -2  14   5 5816.04 289.651   3
  -2 -14  -5 6175.64 291.063   5
   2 -14  -5 6166.18 268.169   5
  -2 -15  -5 870.819 159.984   5
   2 -15  -5 905.704 150.003   5
   2 -15  -5 776.306 117.631   4
  -2  15  -5 847.077 283.353   2
   2  15  -5 881.259 289.571   2
  -2  15   5 669.235 146.570   3
  -2  16  -5 2509.73 434.207   2
   2  16  -5 2902.49 423.793   2
  -2 -16   5 3160.11 185.448   5
  -2  16   5 2488.21 201.171   3
  -2 -16  -5 3004.16 227.483   5
   2 -16   5 3284.01 214.072   5
   2 -16  -5 3107.63 215.574   5
  -2  17  -5 6909.73 675.848   2
   2  17  -5 7061.68 646.234   2
   2 -17   5 8444.16 321.630   5
  -2  17   5 7329.80 315.041   3
  -2 -17  -5 6977.53 313.933   5
  -2 -17   5 7464.32 271.344   5
   2 -17  -5 8016.14 318.755   5
  -2  18  -5 7022.22 696.284   2
   2  18  -5 7605.92 679.418   2
  -2 -18  -5 8517.11 340.939   5
  -2 -18   5 8788.84 289.659   5
   2 -18   5 9326.81 339.822   5
   2 -18  -5 8692.78 329.204   5
  -2  19  -5 5911.12 655.479   2
   2  19  -5 5077.28 582.445   2
  -2 -19   5 6130.29 252.122   5
   2 -19   5 6839.84 302.219   5
  -2 -19  -5 6387.18 303.931   5
   2 -19  -5 5916.22 288.134   5
  -2  20  -5 2416.31 457.119   2
   2 -20   5 3058.44 223.709   5
   2  20  -5 1969.58 382.637   2
  -2 -20  -5 3090.66 230.263   5
   2 -20  -5 2771.82 218.531   5
  -2 -21  -5 702.042 145.154   5
   2 -21  -5 760.293 160.330   5
   2 -21   5 705.870 151.461   5
  -2 -22  -5 271.885 122.623   5
   2 -22  -5 185.509 130.940   5
   2 -22   5 208.457 129.714   5
   2 -23  -5 50.5003 126.170   5
   2 -23   5 10.7145 118.253   5
  -2 -23  -5 131.883 115.420   5
  -2 -24  -5 302.828 120.052   5
   2 -24  -5 381.912 138.249   5
   2 -24   5 418.422 135.083   5
  -2 -25  -5 65.2548 98.1274   5
   2 -25  -5 69.3711 128.674   5
   2 -25   5-108.891 130.449   5
  -2 -26  -5 330.359 114.196   5
   2 -26  -5 232.435 124.584   5
   2 -26   5 201.614 118.405   5
   2 -27   5 1448.16 166.351   5
   2 -27  -5 1363.81 165.177   5
   2 -28  -5 541.983 127.513   5
   2 -28   5 570.764 128.276   5
   2 -29  -5 288.331 114.484   5
   2 -29   5 262.378 109.800   5
   2 -30  -5 203.816 107.218   5
   2 -30   5-105.396 101.272   5
   2 -31  -5 455.824 105.265   5
   2 -31   5 428.420 108.095   5
   3   0   5 9685.40 307.340   3
   3   0  -5 8339.79 295.550   4
   3   0  -5 8046.19 553.069   2
  -3   0   5 9699.42 371.158   3
   3   0  -5 9736.27 330.449   5
   3  -1   5 18949.5 414.214   3
   3   1  -5 18904.2 408.208   4
   3  -1  -5 18649.4 410.263   4
   3   1  -5 17808.3 787.591   2
  -3  -1   5 18981.5 482.372   3
   3   1   5 18984.5 410.240   3
  -3   1   5 19396.5 496.812   3
   3  -1  -5 20426.1 441.491   5
   3  -2  -5 13770.4 366.286   5
   3  -2   5 14404.5 363.214   3
   3   2   5 13588.4 352.390   3
   3  -2  -5 13042.1 346.032   4
   3   2  -5 13996.5 706.671   2
  -3  -2   5 14764.9 424.659   3
  -3   2   5 13722.4 429.304   3
   3  -3   5 15948.9 381.854   3
   3   3   5 16400.3 383.196   3
  -3   3  -5 15866.7 699.918   2
   3  -3  -5 17383.4 405.463   5
   3  -3  -5 17202.8 392.469   4
   3   3  -5 16601.5 774.552   2
  -3  -3   5 16895.2 446.679   3
  -3   3   5 16912.1 478.390   3
   3  -4   5 4113.39 215.078   3
  -3   4  -5 4470.34 401.892   2
   3   4   5 4425.33 212.939   3
   3   4  -5 4558.58 434.390   2
   3  -4  -5 4256.15 223.735   4
  -3  -4   5 4809.91 258.293   3
  -3   4   5 4683.15 286.915   3
   3  -4  -5 4154.65 226.373   5
  -3   5  -5 14485.2 716.231   2
   3  -5   5 14770.9 369.395   3
   3   5   5 15012.3 368.078   3
   3  -5  -5 14900.4 375.432   5
   3   5  -5 15079.1 751.585   2
   3  -5  -5 15696.5 380.163   4
  -3  -5   5 15369.3 420.580   3
  -3   5   5 14543.7 453.998   3
  -3   6  -5 17423.2 811.192   2
   3  -6   5 17135.1 393.991   3
   3   6   5 15364.2 376.634   3
   3   6  -5 16814.8 803.974   2
   3  -6  -5 16383.3 393.761   4
  -3  -6   5 16983.0 443.354   3
  -3   6   5 15960.2 477.987   3
   3  -6  -5 16158.8 390.784   5
  -3   7  -5 17636.7 846.561   2
   3  -7   5 17484.8 402.936   3
   3   7   5 18044.3 401.862   3
   3   7  -5 18066.1 839.078   2
   3  -7  -5 18642.8 420.526   4
  -3  -7   5 17803.5 436.943   3
  -3   7   5 17252.8 507.020   3
  -3  -7  -5 18286.7 465.342   5
   3  -7  -5 17937.5 407.999   5
  -3   8  -5 6941.44 552.767   2
   3  -8   5 6420.34 252.580   3
  -3  -8  -5 5919.09 287.621   5
   3   8   5 5940.36 239.615   3
   3   8  -5 5958.81 514.229   2
   3  -8  -5 5859.68 251.826   5
   3  -8  -5 5688.41 253.753   4
  -3  -8   5 6093.93 261.239   3
  -3   8   5 5959.72 320.472   3
  -3   9  -5 15082.2 815.488   2
   3  -9   5 15509.7 375.951   3
   3   9   5 15671.0 381.328   3
   3   9  -5 15802.3 815.759   2
  -3  -9  -5 16061.5 428.415   5
   3  -9  -5 16366.6 398.286   4
  -3   9   5 14449.6 477.176   3
   3  -9  -5 15776.9 387.775   5
  -3  10  -5 6794.33 578.004   2
   3 -10   5 6911.85 263.111   3
   3  10   5 6575.12 252.376   3
   3  10  -5 6781.03 563.529   2
   3 -10  -5 6257.47 263.150   4
  -3  10   5 6244.31 319.062   3
  -3 -10  -5 6483.03 294.405   5
   3 -10  -5 6193.52 259.545   5
  -3  11  -5 16491.8 899.727   2
   3 -11   5 17343.9 403.414   3
   3  11   5 18107.4 405.950   3
   3  11  -5 17731.7 887.746   2
   3 -11  -5 17012.6 403.617   4
  -3  11   5 16876.7 503.337   3
  -3 -11  -5 16892.0 452.994   5
   3 -11  -5 17694.7 413.221   5
   3  12   5 1380.72 136.447   3
  -3 -12  -5 1279.85 169.001   5
   3 -12  -5 1029.76 150.737   4
  -3  12   5 1186.83 199.186   3
  -3  12  -5 1025.76 301.207   2
   3 -12   5 751.423 115.203   3
   3  12  -5 1090.78 276.787   2
   3 -12  -5 1002.31 153.706   5
  -3  13  -5 5294.60 560.324   2
   3 -13   5 5647.73 248.393   3
   3  13  -5 6249.31 559.600   2
  -3 -13  -5 5767.83 280.223   5
   3 -13  -5 6184.84 259.183   4
  -3  13   5 5636.33 317.614   3
   3 -13  -5 6036.79 259.315   5
   3 -14   5 892.896 122.383   3
  -3 -14  -5 927.166 157.559   5
   3 -14  -5 1013.36 141.610   4
  -3  14   5 1073.95 186.268   3
  -3  14  -5 937.730 288.856   2
   3  14  -5 839.939 260.668   2
   3 -14  -5 1024.31 152.685   5
   3 -15   5 5356.07 249.133   5
   3  15  -5 4733.11 509.809   2
  -3 -15  -5 4570.60 258.318   5
   3 -15  -5 4596.69 231.411   4
  -3  15   5 4714.00 294.279   3
   3 -15  -5 5032.55 251.137   5
  -3 -16  -5 692.575 149.384   5
   3 -16  -5 852.282 155.069   5
   3 -16   5 748.838 144.560   5
  -3  16  -5 621.046 286.844   2
   3  16  -5 844.598 277.608   2
   3 -16  -5 670.432 124.123   4
  -3  16   5 777.525 168.541   3
  -3  17  -5 7553.45 717.454   2
   3 -17   5 9361.51 329.732   5
   3  17  -5 7602.12 653.629   2
   3 -17  -5 8229.39 284.180   4
  -3  17   5 8104.31 356.450   3
  -3 -17  -5 8305.28 324.282   5
   3 -17  -5 8755.31 327.354   5
  -3  18  -5 13365.3 961.885   2
   3 -18   5 16473.0 434.978   5
   3  18  -5 13998.7 872.388   2
   3 -18  -5 15357.6 376.576   4
  -3  18   5 15617.0 470.912   3
   3 -18  -5 15827.3 431.847   5
   3 -19  -5 848.205 162.076   5
  -3  19  -5 847.842 317.113   2
   3  19  -5 659.332 238.889   2
   3 -19  -5 869.865 266.294   1
   3 -19   5 882.137 158.552   5
   3 -20   5 3300.97 224.373   5
   3 -20  -5 2932.08 211.582   5
   3 -21   5 4086.70 244.053   5
   3 -21  -5 3725.65 233.651   5
   3 -22   5 3481.44 227.461   5
   3 -22  -5 2976.14 219.239   5
   3 -23   5 4277.60 244.697   5
   3 -23  -5 3987.66 240.004   5
   3 -24  -5 307.923 125.990   5
   3 -24   5 182.490 117.081   5
   3 -25   5 1561.57 170.305   5
   3 -25  -5 1390.86 167.994   5
   3 -26   5 2618.23 199.432   5
   3 -26  -5 2362.06 189.774   5
   3 -27   5 5055.45 246.191   5
   3 -27  -5 4774.74 239.094   5
   3 -28  -5 260.647 107.732   5
   3 -28   5 313.104 110.911   5
   3 -29   5 3269.38 194.011   5
   3 -29  -5 2933.26 185.741   5
   3 -30  -5 717.734 115.506   5
   3 -30   5 818.269 119.101   5
   3 -31   5 3589.32 183.145   5
   3 -31  -5 3368.82 181.278   5
   4   0   5 2127.41 162.664   3
   4   0  -5 2191.78 170.318   4
  -4   0   5 2672.38 249.216   3
   4  -1   5 1207.56 138.553   3
   4   1   5 1234.26 135.302   3
   4   1  -5 1013.48 131.859   4
   4  -1  -5 1051.10 140.534   4
  -4  -1   5 1515.38 209.776   3
  -4   1   5 1629.72 215.705   3
   4  -2   5 3848.26 210.795   3
   4   2   5 3437.76 193.662   3
   4   2  -5 3676.94 200.887   4
   4  -2  -5 4010.42 219.380   4
   4   2  -5 3259.19 369.665   2
  -4  -2   5 4002.78 276.347   3
  -4   2   5 4360.41 289.960   3
   4  -2  -5 4314.95 225.977   5
   4  -3   5 2152.63 171.331   3
   4   3   5 2220.84 163.047   3
   4   3  -5 2103.27 163.750   4
   4  -3  -5 2248.43 179.257   4
   4   3  -5 1850.78 303.948   2
  -4  -3   5 2294.84 228.799   3
  -4   3   5 2873.86 262.549   3
   4  -3  -5 2055.06 179.398   5
   4  -4   5 2504.63 181.397   3
   4   4   5 2317.15 165.074   3
   4  -4  -5 2481.43 189.614   4
   4   4  -5 2344.84 347.712   2
  -4  -4   5 2616.67 228.303   3
  -4   4   5 2845.60 266.594   3
   4  -4  -5 2552.94 187.798   5
   4  -5   5 2649.17 188.001   3
   4   5   5 2898.84 182.954   3
   4  -5  -5 3189.46 207.080   4
   4   5  -5 2560.18 358.165   2
  -4  -5   5 3060.82 234.271   3
  -4   5   5 3462.42 286.623   3
   4  -5  -5 3227.11 207.439   5
   4  -6   5 1203.07 144.576   3
   4   6   5 1398.38 140.976   3
   4  -6  -5 1448.59 160.777   4
  -4  -6   5 1123.93 176.745   3
  -4   6   5 1784.76 231.883   3
   4   6  -5 1115.84 258.566   2
   4  -6  -5 1292.94 150.466   5
   4  -7   5 3508.13 209.729   3
   4   7   5 3868.44 205.205   3
   4   7  -5 3552.73 419.644   2
   4  -7  -5 3912.01 218.392   4
  -4  -7   5 3603.34 238.488   3
  -4   7   5 4064.32 301.721   3
   4  -7  -5 4069.53 212.015   5
   4  -8   5 3453.65 216.018   3
   4   8   5 4099.81 211.148   3
   4  -8  -5 4136.82 230.760   5
   4   8  -5 4093.90 451.975   2
   4  -8  -5 4243.77 232.077   4
  -4  -8   5 3791.41 237.072   3
  -4   8   5 4260.93 309.983   3
   4  -9   5 1370.78 150.243   3
   4   9   5 1609.19 145.818   3
   4  -9  -5 1754.70 176.050   5
   4   9  -5 1606.65 313.217   2
   4  -9  -5 1885.69 180.433   4
  -4   9   5 2002.74 257.757   3
   4 -10  -5 634.299 139.178   5
   4 -10  -5 783.689 143.573   4
   4 -10   5 494.296 114.912   3
   4  10   5 491.984 106.203   3
   4  10  -5 372.834 197.904   2
   4 -11   5 846.592 125.018   3
   4  11   5 974.160 124.508   3
   4 -11  -5 925.976 148.444   4
  -4  11   5 1232.22 217.744   3
  -4  11  -5 771.818 262.486   2
   4  11  -5 650.175 226.719   2
   4 -11  -5 921.179 146.282   5
  -4  12  -5 2698.72 417.838   2
   4 -12   5 2873.23 193.801   3
   4  12   5 3247.41 194.849   3
   4  12  -5 3183.89 404.107   2
   4 -12  -5 2982.05 208.918   4
  -4  12   5 3334.10 283.671   3
   4 -12  -5 3258.89 208.279   5
   4 -13   5 1063.73 139.504   3
   4 -13   5 1185.24 151.062   5
   4 -13  -5 1467.02 166.748   4
  -4  13   5 1696.02 232.237   3
  -4  13  -5 908.245 292.880   2
   4  13  -5 1115.58 286.385   2
   4 -13  -5 1240.81 159.639   5
   4 -14  -5 211.414 120.724   5
   4 -14   5 150.405 112.406   5
  -4  14  -5 166.324 224.278   2
   4 -14   5 251.220 103.196   3
   4  14  -5 227.182 185.403   2
   4 -14  -5 192.903 120.750   4
   4 -14  -5 204.488 192.414   1
  -4  14   5 492.263 174.729   3
   4 -15  -5 937.996 264.063   1
   4 -15   5 1213.00 156.428   5
   4 -15  -5 1272.31 158.121   4
  -4  15   5 1391.91 210.455   3
  -4  15  -5 1053.44 317.319   2
   4  15  -5 1032.17 284.758   2
   4 -15  -5 1259.27 160.327   5
   4 -15   5 1076.22 139.605   3
   4 -16   5 2762.53 202.895   5
   4  16  -5 2363.79 383.530   2
   4 -16  -5 2873.50 201.846   4
  -4  16   5 2821.56 248.318   3
  -4  16  -5 2272.73 429.472   2
   4 -16  -5 2847.65 397.232   1
   4 -16  -5 2976.59 209.504   5
  -4  17  -5 2441.76 452.019   2
   4 -17   5 2493.86 196.185   5
   4  17  -5 2225.71 364.884   2
   4 -17  -5 2578.95 194.871   4
  -4  17   5 2328.42 235.282   3
   4 -17  -5 2338.86 371.598   1
   4 -17  -5 2697.71 206.794   5
   4 -18   5 3975.20 233.466   5
   4 -18  -5 3935.44 219.850   4
  -4  18   5 4098.45 273.561   3
   4 -18  -5 4223.24 238.351   5
   4 -19   5 1199.60 153.548   5
   4 -19  -5 1115.96 134.866   4
  -4  19   5 1099.12 174.502   3
   4 -19  -5 1257.25 166.607   5
   4 -20   5 1140.74 155.190   5
   4 -20  -5 1219.78 164.887   5
   4 -21  -5 541.222 127.772   5
   4 -21   5 714.043 140.456   5
   4 -22  -5 641.506 131.693   5
   4 -22   5 683.433 135.420   5
   4 -22   5 494.799 105.697   4
   4 -23  -5 46.8297 108.018   5
   4 -23   5 15.6448 108.287   5
   4 -24   5 1659.69 168.884   5
   4 -24  -5 1696.82 167.078   5
   4 -25   5 1203.43 148.574   5
   4 -25  -5 1118.17 143.434   5
   4 -26  -5 191.699 105.997   5
   4 -26   5 242.161 109.131   5
   4 -27  -5 256.582 105.488   5
   4 -27   5 219.176 105.673   5
   4 -28  -5 122.549 94.6215   5
   4 -28   5 90.2816 93.0919   5
   4 -29  -5 411.281 99.4483   5
   4 -29   5 391.225 103.762   5
   5   0   5 11286.0 357.850   3
   5   0  -5 11819.0 342.766   4
   5  -1   5 4516.95 250.106   3
   5   1   5 4782.91 254.242   3
   5   1  -5 2161.30 179.264   4
   5  -1  -5 2031.12 181.392   4
  -5  -1   5 2436.74 278.357   3
   5  -2   5 13995.0 404.365   3
   5   2   5 13551.7 387.201   3
   5   2  -5 14377.6 377.295   4
   5  -2  -5 14972.0 383.211   4
  -5  -2   5 15723.1 518.114   3
   5  -3   5 2706.71 222.314   3
   5   3   5 2882.25 203.849   3
   5   3  -5 1951.37 169.160   4
   5  -3  -5 2271.20 191.993   4
  -5  -3   5 2268.11 252.699   3
   5  -4   5 6298.48 285.402   3
   5   4   5 6031.61 275.199   3
   5   4  -5 6422.97 263.150   4
   5  -4  -5 6748.79 271.747   4
  -5  -4   5 7025.54 365.952   3
   5  -5   5 5043.29 260.334   3
   5   5   5 4419.86 243.236   3
   5  -5  -5 4057.82 226.445   4
  -5  -5   5 4465.46 310.206   3
   5  -6   5 17411.1 460.448   3
   5   6   5 16724.0 432.656   3
   5  -6  -5 18632.5 431.582   4
   5   6  -5 16551.2 839.700   2
  -5  -6   5 17821.5 510.000   3
   5  -7   5 4013.80 247.052   3
   5   7   5 4106.69 231.066   3
   5   7  -5 3973.83 434.916   2
  -5  -7   5 3907.22 259.495   3
   5  -8   5 2519.04 200.767   3
   5   8   5 2507.81 187.049   3
   5  -8  -5 2911.50 194.287   5
   5  -8  -5 3039.47 205.073   4
   5   8  -5 2358.79 348.892   2
   5  -9   5 2600.88 203.258   3
   5   9   5 2269.73 181.351   3
   5  -9  -5 3145.78 209.632   4
   5   9  -5 2624.57 362.726   2
   5  -9  -5 2756.42 193.382   5
   5 -10   5 4341.77 252.857   3
   5  10   5 4562.02 239.549   3
   5 -10  -5 5239.43 249.322   4
   5  10  -5 4611.84 476.087   2
   5 -10  -5 4674.01 438.247   1
   5 -10  -5 5005.11 238.456   5
   5  11   5 1721.96 169.768   3
   5 -11   5 1901.94 164.146   5
   5 -11  -5 2098.76 178.824   5
   5 -11  -5 1724.83 294.277   1
   5  11  -5 1893.74 344.239   2
   5 -11  -5 2322.29 192.641   4
   5 -11   5 2081.95 192.927   3
   5 -12   5 5337.66 238.512   5
   5  12  -5 4692.41 488.648   2
   5 -12  -5 5914.95 265.530   4
  -5  12   5 5563.42 356.579   3
   5 -12  -5 4804.89 471.015   1
   5 -12  -5 5539.19 252.933   5
   5 -12   5 4921.16 267.491   3
   5  13  -5 2258.52 359.600   2
   5 -13  -5 2597.04 197.945   4
  -5  13   5 2639.95 278.362   3
   5 -13   5 2445.28 180.279   5
   5 -13  -5 2091.28 350.233   1
   5 -13  -5 2225.16 180.302   5
   5 -13   5 2456.08 201.474   3
   5 -14   5 10306.0 327.256   5
   5  14  -5 9187.52 674.052   2
   5 -14  -5 11217.4 352.737   4
  -5  14   5 10779.1 464.845   3
   5 -14  -5 10457.0 694.538   1
   5 -14   5 9281.04 346.104   3
   5 -14  -5 10489.9 336.624   5
   5 -15   5 3418.07 209.055   5
   5  15  -5 2546.92 380.643   2
   5 -15  -5 3916.79 229.650   4
  -5  15   5 3487.97 294.656   3
   5 -15  -5 2933.76 411.462   1
   5 -15   5 3112.19 214.851   3
   5 -15  -5 3472.88 212.909   5
   5 -16  -5 560.104 128.400   5
   5 -16   5 602.329 126.744   5
   5 -16  -5 747.782 140.838   4
  -5  16   5 930.739 201.521   3
   5 -17   5 6746.97 276.280   5
   5 -17  -5 6533.92 277.893   4
  -5  17   5 6107.46 339.627   3
   5 -17  -5 6291.87 267.893   5
   5 -18   5 3786.35 216.926   5
   5 -18  -5 3683.80 214.566   4
  -5  18   5 3454.74 270.305   3
   5 -18  -5 3546.59 207.620   5
   5 -19  -5 2680.38 183.959   4
  -5  19   5 2563.83 235.894   3
   5 -19  -5 2566.19 188.187   5
   5 -20   5 6913.40 281.473   5
   5 -20  -5 6180.32 259.979   4
  -5  20   5 5989.31 317.634   3
   5 -20   5 6320.36 278.091   4
   5 -20  -5 6478.83 269.388   5
   5 -21   5 1695.04 162.034   5
   5 -21  -5 1653.71 146.359   4
   5 -21   5 1462.63 147.204   4
   5 -21  -5 1507.27 157.995   5
   5 -22   5 1994.96 168.869   5
   5 -22   5 1587.62 150.097   4
   5 -22  -5 1732.92 157.127   5
   5 -23   5 1172.02 141.306   5
   5 -23   5 1109.62 128.361   4
   5 -23  -5 1167.70 145.622   5
   5 -24   5 3151.76 192.690   5
   5 -24  -5 2903.72 184.036   5
   5 -25  -5 382.748 108.984   5
   5 -25   5 349.150 105.922   5
   5 -26   5 2955.07 182.011   5
   5 -26  -5 2785.40 173.787   5
   5 -27  -5 560.613 102.771   5
   5 -27   5 396.805 101.112   5
   5 -28   5 1248.60 124.266   5
   5 -28  -5 1196.12 120.863   5
   6   0   5 1217.44 168.405   3
   6   0  -5 1026.46 144.562   4
   6  -1   5 1354.48 165.689   3
   6   1   5 1317.36 164.569   3
   6   1  -5 1200.59 155.158   4
   6  -1  -5 1484.73 166.216   4
   6  -2   5 1167.93 159.762   3
   6   2   5 1125.41 153.464   3
   6   2  -5 1019.98 143.130   4
   6  -2  -5 1033.51 155.730   4
   6  -3   5 1944.50 194.309   3
   6   3   5 1794.74 178.707   3
   6   3  -5 1570.12 164.528   4
   6  -3  -5 1913.42 178.233   4
  -6  -3   5 2377.80 273.890   3
   6  -4   5 1908.26 193.362   3
   6   4   5 1702.96 172.426   3
   6   4  -5 1956.57 170.855   4
   6  -4  -5 2110.10 180.784   4
  -6  -4   5 2239.26 266.365   3
   6   5   5 1082.13 148.732   3
   6  -5  -5 1340.95 165.002   4
  -6  -5   5 1476.87 219.549   3
   6  -5   5 1135.95 168.187   3
   6   6   5 946.907 146.882   3
   6  -6  -5 1351.12 169.089   4
  -6  -6   5 1142.17 203.755   3
   6  -6   5 1033.08 168.372   3
   6   7   5 1721.02 174.231   3
   6  -7  -5 2270.85 190.440   4
  -6  -7   5 1943.64 218.407   3
   6  -7   5 1706.08 188.793   3
   6  -8   5 353.701 136.282   3
   6   8   5 327.328 115.649   3
   6  -8  -5 522.203 141.631   4
   6  -9  -5 2294.02 194.033   4
   6  -9   5 1738.12 152.034   5
   6  -9   5 2205.49 200.249   3
   6   9   5 1952.98 181.354   3
   6 -10   5 3721.54 210.251   5
   6 -10   5 4840.35 272.253   3
   6 -10  -5 5229.82 262.852   4
   6  10   5 4284.37 256.010   3
   6 -11   5 5302.80 238.615   5
   6 -11   5 5745.30 299.617   3
   6  11   5 5004.31 272.495   3
   6 -12   5 817.235 151.480   3
   6 -12   5 680.552 120.846   5
   6 -12  -5 1069.86 159.277   4
   6 -13   5 94.3754 93.6917   5
   6 -13  -5 244.866 121.739   4
   6 -14  -5 2203.88 184.458   4
  -6  14   5 2321.52 262.385   3
   6 -15  -5 1035.89 136.805   5
   6 -15   5 985.860 132.276   5
   6 -15  -5 1092.91 148.563   4
  -6  15   5 1478.68 229.834   3
   6 -16   5 447.181 110.798   5
   6 -16  -5 254.578 107.093   5
   6 -16  -5 184.564 107.821   4
  -6  16   5 487.655 182.658   3
   6 -17   5 963.835 131.765   5
   6 -17  -5 1144.43 146.366   4
  -6  17   5 1179.97 201.082   3
   6 -17   5 1049.26 147.812   4
   6 -17  -5 1064.07 134.937   5
   6 -18  -5 514.763 114.556   5
   6 -18   5 487.607 108.973   5
   6 -18   5 418.797 119.471   4
   6 -18  -5 542.937 120.130   4
  -6  18   5 608.928 162.485   3
   6 -19   5 291.098 106.676   5
   6 -19  -5 353.109 101.000   5
   6 -19  -5 413.790 109.002   4
  -6  19   5 560.137 156.342   3
   6 -19   5 402.816 113.582   4
   6 -20  -5 221.633 98.9670   5
   6 -20   5 67.6894 93.7709   5
   6 -20  -5 210.090 93.9008   4
  -6  20   5 175.540 125.125   3
   6 -20   5 94.3324 91.7052   4
   6 -21  -5 726.897 113.955   5
   6 -21   5 419.038 105.100   5
   6 -21  -5 614.661 110.458   4
   6 -21   5 332.614 100.172   4
   6 -22   5 726.318 119.263   5
   6 -22   5 550.025 104.449   4
   6 -22  -5 624.199 110.569   5
   6 -22  -5 581.433 100.403   4
   6 -23  -5 642.534 109.323   5
   6 -23   5 504.300 103.789   5
   6 -23   5 490.438 96.3045   4
   6 -24   5 1013.38 120.091   5
   6 -24   5 718.114 102.080   4
   6 -24  -5 981.400 117.398   5
   6 -25   5 1213.52 122.702   5
   6 -25  -5 1231.29 118.676   5
   6 -26   5 921.507 105.751   5
   6 -26  -5 650.371 94.5544   5
   7   0  -5 2662.93 197.309   4
   7   0   5 3149.04 252.744   3
   7   1  -5 4669.03 242.994   4
   7  -1  -5 4689.97 243.405   4
   7  -1   5 4549.69 282.373   3
   7   1   5 4146.61 266.646   3
   7  -2  -5 934.673 157.028   4
   7   2  -5 598.303 131.707   4
   7  -2   5 1610.70 211.784   3
   7   2   5 1998.47 209.534   3
   7  -3   5 4905.54 291.733   3
   7   3  -5 5243.30 253.426   4
   7  -3  -5 5493.79 259.116   4
  -7  -3   5 6061.83 369.150   3
   7   3   5 4586.25 280.779   3
   7  -4   5 3063.12 256.378   3
   7   4  -5 2255.45 184.044   4
   7  -4  -5 2838.57 207.933   4
  -7  -4   5 2514.15 276.535   3
   7   4   5 3421.24 247.764   3
   7   5   5 6331.39 314.551   3
   7  -5  -5 7202.93 291.883   4
  -7  -5   5 7564.00 390.200   3
   7  -5   5 7120.76 342.484   3
   7  -6   5 3528.68 262.093   3
   7  -6  -5 3752.00 228.355   4
  -7  -6   5 3063.71 268.293   3
   7   6   5 3477.59 241.119   3
   7  -7   5 4766.62 291.204   3
   7  -7  -5 5046.75 255.174   4
   7  -8   5 1399.46 194.131   3
   7  -8  -5 1247.11 166.419   4
   7   8   5 1040.95 156.788   3
   7  -9  -5 4417.57 242.650   4
   7   9   5 3603.95 230.707   3
   7 -10  -5 2546.13 201.850   4
   7 -11  -5 2557.85 201.548   4
   7 -12  -5 2015.77 184.408   4
   7 -12   5 2354.86 208.525   4
   7 -13  -5 6768.42 282.569   4
   7 -13   5 6524.49 304.535   4
   7 -14  -5 3503.29 216.970   4
  -7  14   5 3973.14 325.144   3
   7 -14   5 3679.33 237.570   4
   7 -15  -5 2892.72 196.651   4
  -7  15   5 3138.04 291.687   3
   7 -15   5 2836.35 209.013   4
   7 -16  -5 2178.99 175.516   4
  -7  16   5 2357.68 258.750   3
   7 -16   5 2339.50 193.984   4
   7 -17  -5 4207.37 221.368   4
  -7  17   5 4356.36 301.884   3
   7 -17   5 3939.32 230.601   4
   7 -18  -5 424.135 111.162   4
  -7  18   5 647.923 164.487   3
   7 -18   5 480.768 116.956   4
   7 -19   5 1410.23 127.077   5
   7 -19  -5 1415.02 139.398   4
  -7  19   5 1416.10 182.242   3
   7 -19   5 1373.02 145.873   4
   7 -20   5 2378.60 150.362   5
   7 -20  -5 2319.36 159.217   4
  -7  20   5 2140.63 195.221   3
   7 -20   5 2224.78 168.262   4
   7 -21   5 3627.54 174.972   5
   7 -21  -5 3511.26 177.153   4
   7 -21   5 3485.71 190.586   4
   7 -22   5 497.799 92.8755   5
   7 -22  -5 391.803 86.1440   4
   7 -22   5 334.463 86.6303   4
   7 -23   5 1964.86 129.906   5
   7 -23   5 1646.55 129.465   4
   7 -24   5 712.541 91.6244   5
   7 -24   5 415.759 76.4487   4
   8   0  -5 1237.21 150.269   4
   8   0   5 1080.37 130.546   4
   8  -1   5 513.512 109.100   4
   8   1   5 520.001 106.850   4
   8   1  -5 552.056 123.889   4
   8  -1  -5 531.248 124.260   4
   8  -2   5 96.2446 89.6078   4
   8   2  -5 200.589 112.821   4
   8   2   5 161.830 92.4736   4
   8  -2  -5 223.328 110.911   4
  -8  -2   5 215.189 178.343   3
   8  -3  -5 916.278 140.427   4
   8  -3   5 919.852 134.772   4
   8   3  -5 761.562 130.629   4
  -8  -3   5 830.195 200.407   3
   8  -4  -5 1946.67 176.058   4
  -8  -4   5 2004.31 235.363   3
   8  -4   5 1770.57 168.480   4
   8  -5  -5 1617.07 163.590   4
  -8  -5   5 1368.40 203.333   3
   8  -5   5 1482.07 158.310   4
   8  -6   5 971.541 140.946   4
   8  -6  -5 882.884 137.658   4
   8  -7   5 391.646 116.375   4
   8  -7  -5 439.725 124.870   4
   8  -8  -5 2048.21 176.438   4
   8  -8   5 1961.28 182.719   4
   8  -9  -5 3430.33 211.019   4
   8  -9   5 3310.88 223.820   4
   8 -10  -5 1945.12 171.069   4
   8 -10   5 1915.51 179.802   4
   8 -11  -5 213.523 119.328   4
   8 -11   5 192.691 109.241   4
   8 -12  -5 2047.61 171.269   4
   8 -12   5 2114.71 186.237   4
   8 -13  -5 852.353 133.484   4
   8 -13   5 740.999 135.494   4
   8 -14   5 232.383 107.660   4
   8 -14  -5 334.498 111.429   4
   8 -15   5 204.103 103.660   4
   8 -15  -5 198.930 99.5475   4
   8 -16  -5 168.307 89.7471   4
  -8  16   5 294.959 157.052   3
   8 -16   5 106.035 93.6574   4
   8 -17  -5 620.560 109.295   4
  -8  17   5 613.946 152.258   3
   8 -17   5 621.348 112.785   4
   8 -18  -5 480.911 98.4769   4
  -8  18   5 537.785 143.664   3
   8 -18   5 377.463 98.0093   4
   8 -19  -5 87.4884 75.5081   4
  -8  19   5 78.9964 107.296   3
   8 -19   5 126.168 82.2116   4
   8 -20  -5 219.016 76.9751   4
  -8  20   5 210.119 106.554   3
   8 -20   5 221.354 84.3700   4
   9   0  -5 1153.92 135.768   4
  -9   0   5 1149.11 207.675   3
   9   0   5 1218.53 128.332   4
   9   1  -5 1120.89 132.330   4
   9  -1  -5 1027.03 131.649   4
   9  -1   5 1424.09 134.890   4
  -9   1   5 1171.19 208.949   3
   9  -2  -5 2169.76 165.721   4
  -9  -2   5 1706.31 215.394   3
  -9   2   5 2189.07 261.737   3
   9  -2   5 2322.53 167.448   4
   9  -3  -5 2302.17 172.538   4
  -9  -3   5 1712.10 209.402   3
   9  -3   5 2052.91 160.257   4
   9  -4   5 734.168 118.849   4
   9  -4  -5 448.354 113.636   4
  -9  -4   5 455.094 148.782   3
   9  -5  -5 1326.29 144.693   4
   9  -5   5 1499.09 152.753   4
   9  -6  -5 3669.28 206.557   4
   9  -6   5 3730.93 216.990   4
   9  -7  -5 5184.36 234.425   4
   9  -7   5 5226.01 247.088   4
   9  -8  -5 3762.84 205.001   4
   9  -8   5 3775.73 213.924   4
   9  -9   5 929.632 131.740   4
   9  -9  -5 686.256 121.381   4
   9 -10  -5 1523.62 143.048   4
  -9  10   5 1880.07 248.651   3
   9 -10   5 1434.90 150.233   4
   9 -11  -5 1186.00 132.396   4
   9 -11   5 1246.46 139.473   4
   9 -12  -5 1733.13 146.122   4
  -9  12   5 1835.96 227.919   3
   9 -12   5 1635.83 148.657   4
   9 -13  -5 2187.19 155.272   4
  -9  13   5 2495.86 238.746   3
   9 -13   5 2002.72 158.560   4
   9 -14  -5 1875.28 143.761   4
  -9  14   5 2033.40 217.977   3
   9 -14   5 1685.71 144.871   4
   9 -15  -5 655.610 102.760   4
   9 -15   5 735.614 111.338   4
  -9  15   5 685.593 153.187   3
   9 -16  -5 1944.15 134.421   4
  -9  16   5 1792.98 182.337   3
   9 -16   5 1782.23 142.478   4
 -10   0   5 133.490 114.503   3
 -10  -1   5 213.998 110.573   3
 -10   1   5 268.478 131.914   3
  10  -2  -5 1623.68 130.466   4
 -10   2   5 1793.53 195.908   3
  10  -3  -5 1486.66 125.522   4
 -10   3   5 1351.04 183.261   3
  10  -3   5 1403.63 116.835   4
  10  -4  -5 305.550 85.8323   4
  10  -4   5 366.827 85.6093   4
 -10   4   5 330.612 146.881   3
  10  -5  -5 262.789 84.9876   4
  10  -5   5 242.940 78.5652   4
 -10   5   5 356.484 147.135   3
  10  -6  -5 989.064 110.246   4
 -10   6   5 1205.06 183.276   3
  10  -6   5 931.362 107.185   4
  10  -7  -5 982.964 108.227   4
 -10   7   5 1048.53 175.029   3
  10  -7   5 839.357 102.148   4
  10  -8  -5 271.586 80.7068   4
  10  -8   5 185.219 74.3635   4
  10  -9  -5 185.794 77.0647   4
  10  -9   5 14.5557 70.0615   4
   0   0   6 1862.64 162.229   3
   0   0  -6 1696.35 295.308   2
   0   1  -6 374.635 192.544   2
   0  -1  -6 380.172 183.472   2
   0  -1   6 614.675 119.930   3
   0   1   6 629.534 123.498   3
   0   2  -6 644.628 223.126   2
   0  -2   6 446.828 110.891   3
   0  -2  -6 319.405 155.004   2
   0   2   6 643.891 127.452   3
   0  -3  -6 733.958 144.918   5
   0   3   6 974.910 139.216   3
   0   3  -6 1051.57 262.161   2
   0  -3   6 841.721 133.548   3
   0  -4   6 1025.21 141.209   3
   0   4   6 1364.88 161.884   3
   0   4  -6 1048.48 268.585   2
   0  -4  -6 938.425 163.602   5
   0   5  -6 7988.68 609.933   2
   0  -5   6 7750.77 288.095   3
   0   5   6 7790.09 301.681   3
   0  -5  -6 8193.69 325.332   5
   0   6  -6 2732.03 382.527   2
   0  -6   6 2421.66 175.320   3
   0   6   6 2671.88 193.935   3
   0  -6  -6 2614.19 209.488   5
   0   7  -6 4245.77 475.578   2
   0  -7   6 4204.58 214.864   3
   0   7   6 4691.47 243.145   3
   0  -7  -6 4355.07 247.464   5
   0  -8  -6 596.177 156.300   5
   0   8   6 801.468 144.512   3
   0   8  -6 265.343 215.542   2
   0  -8   6 277.723 91.6677   3
   0  -9  -6 240.424 136.236   5
   0   9  -6 260.379 205.830   2
   0  -9   6-61.2145 92.6183   3
   0   9   6 396.298 127.040   3
   0 -10  -6 715.794 161.397   5
   0 -10   6 705.583 114.190   3
   0  10  -6 705.052 257.233   2
   0  10   6 821.454 140.280   3
   0  11  -6 2243.12 379.280   2
   0 -11   6 2129.09 155.808   3
   0  11   6 2076.11 184.486   3
   0 -11  -6 2159.44 202.399   5
   0  12   6 1329.59 154.361   3
   0  12  -6 1331.76 320.170   2
   0 -12  -6 1405.26 181.403   5
   0  13  -6 2669.48 427.398   2
   0  13   6 2691.35 199.846   3
   0 -13  -6 2885.05 223.840   5
   0  14  -6 831.276 291.090   2
   0  14   6 905.671 134.304   3
   0 -14  -6 1116.16 190.899   5
   0  15   6 9669.18 341.666   3
   0 -15  -6 10178.5 384.140   5
   0  16   6 6734.20 288.655   3
   0 -16  -6 6969.49 333.380   5
   0  17  -6 10585.0 841.266   2
   0 -17  -6 11946.9 406.967   5
   0 -18  -6 3164.51 237.464   5
   0 -18   6 3626.24 240.672   5
   0 -19   6 2229.34 202.989   5
   0 -19  -6 1884.23 202.233   5
   0 -20  -6 313.680 144.822   5
   0 -20   6 170.245 118.222   5
   0 -21  -6 354.144 140.453   5
   0 -21   6 179.732 118.852   5
   0 -22   6-37.2309 114.241   5
   0 -22  -6 181.962 129.886   5
   0 -23  -6 249.153 128.106   5
   0 -23   6 245.970 119.459   5
   0 -24  -6 595.421 141.511   5
   0 -24   6 634.241 130.695   5
   0 -25  -6 370.262 131.245   5
   0 -25   6 323.541 110.163   5
   0 -26  -6 370.337 126.564   5
   0 -26   6 227.717 105.155   5
   0 -27   6 733.572 120.626   5
   0 -27  -6 845.217 137.141   5
   0 -28  -6 135.400 102.874   5
   0 -28   6 141.715 91.2408   5
   0 -29  -6 80.8576 86.7321   5
   0 -29   6 30.6374 80.3046   5
   0 -30  -6 280.161 91.2209   5
   0 -30   6 394.290 82.9605   5
   1   0   6 838.485 136.474   3
  -1   0   6 1116.21 157.169   3
  -1   0  -6 581.607 212.938   2
   1   0  -6 816.567 240.998   2
   1  -1   6 8597.74 304.622   3
   1   1   6 8394.96 302.877   3
  -1   1  -6 8417.70 579.912   2
  -1  -1   6 8473.38 312.026   3
  -1   1   6 8534.12 314.821   3
   1   1  -6 8937.87 616.415   2
  -1  -1  -6 8706.52 582.707   2
   1  -1  -6 8570.21 580.856   2
   1  -2   6 8611.87 307.069   3
  -1   2  -6 8134.00 567.955   2
  -1  -2   6 8636.72 315.293   3
   1   2  -6 8090.60 582.973   2
  -1   2   6 8658.92 321.606   3
  -1  -2  -6 8586.38 570.051   2
   1  -2  -6 8223.24 588.868   2
   1  -2  -6 8554.86 317.815   5
   1  -3   6 8171.62 299.300   3
   1   3   6 9066.96 318.978   3
  -1   3  -6 8535.16 594.718   2
   1   3  -6 8654.17 609.773   2
  -1  -3   6 8174.39 304.416   3
  -1   3   6 9043.56 329.602   3
   1  -3  -6 8822.60 318.872   5
   1  -4   6 3423.11 203.166   3
  -1   4  -6 3812.83 427.405   2
   1   4   6 4132.43 227.434   3
   1   4  -6 3726.70 416.249   2
  -1  -4   6 3835.13 217.929   3
  -1   4   6 4287.81 245.617   3
   1  -4  -6 3914.81 231.220   5
   1  -5   6 6911.86 274.140   3
  -1   5  -6 7427.91 577.854   2
   1   5   6 7405.91 289.032   3
   1   5  -6 7351.57 573.553   2
  -1  -5   6 7160.83 279.640   3
  -1   5   6 7878.21 315.520   3
  -1  -5  -6 7752.41 330.119   5
   1  -5  -6 7657.15 298.768   5
  -1   6  -6 3310.81 408.882   2
   1  -6   6 3545.09 205.655   3
   1   6   6 3468.45 207.867   3
   1   6  -6 4261.48 461.001   2
  -1  -6   6 3922.79 212.076   3
  -1   6   6 3837.48 237.436   3
  -1  -6  -6 3621.53 237.277   5
   1  -6  -6 3512.86 217.182   5
  -1   7  -6 7858.95 605.386   2
   1  -7   6 7749.93 287.958   3
   1   7  -6 8408.43 638.798   2
   1   7   6 7976.59 297.669   3
  -1  -7   6 7878.34 288.447   3
  -1   7   6 8279.33 323.032   3
   1  -7  -6 8212.09 311.332   5
  -1  -7  -6 7771.78 326.914   5
  -1   8  -6 4778.32 505.160   2
   1  -8   6 4353.81 221.537   3
   1   8  -6 5419.88 530.272   2
   1   8   6 5042.65 243.511   3
  -1  -8   6 4879.40 233.002   3
  -1   8   6 5620.28 277.020   3
   1  -8  -6 5262.08 266.371   5
  -1  -8  -6 5057.32 278.501   5
  -1   9  -6 2465.13 394.153   2
   1  -9   6 2427.15 176.121   3
   1   9  -6 2525.96 397.334   2
   1   9   6 2322.67 175.831   3
  -1  -9   6 2081.52 160.461   3
  -1   9   6 2832.75 214.868   3
  -1  -9  -6 2598.12 221.396   5
   1  -9  -6 2249.69 197.825   5
  -1  10  -6 9133.64 698.680   2
   1 -10   6 9905.62 320.743   3
   1  10  -6 10614.6 740.505   2
  -1 -10   6 9859.48 309.970   3
   1  10   6 10025.4 334.955   3
  -1  10   6 10242.1 355.123   3
  -1 -10  -6 10079.1 369.863   5
   1 -10  -6 9873.61 345.296   5
  -1  11  -6 10363.0 751.198   2
   1 -11   6 10327.6 322.442   3
   1  11  -6 9966.66 724.558   2
   1 -11  -6 10647.8 360.899   5
   1  11   6 11110.5 353.478   3
  -1  11   6 10415.5 356.668   3
  -1 -11  -6 10848.2 387.752   5
   1 -12   6 1112.70 129.509   3
   1 -12  -6 1814.39 209.484   5
   1  12   6 1330.60 149.444   3
  -1 -12  -6 1609.30 204.123   5
  -1  12   6 2182.47 202.807   3
  -1  12  -6 1387.22 344.869   2
   1  12  -6 1761.49 355.955   2
  -1  13  -6 14864.1 928.250   2
   1  13  -6 15638.7 939.434   2
   1  13   6 16298.8 424.472   3
  -1  13   6 15238.4 436.288   3
   1 -13  -6 15480.6 433.842   5
  -1 -13  -6 15345.9 453.821   5
   1  14  -6 9632.02 761.175   2
   1  14   6 10435.6 345.551   3
  -1  14   6 10272.0 360.537   3
  -1 -14  -6 10190.8 384.079   5
   1 -14  -6 10130.0 365.008   5
  -1  15  -6 2532.60 443.952   2
   1  15  -6 2876.47 464.154   2
   1  15   6 2403.30 186.754   3
  -1  15   6 2589.69 207.099   3
  -1 -15  -6 2913.95 247.147   5
   1 -15  -6 2917.38 245.887   5
  -1  16  -6 33038.7 1448.18   2
   1  16  -6 34881.9 1463.32   2
  -1  16   6 37715.8 656.281   3
  -1 -16  -6 36161.2 680.928   5
   1 -16  -6 34939.3 656.436   5
  -1  17  -6 19807.6 1144.12   2
   1  17  -6 20250.8 1138.38   2
  -1 -17   6 24939.1 524.844   5
   1 -17   6 26003.2 557.795   5
  -1  17   6 24100.3 530.691   3
  -1 -17  -6 22829.3 553.789   5
   1 -17  -6 22376.9 536.301   5
  -1 -18   6 6085.19 293.493   5
   1 -18   6 6289.36 300.860   5
  -1 -18  -6 5732.10 301.565   5
   1 -18  -6 5903.38 304.981   5
  -1 -19   6 2368.77 195.262   5
   1 -19   6 2490.44 214.838   5
  -1 -19  -6 1879.87 199.657   5
   1 -19  -6 2104.46 205.793   5
  -1 -20   6 1617.56 161.676   5
   1 -20   6 1473.44 178.937   5
   1 -20  -6 1370.72 182.653   5
  -1 -20  -6 1322.85 176.859   5
  -1 -21   6 3748.66 217.724   5
   1 -21   6 3903.21 241.655   5
  -1 -21  -6 3646.44 242.597   5
   1 -21  -6 3490.39 237.306   5
  -1 -22   6 874.511 135.841   5
  -1 -22  -6 555.606 144.838   5
   1 -22  -6 734.067 161.496   5
   1 -22   6 672.978 143.295   5
  -1 -23   6 4703.90 232.682   5
   1 -23   6 5344.04 270.812   5
  -1 -23  -6 4401.33 253.233   5
   1 -23  -6 4590.77 258.417   5
  -1 -24   6 3369.38 196.420   5
   1 -24   6 3709.16 231.209   5
  -1 -24  -6 3372.93 221.080   5
   1 -24  -6 3373.59 227.614   5
  -1 -25   6 2798.65 175.316   5
   1 -25   6 3301.87 215.370   5
  -1 -25  -6 2651.69 196.229   5
   1 -25  -6 2963.86 211.388   5
  -1 -26   6 1487.34 133.506   5
   1 -26   6 1588.19 159.378   5
  -1 -26  -6 1404.23 154.551   5
   1 -26  -6 1496.14 167.437   5
   1 -27   6 1453.95 151.664   5
  -1 -27  -6 1055.73 134.814   5
   1 -27  -6 1532.22 160.492   5
   1 -28   6 1980.30 159.689   5
  -1 -28  -6 1649.59 144.262   5
   1 -28  -6 1773.12 160.473   5
   1 -29   6 2246.32 158.127   5
   1 -29  -6 2097.75 158.973   5
   2   0   6 1106.21 143.193   3
   2   0  -6 867.888 228.875   2
  -2   0   6 658.938 137.484   3
   2  -1   6 825.573 132.350   3
   2   1   6 877.354 134.350   3
  -2   1  -6 482.664 172.692   2
   2   1  -6 589.644 234.499   2
   2  -1  -6 654.079 230.620   2
  -2  -1   6 441.475 127.451   3
  -2   1   6 453.411 129.700   3
   2  -2   6 1826.42 168.736   3
   2   2   6 2062.33 172.855   3
  -2   2   6 1733.80 180.175   3
   2  -2  -6 1844.71 179.195   5
  -2   2  -6 1464.39 270.386   2
   2   2  -6 1658.73 305.713   2
  -2  -2   6 1402.76 160.718   3
   2  -3   6 6186.89 268.326   3
   2   3   6 6263.29 269.205   3
  -2   3  -6 6245.54 506.631   2
   2   3  -6 6304.46 542.678   2
  -2  -3   6 6153.44 280.967   3
  -2   3   6 5973.61 289.410   3
   2  -3  -6 6253.84 278.731   5
   2  -4   6 3625.57 218.581   3
   2   4   6 4502.26 236.940   3
  -2   4  -6 3434.44 397.038   2
   2   4  -6 3506.19 427.540   2
  -2  -4   6 3890.45 234.652   3
  -2   4   6 3865.88 251.133   3
   2  -4  -6 3584.99 236.270   5
   2  -5  -6 2527.38 198.214   5
   2  -5   6 2397.77 185.121   3
   2   5   6 2736.52 190.876   3
  -2   5  -6 2369.12 350.767   2
   2   5  -6 2562.73 373.190   2
  -2  -5   6 2449.47 190.163   3
  -2   5   6 2167.95 195.197   3
   2  -6   6 2573.74 191.139   3
  -2   6  -6 2502.07 367.675   2
   2   6   6 2595.56 190.461   3
   2   6  -6 2629.89 377.768   2
  -2  -6   6 2580.06 192.613   3
  -2   6   6 2353.18 208.211   3
   2  -6  -6 2492.38 203.036   5
   2  -7   6 2568.51 190.118   3
  -2   7  -6 2478.74 375.348   2
   2   7   6 3201.45 206.895   3
   2   7  -6 2750.48 393.756   2
  -2  -7   6 2765.52 191.458   3
  -2   7   6 2591.26 219.896   3
  -2  -7  -6 2592.76 237.457   5
   2  -7  -6 2832.27 213.403   5
   2  -8   6 1980.01 171.229   3
  -2   8  -6 2093.32 356.885   2
   2   8   6 2373.34 182.048   3
   2   8  -6 1911.01 341.481   2
  -2  -8   6 2016.08 164.979   3
  -2   8   6 1843.61 193.037   3
  -2  -8  -6 1791.44 209.985   5
   2  -8  -6 2198.86 193.148   5
   2  -9   6 1720.80 154.700   3
  -2   9  -6 1917.23 351.498   2
   2   9   6 2086.07 171.743   3
   2   9  -6 1842.49 346.250   2
  -2  -9   6 1595.20 147.472   3
  -2   9   6 1600.25 185.281   3
  -2  -9  -6 1581.99 193.933   5
   2  -9  -6 2055.71 193.607   5
  -2 -10  -6 195.099 142.140   5
   2 -10  -6 473.216 145.816   5
  -2  10  -6 366.147 223.638   2
   2 -10   6 325.231 100.708   3
   2  10  -6 495.190 249.323   2
   2  10   6 518.546 117.327   3
  -2  10   6 165.386 131.301   3
   2 -11   6 1939.08 161.488   3
   2  11   6 2389.75 180.068   3
  -2  11   6 1683.08 186.102   3
  -2  11  -6 1575.63 352.432   2
   2  11  -6 1812.44 346.988   2
  -2 -11  -6 1899.34 207.911   5
   2 -11  -6 2252.90 201.397   5
   2 -12   6 843.234 125.783   3
  -2 -12  -6 978.597 181.044   5
   2  12   6 1255.83 150.957   3
  -2  12  -6 975.290 311.608   2
   2  12  -6 762.719 293.767   2
  -2  12   6 862.466 158.830   3
   2 -12  -6 1188.90 178.150   5
   2 -13   6 2452.58 179.519   3
  -2  13  -6 2277.10 424.339   2
   2  13   6 2912.23 202.111   3
   2  13  -6 2614.57 422.171   2
  -2  13   6 2223.22 206.133   3
  -2 -13  -6 2657.05 238.780   5
   2 -13  -6 2706.76 219.755   5
  -2  14  -6 5800.36 606.258   2
   2  14   6 6833.87 289.213   3
  -2 -14  -6 5792.00 312.185   5
   2  14  -6 5602.15 583.403   2
  -2  14   6 6149.90 298.328   3
   2 -14  -6 6226.67 291.371   5
   2  15  -6 1955.06 375.144   2
  -2  15   6 2575.09 211.457   3
  -2  15  -6 1659.15 366.288   2
  -2 -15  -6 1839.11 209.961   5
   2 -15  -6 2224.16 200.088   5
   2  16  -6 2282.36 399.644   2
  -2  16   6 2585.88 204.154   3
  -2  16  -6 1749.19 373.432   2
  -2 -16  -6 2643.13 229.774   5
   2 -16  -6 2370.68 209.362   5
  -2 -17  -6 438.065 151.725   5
   2 -17  -6 424.372 147.277   5
  -2  17   6 755.850 145.265   3
  -2 -17   6 510.918 120.911   5
   2 -17   6 573.458 155.549   5
  -2 -18   6 4582.41 227.862   5
   2 -18   6 5286.90 282.382   5
  -2 -18  -6 4340.21 272.884   5
   2 -18  -6 4821.31 273.577   5
  -2 -19   6 3439.37 196.574   5
   2 -19   6 3967.73 252.604   5
  -2 -19  -6 3592.57 245.838   5
   2 -19  -6 3483.10 239.923   5
   2 -20   6 1205.76 176.354   5
  -2 -20  -6 799.528 152.576   5
   2 -20  -6 1040.02 171.964   5
  -2 -21  -6 529.609 134.924   5
   2 -21  -6 484.994 140.682   5
   2 -21   6 528.995 145.029   5
  -2 -22  -6 830.688 145.852   5
   2 -22  -6 954.908 162.096   5
   2 -22   6 974.967 159.050   5
  -2 -23  -6 309.391 123.359   5
   2 -23  -6 443.779 144.289   5
   2 -23   6 377.253 134.086   5
  -2 -24  -6 328.751 114.620   5
   2 -24  -6 483.501 137.876   5
   2 -24   6 470.177 127.597   5
  -2 -25  -6 353.935 106.220   5
   2 -25  -6 561.831 133.111   5
   2 -25   6 482.363 125.893   5
  -2 -26  -6 77.1707 91.9219   5
   2 -26  -6 152.916 111.622   5
   2 -26   6 129.431 104.458   5
   2 -27  -6 704.136 127.583   5
   2 -27   6 691.987 124.602   5
   2 -28  -6 554.310 115.566   5
   2 -28   6 542.404 115.484   5
   2 -29  -6 453.611 105.606   5
   2 -29   6 390.601 102.467   5
   3   0   6 2128.50 184.648   3
  -3   0   6 1466.69 189.382   3
   3  -1   6 6074.03 274.340   3
   3   1   6 5624.77 260.369   3
  -3  -1   6 6390.16 308.372   3
  -3   1   6 5697.04 302.474   3
   3   1  -6 5799.64 501.718   2
   3  -2   6 3766.93 234.275   3
   3   2   6 3998.55 233.748   3
  -3  -2   6 3205.59 234.846   3
  -3   2   6 3479.09 259.184   3
   3   2  -6 3281.80 390.249   2
   3  -3   6 15335.0 419.954   3
   3   3   6 15202.8 415.724   3
  -3  -3   6 16427.9 468.251   3
   3   3  -6 16419.4 849.406   2
  -3   3   6 15084.6 474.153   3
   3  -3  -6 15559.9 426.004   5
   3  -4   6 14046.3 401.623   3
   3   4   6 14193.1 401.555   3
  -3  -4   6 13649.7 420.813   3
   3   4  -6 14694.0 820.043   2
  -3   4   6 14101.5 466.340   3
   3  -4  -6 14840.0 412.785   5
   3  -5   6 2040.81 178.756   3
   3  -5  -6 1967.06 190.658   5
  -3  -5   6 1615.99 171.277   3
  -3   5   6 2191.75 230.703   3
   3   5  -6 1666.95 318.716   2
   3  -6   6 2174.18 179.744   3
   3   6   6 2343.41 183.743   3
   3   6  -6 2205.07 354.700   2
  -3  -6   6 1875.04 175.405   3
  -3   6   6 2112.36 223.008   3
   3  -6  -6 2316.85 191.204   5
   3  -7   6 1849.62 172.697   3
   3   7   6 1962.51 169.655   3
   3   7  -6 2285.83 350.657   2
  -3  -7   6 2414.79 194.647   3
  -3   7   6 1685.62 210.704   3
   3  -7  -6 1990.76 182.000   5
   3  -8   6 990.759 145.171   3
   3   8   6 1300.93 149.285   3
  -3  -8   6 1408.29 154.644   3
   3   8  -6 992.472 277.439   2
  -3   8   6 1068.85 189.668   3
   3  -8  -6 1368.39 169.665   5
   3  -9   6 11451.9 362.796   3
  -3   9  -6 10254.4 723.188   2
   3   9   6 11690.3 363.909   3
   3   9  -6 11274.4 753.245   2
  -3  -9   6 11628.5 353.563   3
  -3   9   6 11409.3 430.044   3
   3  -9  -6 11560.4 369.163   5
   3 -10   6 7685.73 299.182   3
  -3  10  -6 7027.86 624.167   2
   3  10   6 8003.28 304.724   3
   3  10  -6 7329.92 620.386   2
  -3  10   6 7765.51 360.799   3
   3 -10  -6 7738.71 306.212   5
   3 -11   6 4991.43 245.956   3
  -3  11  -6 4266.18 512.438   2
   3  11   6 5433.22 256.668   3
   3  11  -6 4711.93 512.189   2
  -3  11   6 5603.18 317.133   3
   3 -11  -6 5727.47 273.602   5
   3 -12   6 1874.54 168.154   3
   3  12   6 2125.33 177.103   3
   3  12  -6 1874.11 353.660   2
  -3  12   6 1830.74 210.441   3
  -3  12  -6 1811.83 375.284   2
  -3 -12  -6 1960.75 210.948   5
   3 -12  -6 2157.78 198.930   5
   3 -13   6 12057.2 367.563   3
  -3  13  -6 10899.1 815.758   2
   3  13   6 12599.1 386.082   3
   3  13  -6 11016.0 780.474   2
  -3  13   6 11907.0 429.755   3
  -3 -13  -6 12277.9 421.775   5
   3 -13  -6 12428.4 389.230   5
   3 -14   6 24045.4 507.024   3
  -3 -14  -6 25149.6 589.415   5
   3  14  -6 25063.3 1168.40   2
  -3  14   6 26151.6 618.736   3
   3 -14  -6 25260.4 537.293   5
   3 -15   6 10537.3 361.262   5
  -3  15   6 11164.3 416.689   3
  -3 -15  -6 9913.92 375.529   5
   3 -15  -6 11171.2 379.693   5
   3 -16   6 4773.68 260.065   5
  -3  16   6 4220.22 258.091   3
  -3 -16  -6 4496.60 261.267   5
   3 -16  -6 4380.62 252.193   5
   3 -17   6 9423.47 344.441   5
  -3  17   6 9745.94 378.450   3
  -3 -17  -6 8887.49 348.183   5
   3 -17  -6 9540.88 350.598   5
  -3  18   6 5805.58 293.064   3
  -3 -18  -6 5351.55 276.826   5
   3 -18  -6 6088.15 288.937   5
   3 -19   6 3045.85 226.978   5
   3 -19  -6 2525.75 208.118   5
   3 -20   6 12915.5 397.036   5
   3 -20  -6 11395.6 373.249   5
   3 -21   6 3245.55 226.928   5
   3 -21  -6 3305.21 226.000   5
   3 -22   6 5135.69 260.874   5
   3 -22  -6 4599.25 249.045   5
   3 -23   6 1964.74 182.256   5
   3 -23  -6 1573.69 170.837   5
   3 -24   6 5193.57 252.921   5
   3 -24  -6 4786.91 245.109   5
   3 -25   6 1038.64 139.728   5
   3 -25  -6 1131.67 148.068   5
   3 -26   6 3742.94 208.877   5
   3 -26  -6 3608.26 207.269   5
   3 -27   6 2046.45 158.756   5
   3 -27  -6 1865.96 154.048   5
   3 -28   6 2543.21 166.561   5
   3 -28  -6 2270.70 158.503   5
   4   0   6 1044.61 145.456   3
  -4   0   6 894.344 187.539   3
   4  -1   6 2042.76 181.340   3
   4   1   6 2297.16 187.499   3
  -4  -1   6 2006.24 222.810   3
  -4   1   6 2289.64 238.536   3
   4  -2   6 2950.19 211.865   3
   4   2   6 3084.12 208.185   3
  -4  -2   6 3180.92 254.179   3
  -4   2   6 3154.23 261.288   3
   4  -3   6 728.696 135.323   3
   4   3   6 802.255 130.471   3
  -4  -3   6 452.665 152.845   3
  -4   3   6 786.073 192.296   3
   4  -4  -6 183.440 128.215   5
   4  -4   6 155.346 106.213   3
   4   4   6 132.571 96.9669   3
   4   4  -6 63.9687 163.433   2
  -4  -4   6 117.349 140.036   3
  -4   4   6 524.684 183.265   3
   4  -5  -6 419.062 133.370   5
   4  -5  -6 590.507 147.911   4
   4  -5   6 585.257 129.573   3
   4   5   6 365.143 110.140   3
   4   5  -6 623.300 218.962   2
  -4  -5   6 458.384 141.925   3
  -4   5   6 706.341 193.580   3
   4   6   6 829.043 136.164   3
   4  -6  -6 455.298 143.473   5
   4  -6  -6 719.225 163.631   4
   4  -6   6 629.611 137.722   3
   4   6  -6 499.040 244.445   2
  -4  -6   6 661.418 145.821   3
  -4   6   6 827.289 202.493   3
   4  -7   6 4966.21 264.513   3
   4   7   6 5015.32 248.683   3
   4  -7  -6 5284.80 260.910   4
  -4  -7   6 4642.58 262.600   3
   4   7  -6 4616.48 497.996   2
  -4   7   6 4885.67 319.271   3
   4  -7  -6 5246.72 265.922   5
   4  -8   6 2113.12 187.818   3
   4   8   6 2217.37 181.288   3
   4  -8  -6 2577.55 202.696   4
  -4  -8   6 1965.96 182.426   3
   4   8  -6 2017.98 351.721   2
  -4   8   6 2559.77 257.954   3
   4  -8  -6 2331.73 201.197   5
   4  -9   6 3611.59 233.311   3
   4   9   6 3704.06 223.258   3
   4  -9  -6 4069.75 235.933   4
   4   9  -6 3262.12 439.191   2
  -4   9   6 3508.76 283.086   3
   4  -9  -6 4062.93 236.986   5
   4 -10   6 1838.76 180.081   3
   4  10   6 2033.74 173.530   3
   4 -10  -6 2313.64 198.908   4
   4  10  -6 1744.48 352.863   2
  -4  10   6 2177.51 244.252   3
   4 -10  -6 2133.09 199.939   5
   4 -11  -6 592.690 145.406   5
   4 -11   6 529.277 124.992   3
   4  11   6 482.496 119.663   3
   4  11  -6 797.765 257.195   2
   4 -11  -6 801.874 154.368   4
  -4  11   6 791.281 191.002   3
   4 -12  -6 484.417 133.791   5
   4 -12   6 336.046 113.581   3
   4  12   6 286.228 105.753   3
   4  12  -6 551.757 232.185   2
   4 -12  -6 435.274 134.290   4
  -4  12   6 432.551 166.859   3
   4 -13   6 1145.09 153.550   3
   4  13   6 1471.46 164.064   3
   4 -13   6 1500.01 168.501   5
   4 -13  -6 1514.24 172.070   4
  -4  13   6 1539.76 206.464   3
   4 -13  -6 1528.79 171.701   5
   4 -14   6 1765.24 172.995   3
   4 -14   6 2022.52 189.174   5
   4 -14  -6 2202.91 195.114   4
  -4  14   6 1880.79 220.278   3
   4 -14  -6 2273.07 194.171   5
   4 -15   6 1118.57 159.119   5
  -4  15   6 1047.31 176.018   3
   4 -15  -6 1117.23 157.743   5
   4 -15   6 1079.93 143.614   3
   4 -16   6 989.589 148.929   5
  -4  16   6 774.404 158.895   3
   4 -16  -6 1011.40 150.717   5
   4 -17  -6 664.981 142.744   5
   4 -17   6 648.135 138.267   5
  -4  17   6 481.430 134.927   3
   4 -18  -6 267.541 115.234   5
   4 -18   6 189.828 115.164   5
  -4  18   6-47.5054 124.925   3
   4 -19   6 20.1929 109.431   5
  -4  19   6-147.538 125.828   3
   4 -20  -6 429.446 128.262   5
   4 -20   6 407.987 127.582   5
   4 -21   6 1230.77 153.863   5
   4 -21  -6 1443.27 163.912   5
   4 -22   6 758.862 136.656   5
   4 -22   6 571.292 108.932   4
   4 -22  -6 899.415 142.834   5
   4 -23  -6 305.798 117.664   5
   4 -23   6 241.568 105.984   5
   4 -24  -6 390.295 112.038   5
   4 -24   6 318.070 108.642   5
   4 -25   6 1223.49 140.295   5
   4 -25  -6 1301.33 140.054   5
   4 -26  -6 162.770 91.3361   5
   4 -26   6 266.946 95.8652   5
   4 -27  -6 461.904 98.8811   5
   4 -27   6 308.808 93.5785   5
   5   0   6 1013.29 159.507   3
  -5   0   6 813.227 212.376   3
   5  -1   6 3244.35 225.142   3
   5   1   6 3338.57 226.057   3
  -5  -1   6 3870.62 295.817   3
  -5   1   6 3808.16 295.448   3
   5  -2   6 2001.78 202.343   3
   5   2   6 2285.18 204.306   3
   5  -2  -6 1008.38 161.511   4
  -5  -2   6 982.075 205.968   3
  -5   2   6 1160.64 219.905   3
   5  -3   6 7238.82 323.733   3
   5   3   6 7282.02 316.557   3
   5  -3  -6 7737.86 301.857   4
  -5  -3   6 7947.34 377.477   3
  -5   3   6 7795.18 395.967   3
   5  -4   6 2925.99 231.496   3
   5   4   6 2835.88 214.201   3
   5  -4  -6 2630.72 205.615   4
  -5  -4   6 2343.83 237.511   3
  -5   4   6 2930.16 287.267   3
   5  -5   6 5147.84 279.952   3
   5   5   6 4797.42 265.002   3
   5  -5  -6 5405.70 261.024   4
  -5  -5   6 5086.61 302.694   3
  -5   5   6 5490.86 350.246   3
   5  -6   6 4331.95 263.263   3
   5   6   6 3705.58 242.311   3
   5  -6  -6 3729.68 234.211   4
  -5  -6   6 3276.33 246.627   3
  -5   6   6 3951.27 312.806   3
   5  -7   6 12120.2 408.951   3
   5   7   6 11532.5 392.403   3
   5  -7  -6 12275.1 376.401   4
  -5  -7   6 11845.4 422.276   3
  -5   7   6 12157.6 483.942   3
   5  -7  -6 12852.8 370.981   5
   5  -8   6 3310.98 230.932   3
   5   8   6 3072.49 217.247   3
   5  -8  -6 3505.10 216.984   5
   5  -8  -6 3886.90 236.167   4
   5   8  -6 2796.14 410.837   2
  -5   8   6 3796.60 313.379   3
   5  -9   6 1764.76 187.585   3
   5   9   6 1798.61 174.690   3
   5  -9  -6 1984.39 187.989   4
  -5   9   6 1900.55 245.712   3
   5  -9  -6 1876.15 172.604   5
   5 -10   6 3932.10 246.970   3
   5  10   6 4026.04 238.041   3
   5 -10  -6 4009.10 240.851   4
  -5  10   6 4226.47 307.936   3
   5 -10  -6 4034.18 230.756   5
   5  11   6 14437.1 419.797   3
   5 -11   6 13337.5 380.656   5
   5 -11  -6 15024.3 416.952   4
  -5  11   6 13822.1 508.556   3
   5 -11  -6 14609.9 400.464   5
   5 -11   6 13868.5 435.799   3
   5 -12   6 1746.97 175.118   5
   5 -12  -6 2001.19 188.878   4
  -5  12   6 2039.13 235.596   3
   5 -12  -6 1929.43 180.095   5
   5 -12   6 1904.77 191.314   3
   5 -13   6 5361.40 253.453   5
   5 -13  -6 5816.75 270.177   4
  -5  13   6 5969.65 339.835   3
   5 -13  -6 5708.95 258.274   5
   5 -13   6 5051.53 266.132   3
   5 -14   6 4142.59 229.366   5
   5 -14  -6 4653.83 242.712   4
  -5  14   6 4943.62 311.649   3
   5 -14  -6 4684.05 237.791   5
   5 -15   6 2781.42 196.554   5
   5 -15  -6 2871.68 204.002   4
  -5  15   6 2707.04 249.698   3
   5 -15  -6 2867.80 198.131   5
   5 -15   6 2566.48 193.672   3
   5 -16   6 3137.85 203.178   5
   5 -16  -6 2789.03 199.683   4
  -5  16   6 3114.54 247.064   3
   5 -16  -6 2836.28 193.452   5
   5 -17   6 6403.34 269.812   5
  -5  17   6 5938.69 326.263   3
   5 -17  -6 5986.52 259.937   5
   5 -18  -6 579.482 124.580   5
   5 -18   6 671.804 129.792   5
  -5  18   6 425.609 130.323   3
  -5  19   6 3176.98 226.991   3
   5 -19  -6 3520.63 205.258   5
   5 -20  -6 378.127 112.022   5
   5 -20   6 414.460 117.973   5
   5 -20   6 311.220 105.000   4
   5 -21   6 3471.92 199.649   5
   5 -21   6 2953.25 185.359   4
   5 -21  -6 3199.41 188.135   5
   5 -22  -6 327.962 106.837   5
   5 -22   6 171.001 94.5633   5
   5 -22   6 196.685 83.5440   4
   5 -23   6 3363.42 188.385   5
   5 -23   6 2796.99 164.858   4
   5 -23  -6 3091.97 177.605   5
   5 -24  -6 582.122 103.543   5
   5 -24   6 556.810 106.253   5
   5 -25   6 1138.20 120.782   5
   5 -25  -6 994.110 114.430   5
   6   0   6 975.557 163.450   3
  -6   0   6 978.774 210.889   3
   6  -1   6 1701.08 191.021   3
   6   1   6 1571.42 178.831   3
   6  -1  -6 1748.38 171.903   4
  -6  -1   6 1784.00 235.849   3
  -6   1   6 1990.52 254.458   3
   6  -2   6 1215.91 172.809   3
   6   2   6 1249.72 171.112   3
   6  -2  -6 1363.46 162.498   4
  -6  -2   6 1433.51 217.384   3
  -6   2   6 1576.27 252.138   3
   6  -3   6 1068.40 172.085   3
   6   3   6 1210.97 166.227   3
   6  -3  -6 952.386 152.434   4
  -6   3   6 1340.49 240.162   3
  -6  -3   6 1138.64 201.877   3
   6  -4   6 1860.13 198.541   3
   6   4   6 1620.20 183.786   3
   6  -4  -6 2017.25 179.776   4
  -6  -4   6 1945.83 224.921   3
  -6   4   6 2305.41 272.151   3
   6  -5   6 1258.58 183.344   3
   6   5   6 881.468 151.060   3
   6  -5  -6 1124.19 157.147   4
  -6  -5   6 1081.43 189.827   3
  -6   5   6 1258.42 237.534   3
   6   6   6 1301.58 165.389   3
   6  -6  -6 1880.63 178.356   4
  -6  -6   6 1356.55 185.010   3
  -6   6   6 2060.63 269.446   3
   6  -6   6 1557.78 192.336   3
   6  -7   6 687.837 121.275   5
   6   7   6 664.649 135.712   3
   6  -7  -6 816.254 151.299   4
  -6  -7   6 429.456 139.181   3
  -6   7   6 949.338 228.792   3
   6  -7   6 1148.18 172.057   3
   6   8   6 1089.96 156.342   3
   6  -8   6 1135.64 137.314   5
   6  -8  -6 1237.95 161.538   4
  -6   8   6 1542.89 247.046   3
   6  -8   6 1120.35 176.713   3
   6   9   6 1247.73 161.168   3
   6  -9   6 1065.04 138.658   5
   6  -9  -6 1158.27 161.708   4
  -6   9   6 1567.59 244.357   3
   6  -9   6 987.452 170.524   3
   6 -10   6 2868.65 185.293   5
   6 -10  -6 3262.72 218.427   4
  -6  10   6 3398.23 301.126   3
   6 -10   6 2907.21 231.336   3
   6  10   6 2856.51 211.204   3
   6 -11   6 600.014 121.890   5
   6 -11   6 571.518 144.216   3
   6  11   6 439.692 117.844   3
   6 -11  -6 656.814 137.570   4
  -6  11   6 818.527 201.191   3
   6 -12   6 1187.58 137.298   5
   6 -12  -6 1237.39 150.708   4
  -6  12   6 1317.95 212.141   3
   6 -12   6 1095.81 164.094   3
   6 -13   6 2232.40 177.531   5
   6 -13  -6 2591.09 197.470   4
  -6  13   6 2711.16 261.019   3
   6 -13   6 2302.75 202.148   3
   6 -14   6 272.381 105.368   5
   6 -14  -6 410.630 124.129   4
  -6  14   6 383.403 160.813   3
   6 -15   6 230.550 100.955   5
   6 -15  -6 146.827 104.655   4
  -6  15   6 153.165 144.621   3
   6 -16   6 224.413 98.2417   5
   6 -16  -6 312.252 111.814   4
  -6  16   6 236.382 139.131   3
   6 -17  -6 268.671 98.9183   5
   6 -17   6 298.577 99.0608   5
   6 -17  -6 214.171 100.033   4
  -6  17   6 112.503 123.648   3
   6 -17   6 214.544 108.069   4
   6 -18  -6 151.287 87.3614   5
   6 -18   6 159.788 92.1614   5
  -6  18   6 195.373 121.038   3
   6 -18   6 129.094 93.9535   4
   6 -19  -6 82.3617 82.1235   5
   6 -19   6 310.193 97.3684   5
  -6  19   6-34.7687 111.706   3
   6 -19   6 71.8572 86.6243   4
   6 -20  -6 735.095 106.265   5
   6 -20   6 641.408 108.901   5
  -6  20   6 334.307 103.488   3
   6 -20   6 644.034 108.632   4
   6 -21  -6 1191.80 118.991   5
   6 -21   6 1323.92 128.378   5
   6 -21   6 1092.52 120.931   4
   6 -22  -6 249.690 83.7119   5
   6 -22   6 307.655 90.5249   5
   6 -22   6 295.456 86.4263   4
   6 -23  -6 182.242 75.9187   5
   6 -23   6 191.699 81.2316   5
   6 -23   6 119.413 71.7052   4
  -7   0   6 2995.53 276.357   3
   7   0   6 3239.39 243.349   3
  -7  -1   6 2366.64 255.612   3
  -7   1   6 2471.71 266.756   3
   7  -1   6 2790.63 235.223   3
   7   1   6 2459.56 216.057   3
   7  -2  -6 1199.43 155.049   4
  -7   2   6 1335.74 229.455   3
  -7  -2   6 1114.76 201.899   3
   7  -2   6 1584.18 192.948   3
   7   2   6 1549.56 183.130   3
   7  -3  -6 1760.59 171.951   4
  -7  -3   6 1450.32 207.024   3
  -7   3   6 1871.80 258.659   3
   7  -3   6 1625.01 198.059   3
   7   3   6 1645.43 189.193   3
   7  -4  -6 2108.78 179.549   4
  -7  -4   6 1756.53 213.295   3
  -7   4   6 2097.26 260.550   3
   7  -4   6 1891.02 206.873   3
   7   4   6 1640.66 185.523   3
   7  -5  -6 1715.63 170.444   4
  -7  -5   6 1548.04 198.571   3
  -7   5   6 2084.96 269.211   3
   7  -5   6 1804.17 207.915   3
   7   5   6 2117.99 207.199   3
   7  -6  -6 5110.01 252.401   4
  -7  -6   6 4373.93 279.326   3
  -7   6   6 5498.36 366.292   3
   7  -6   6 4740.48 288.166   3
   7   6   6 4986.73 282.483   3
   7  -7  -6 7298.45 297.201   4
  -7   7   6 8077.06 425.327   3
   7  -7   6 6962.15 342.761   3
   7   7   6 8119.90 339.993   3
   7  -8  -6 17304.4 432.090   4
  -7   8   6 18040.4 603.050   3
   7  -8   6 15826.3 486.199   3
   7   8   6 15613.4 447.620   3
   7  -9  -6 6981.23 294.392   4
  -7   9   6 7454.56 406.546   3
   7   9   6 7770.37 323.643   3
   7 -10  -6 15385.3 400.943   4
  -7  10   6 16330.6 552.282   3
   7 -11  -6 3545.98 211.566   4
  -7  11   6 3437.61 291.767   3
   7 -12  -6 4334.20 224.066   4
  -7  12   6 4456.91 305.890   3
   7 -12   6 4455.32 255.825   4
   7 -13  -6 2431.57 176.412   4
  -7  13   6 2478.36 243.118   3
   7 -13   6 2536.33 201.659   4
   7 -14  -6 3577.17 201.906   4
  -7  14   6 3620.70 272.447   3
   7 -14   6 3631.39 226.063   4
   7 -15  -6 340.961 106.973   4
  -7  15   6 247.581 142.325   3
   7 -15   6 401.770 117.477   4
   7 -16  -6 1583.42 145.804   4
  -7  16   6 1403.73 180.198   3
   7 -16   6 1706.95 158.488   4
   7 -17  -6 586.617 106.977   4
  -7  17   6 386.673 128.533   3
   7 -17   6 628.718 117.834   4
  -7  18   6 1498.43 162.885   3
   7 -18   6 1731.71 149.843   4
   7 -19   6 748.492 112.484   4
  -7  19   6 530.578 113.291   3
  -7  20   6 1175.35 130.910   3
   7 -20   6 1492.13 130.463   4
  -8   0   6 2978.81 264.678   3
   8   0   6 3301.07 194.621   4
  -8  -1   6 3309.63 263.741   3
  -8   1   6 3663.18 287.452   3
   8   1   6 3517.51 194.677   4
   8  -1   6 3579.88 205.799   4
   8  -2   6 1440.81 149.381   4
  -8  -2   6 922.616 175.973   3
  -8   2   6 1101.00 205.937   3
  -8  -3   6 628.842 154.432   3
  -8   3   6 911.536 200.742   3
   8  -3   6 663.777 117.764   4
   8  -4  -6 503.680 118.208   4
  -8  -4   6 220.636 127.111   3
  -8   4   6 561.929 180.264   3
   8  -4   6 489.704 110.837   4
   8  -5  -6 438.456 119.591   4
  -8  -5   6 220.391 121.641   3
   8  -5   6 326.206 106.417   4
   8  -6  -6 899.508 151.934   4
  -8   6   6 754.185 200.691   3
   8  -6   6 525.161 116.788   4
   8  -7  -6 1570.83 153.980   4
  -8   7   6 1679.23 228.684   3
   8  -7   6 1244.69 148.320   4
   8  -8   6 562.086 127.362   4
   8  -8  -6 509.013 116.915   4
  -8   8   6 420.842 179.211   3
   8  -9  -6 855.890 128.156   4
   8  -9   6 757.105 130.909   4
  -8   9   6 785.041 187.020   3
   8 -10  -6 2291.20 168.503   4
  -8  10   6 2506.68 249.173   3
   8 -10   6 2277.55 181.545   4
   8 -11  -6 1720.69 150.700   4
  -8  11   6 1840.23 215.357   3
   8 -11   6 1577.89 158.432   4
   8 -12  -6 476.232 107.149   4
  -8  12   6 335.289 148.546   3
   8 -12   6 401.301 109.137   4
   8 -13  -6 204.825 92.8320   4
  -8  13   6 288.957 141.520   3
   8 -13   6 207.688 99.2577   4
   8 -14  -6 191.906 86.4460   4
  -8  14   6 200.843 131.825   3
   8 -14   6 75.4438 89.2739   4
   8 -15  -6 389.018 92.5621   4
  -8  15   6 433.318 129.926   3
   8 -15   6 373.214 95.1509   4
  -8  16   6 26.8725 103.411   3
   8 -16   6 130.345 82.7471   4
  -8  17   6 173.660 105.120   3
   8 -17   6 114.791 77.2400   4
  -9   0   6 1546.10 182.085   3
  -9  -1   6 1182.75 163.387   3
  -9   1   6 1136.11 167.307   3
   9  -1   6 1637.59 130.894   4
  -9  -2   6 681.731 136.908   3
  -9   2   6 762.810 157.804   3
  -9   3   6 2819.64 236.818   3
   9  -3   6 2985.47 171.914   4
  -9   4   6 2160.85 213.143   3
   9  -4   6 2161.72 153.681   4
   9  -5   6 1260.46 127.915   4
  -9   5   6 950.398 172.557   3
   9  -6   6 1291.57 132.177   4
  -9   6   6 691.754 166.780   3
  -9   7   6 3445.68 248.746   3
   9  -7   6 3375.68 186.462   4
  -9   8   6 3426.18 250.317   3
   9  -8   6 3366.37 186.135   4
  -9   9   6 2363.38 212.920   3
   9  -9   6 2488.92 164.614   4
  -9  10   6 1226.97 174.807   3
   9 -10   6 1101.45 122.190   4
  -9  11   6 1696.40 184.132   3
   9 -11   6 1482.64 131.023   4
   0   0   7 1217.36 174.856   3
   0   0  -7 807.866 260.459   2
   0  -1   7 4587.80 256.607   3
   0   1   7 4970.39 271.351   3
   0  -2   7 1355.72 167.618   3
   0   2   7 1606.74 177.042   3
   0   2  -7 1124.17 282.532   2
   0  -3   7 4090.29 243.160   3
   0   3   7 4112.22 245.797   3
   0   3  -7 4091.68 479.491   2
   0  -4   7 300.625 115.003   3
   0   4  -7 364.913 226.202   2
   0   4   7 395.737 133.409   3
   0  -5   7 1821.19 176.349   3
   0   5   7 1913.60 186.081   3
   0   5  -7 1850.73 351.381   2
   0  -6   7 2496.67 194.609   3
   0   6   7 2940.95 220.933   3
   0   6  -7 2468.77 415.099   2
   0  -7   7 1750.52 168.477   3
   0   7   7 1979.06 193.835   3
   0   7  -7 1661.40 339.746   2
   0  -7  -7 1620.23 215.552   5
   0  -8  -7 527.497 164.654   5
   0  -8   7 679.063 131.396   3
   0   8  -7 506.120 257.240   2
   0   8   7 587.525 138.431   3
   0  -9  -7 1164.52 186.605   5
   0  -9   7 1346.06 150.809   3
   0   9   7 1330.13 162.574   3
   0   9  -7 1370.57 330.615   2
   0 -10   7 11367.3 362.475   3
   0  10  -7 10884.3 806.262   2
   0  10   7 11772.9 396.216   3
   0 -10  -7 11189.7 411.488   5
   0 -11   7 1522.99 160.160   3
   0  11  -7 1840.40 386.330   2
   0  11   7 1727.07 189.750   3
   0 -11  -7 2128.25 248.008   5
   0  12   7 7061.66 307.063   3
   0 -12  -7 7097.76 336.320   5
   0 -13  -7 795.530 173.688   5
   0  13   7 793.419 136.873   3
   0  14   7 5787.69 277.412   3
   0 -14  -7 5381.06 303.967   5
   0  15   7 943.325 136.196   3
   0 -15  -7 1120.83 189.061   5
   0 -16  -7 159.043 138.401   5
   0  16   7-71.5903 101.125   3
   0 -17   7 1252.38 171.018   5
   0 -17  -7 914.644 165.135   5
   0 -18  -7 106.655 135.690   5
   0 -18   7 112.437 119.522   5
   0 -19   7 1441.30 165.590   5
   0 -19  -7 1206.78 175.179   5
   0 -20  -7 134.615 123.741   5
   0 -20   7 110.836 117.810   5
   0 -21   7 1793.65 169.674   5
   0 -21  -7 1534.37 178.417   5
   0 -22  -7 630.319 138.030   5
   0 -22   7 747.185 127.960   5
   0 -23  -7 698.287 137.880   5
   0 -23   7 752.468 125.786   5
   0 -24  -7 40.3841 102.406   5
   0 -24   7 79.1708 92.6454   5
   0 -25  -7 489.276 111.582   5
   0 -25   7 473.077 105.211   5
   0 -26   7 1042.64 117.367   5
   0 -26  -7 967.899 129.948   5
   0 -27  -7-42.4757 82.6087   5
   0 -27   7 15.1620 70.9220   5
   1   0   7 3285.19 221.919   3
  -1   0   7 3510.23 233.477   3
   1   0  -7 3499.68 439.194   2
   1  -1   7 2454.98 199.015   3
   1   1   7 2467.20 200.464   3
  -1  -1   7 2754.40 217.305   3
  -1   1   7 2705.38 218.092   3
  -1   1  -7 2256.66 351.472   2
   1   1  -7 2241.89 353.823   2
   1  -2   7 4779.48 260.235   3
   1   2   7 4266.72 249.788   3
  -1  -2   7 4583.16 258.801   3
  -1   2   7 4584.68 262.401   3
  -1   2  -7 4046.00 461.524   2
   1   2  -7 4366.32 465.988   2
   1  -3   7 5602.72 282.224   3
   1   3   7 5449.97 280.641   3
  -1  -3   7 5496.51 278.562   3
  -1   3   7 5925.26 298.865   3
  -1   3  -7 4890.78 506.994   2
   1   3  -7 5342.69 531.930   2
   1  -4   7 7160.16 309.786   3
   1   4   7 7482.35 318.394   3
  -1  -4   7 6927.15 304.299   3
  -1   4   7 7332.79 322.775   3
  -1   4  -7 6732.28 587.418   2
   1   4  -7 7101.21 617.489   2
   1  -5   7 2625.13 202.505   3
   1   5   7 2549.93 201.918   3
  -1  -5   7 2758.69 210.013   3
  -1   5   7 3121.70 229.669   3
  -1   5  -7 2199.88 365.117   2
   1   5  -7 2773.89 407.053   2
   1  -6   7 3463.92 225.229   3
   1   6   7 3307.47 221.342   3
  -1  -6   7 3369.77 218.060   3
  -1   6  -7 2918.72 399.561   2
  -1   6   7 3522.22 240.148   3
   1   6  -7 3117.45 431.278   2
   1  -6  -7 3112.43 238.913   5
   1  -7   7 4497.39 248.959   3
   1   7   7 4353.37 250.510   3
  -1  -7   7 4304.67 237.446   3
  -1   7  -7 4086.06 475.576   2
  -1   7   7 4615.96 267.840   3
   1   7  -7 4491.78 504.588   2
   1  -7  -7 4631.53 276.352   5
   1  -8   7 4402.57 246.288   3
   1   8   7 4115.52 243.975   3
  -1  -8   7 3684.93 222.148   3
  -1   8  -7 4176.00 507.857   2
   1   8  -7 3914.98 484.738   2
  -1   8   7 4098.69 257.835   3
   1  -8  -7 3976.00 260.043   5
   1  -9   7 7088.72 300.534   3
  -1  -9   7 7622.61 300.242   3
   1   9   7 6917.48 301.115   3
  -1   9  -7 6260.83 607.464   2
   1   9  -7 7004.92 626.902   2
  -1   9   7 7072.86 319.342   3
  -1  -9  -7 7222.46 345.578   5
   1  -9  -7 6833.61 315.584   5
   1 -10   7 8686.70 324.676   3
  -1 -10   7 8564.42 312.310   3
   1  10   7 8334.53 329.224   3
  -1  10  -7 7973.64 689.938   2
   1  10  -7 8162.25 689.537   2
  -1  10   7 8489.12 343.664   3
  -1 -10  -7 8606.07 382.706   5
   1 -10  -7 8261.25 354.738   5
   1 -11   7 34919.1 618.510   3
   1  11   7 37010.0 671.981   3
  -1  11  -7 31708.4 1344.73   2
   1  11  -7 33335.1 1374.26   2
  -1  11   7 36425.0 684.152   3
  -1 -11  -7 35557.4 710.531   5
   1 -11  -7 35211.8 678.139   5
   1 -12   7 6787.29 279.075   3
   1  12   7 6286.34 292.775   3
  -1  12   7 5744.73 288.267   3
  -1 -12  -7 6114.76 335.216   5
   1 -12  -7 5784.57 315.861   5
   1  13   7 7857.37 314.623   3
  -1  13   7 7332.42 315.434   3
  -1 -13  -7 7244.50 341.027   5
   1 -13  -7 7082.20 326.883   5
   1  14   7 4111.56 235.697   3
  -1  14   7 4132.96 243.567   3
  -1 -14  -7 4093.45 269.074   5
   1 -14  -7 3615.34 249.044   5
  -1 -15  -7 383.648 151.722   5
   1 -15  -7 518.245 158.178   5
   1  15   7 353.238 104.622   3
  -1  15   7 496.347 126.750   3
  -1  16   7 3951.88 229.469   3
  -1 -16  -7 3566.06 251.767   5
   1 -16  -7 3489.79 248.905   5
  -1 -17   7 2084.85 186.068   5
   1 -17   7 2198.48 203.388   5
  -1  17   7 2078.65 175.097   3
  -1 -17  -7 1796.77 201.395   5
   1 -17  -7 1951.72 204.700   5
   1 -18  -7 6771.83 313.814   5
  -1 -18   7 7734.25 302.332   5
   1 -18   7 7725.94 326.000   5
  -1 -18  -7 6688.67 322.824   5
  -1 -19   7 1559.29 161.426   5
   1 -19   7 1266.96 164.740   5
  -1 -19  -7 1027.74 166.893   5
   1 -19  -7 1058.65 171.280   5
  -1 -20   7 2051.76 170.690   5
   1 -20   7 2136.59 191.971   5
  -1 -20  -7 1837.32 189.019   5
   1 -20  -7 1807.26 183.792   5
  -1 -21  -7 605.877 139.454   5
   1 -21  -7 623.210 141.136   5
  -1 -21   7 767.588 124.927   5
   1 -21   7 625.450 130.189   5
  -1 -22   7 999.967 126.911   5
  -1 -22  -7 974.414 150.387   5
   1 -22  -7 1001.55 149.987   5
   1 -22   7 1098.41 144.759   5
  -1 -23   7 1182.19 124.864   5
   1 -23   7 1342.17 152.489   5
  -1 -23  -7 1156.24 146.305   5
   1 -23  -7 1216.74 153.148   5
  -1 -24   7 949.140 111.169   5
   1 -24   7 1150.16 141.405   5
  -1 -24  -7 799.645 128.315   5
   1 -24  -7 887.345 136.972   5
  -1 -25  -7 753.596 119.336   5
   1 -25   7 878.389 122.629   5
   1 -25  -7 953.414 132.732   5
   1 -26   7 842.971 118.641   5
  -1 -26  -7 667.386 108.376   5
   1 -26  -7 762.308 117.501   5
   2   0   7 1939.09 189.979   3
  -2   0   7 2248.08 207.416   3
   2   1   7 830.774 156.990   3
  -2   1   7 725.592 164.943   3
   2  -1   7 722.913 147.720   3
  -2  -1   7 636.930 155.762   3
   2  -2   7 2267.10 200.822   3
   2   2   7 2236.93 198.844   3
  -2  -2   7 2147.73 200.994   3
  -2   2   7 2462.16 217.106   3
   2   2  -7 2076.27 351.644   2
   2  -3   7 2805.23 223.467   3
   2   3   7 2829.38 218.877   3
  -2  -3   7 2462.95 213.374   3
  -2   3   7 2735.65 235.877   3
   2  -4   7 2369.04 212.177   3
   2   4   7 2767.95 220.745   3
  -2  -4   7 2217.41 203.665   3
  -2   4   7 2873.28 244.424   3
   2   4  -7 2290.94 408.416   2
   2  -5   7 6880.22 307.919   3
   2   5   7 7176.12 314.541   3
  -2  -5   7 6672.97 299.972   3
  -2   5   7 6880.73 323.124   3
   2   5  -7 7027.58 620.525   2
   2  -6   7 4032.95 244.355   3
   2   6   7 4180.22 252.437   3
  -2  -6   7 3976.66 236.792   3
  -2   6   7 4128.37 265.019   3
   2   6  -7 4238.06 492.449   2
   2  -6  -7 3890.20 255.613   5
   2  -7   7 5806.52 284.146   3
   2   7   7 6214.05 296.266   3
  -2  -7   7 5830.49 277.397   3
  -2   7   7 6275.72 314.766   3
   2   7  -7 5596.73 565.248   2
   2  -7  -7 5712.60 304.460   5
   2  -8   7 3810.02 235.267   3
   2   8   7 4583.38 262.077   3
  -2  -8   7 3819.96 230.789   3
   2   8  -7 3606.38 479.233   2
  -2   8   7 4349.67 271.675   3
   2  -8  -7 3873.77 267.693   5
   2  -9   7 1820.46 174.870   3
   2   9   7 2366.69 200.374   3
  -2  -9   7 1826.58 167.879   3
   2   9  -7 2514.50 417.168   2
  -2   9   7 2437.35 218.594   3
  -2   9  -7 1742.69 351.637   2
   2  -9  -7 1908.00 204.702   5
   2 -10   7 1506.52 164.696   3
   2  10   7 1764.08 177.529   3
  -2 -10   7 1524.54 151.265   3
  -2  10   7 1917.73 197.251   3
  -2  10  -7 1572.52 341.234   2
   2 -10  -7 1543.80 185.498   5
   2 -11   7 1264.55 152.900   3
   2  11   7 1526.29 170.009   3
   2 -11  -7 1217.48 178.984   5
  -2  11   7 1397.07 181.664   3
   2 -12   7 3113.61 207.067   3
   2  12   7 4014.99 240.392   3
  -2  12   7 3711.24 246.165   3
   2 -12  -7 3355.50 236.648   5
   2 -13   7 3305.98 206.511   3
   2  13   7 3918.25 236.531   3
  -2  13   7 3863.19 247.955   3
   2 -13  -7 3780.24 261.068   5
   2  14   7 1468.55 155.375   3
  -2  14   7 1681.92 178.448   3
  -2 -14  -7 1405.18 196.294   5
   2 -14  -7 1510.84 189.911   5
   2 -15  -7 134.746 134.850   5
  -2 -15  -7 113.655 139.061   5
   2  15   7 79.6329 89.5064   3
  -2  15   7 337.058 121.447   3
  -2 -16   7 1992.66 162.425   5
   2 -16   7 2082.34 197.098   5
  -2  16   7 2032.51 181.754   3
  -2 -16  -7 1762.66 203.181   5
   2 -16  -7 1832.13 194.449   5
  -2 -17   7 2000.61 162.672   5
   2 -17   7 2473.01 212.511   5
  -2  17   7 2389.32 191.334   3
  -2 -17  -7 2526.12 224.547   5
   2 -17  -7 2144.43 207.521   5
  -2 -18   7 3600.40 197.452   5
   2 -18   7 4134.01 248.200   5
  -2  18   7 3845.66 225.945   3
  -2 -18  -7 3295.30 234.175   5
   2 -18  -7 3624.43 238.232   5
  -2 -19  -7 496.136 137.723   5
   2 -19  -7 549.895 141.521   5
   2 -19   7 797.385 148.566   5
   2 -20   7 1130.53 159.038   5
  -2 -20  -7 892.952 150.783   5
   2 -20  -7 1090.68 155.777   5
   2 -21   7 1588.25 169.500   5
  -2 -21  -7 1251.07 157.996   5
   2 -21  -7 1731.25 174.610   5
   2 -22   7 2216.87 187.114   5
  -2 -22  -7 1671.24 169.770   5
   2 -22  -7 1815.44 174.598   5
   2 -23  -7 243.493 125.723   5
   2 -23   7 279.642 115.945   5
  -2 -23  -7 214.552 101.441   5
   2 -24  -7 415.498 109.563   5
   2 -24   7 440.295 114.790   5
   2 -25  -7 190.241 94.7735   5
   2 -25   7 141.004 94.7260   5
   2 -26  -7 392.294 102.104   5
   2 -26   7 425.534 99.5232   5
   3   0   7 2697.37 220.308   3
  -3   0   7 2694.80 233.373   3
   3  -1   7 4613.92 271.089   3
   3   1   7 4576.95 265.703   3
  -3  -1   7 4512.89 276.786   3
  -3   1   7 3894.69 261.464   3
   3  -2   7 4326.54 261.345   3
   3   2   7 4285.26 261.567   3
  -3  -2   7 4598.38 271.997   3
   3  -3   7 5801.69 292.612   3
   3   3   7 5599.96 286.024   3
  -3  -3   7 5481.58 290.027   3
  -3   3   7 5044.24 287.908   3
   3  -4   7 1791.70 190.192   3
   3   4   7 1713.42 185.073   3
  -3  -4   7 1819.79 193.423   3
   3   4  -7 1570.44 328.780   2
  -3   4   7 1096.84 174.569   3
   3  -5   7 6889.03 314.634   3
   3   5   7 6312.52 298.806   3
  -3  -5   7 6546.22 303.454   3
  -3   5   7 5957.11 312.500   3
   3   5  -7 5492.59 550.725   2
   3  -6   7 2891.22 224.092   3
   3   6   7 3035.09 224.052   3
  -3  -6   7 3031.16 216.296   3
  -3   6   7 2536.76 223.933   3
   3   6  -7 3004.79 433.562   2
   3  -7   7 7252.94 313.778   3
   3   7   7 7234.00 318.943   3
  -3  -7   7 7188.34 307.240   3
  -3   7   7 6629.46 328.535   3
   3  -7  -7 7452.08 323.356   5
   3  -8   7 11322.5 381.453   3
   3   8   7 12058.1 400.499   3
  -3  -8   7 11061.1 368.351   3
  -3   8   7 11851.6 421.795   3
   3  -8  -7 12000.5 395.674   5
   3  -9   7 2058.19 191.119   3
   3   9   7 2058.27 192.758   3
  -3  -9   7 1890.45 173.714   3
  -3   9   7 1713.95 191.554   3
   3  -9  -7 2100.12 206.183   5
   3 -10   7 1770.25 177.128   3
   3  10   7 1805.14 172.209   3
  -3  10   7 1444.34 187.183   3
   3 -10  -7 1675.89 188.406   5
   3 -11   7 5153.51 262.753   3
   3  11   7 5214.38 264.313   3
  -3  11   7 5051.66 282.663   3
   3 -11  -7 5096.71 269.536   5
   3 -12   7 1561.50 162.253   3
   3  12   7 2014.97 180.704   3
  -3  12   7 2390.89 219.534   3
   3 -12  -7 2014.74 206.897   5
   3  13   7 15606.1 438.396   3
  -3  13   7 15417.6 453.542   3
   3 -13  -7 14536.7 429.836   5
   3 -14   7 18232.5 450.281   3
   3  14   7 23241.9 512.666   3
  -3  14   7 21495.6 523.938   3
   3 -14  -7 20176.2 496.248   5
   3 -15   7 1658.01 184.055   5
  -3  15   7 1835.87 179.764   3
   3 -15  -7 1399.02 175.374   5
   3 -16  -7 407.598 133.550   5
   3 -16   7 465.236 135.921   5
  -3  16   7 617.644 130.737   3
   3 -17   7 2967.49 214.996   5
  -3  17   7 2667.17 212.023   3
   3 -17  -7 2867.14 205.856   5
   3 -18   7 2736.98 206.568   5
  -3  18   7 2865.12 200.096   3
   3 -18  -7 2967.93 211.213   5
   3 -19   7 4302.95 241.876   5
   3 -19  -7 3774.77 224.404   5
   3 -20   7 1149.21 156.253   5
   3 -20  -7 1291.25 155.877   5
   3 -21   7 3710.78 219.682   5
   3 -21  -7 3303.27 203.548   5
   3 -22  -7 519.767 117.947   5
   3 -22   7 629.419 127.883   5
   3 -23   7 2069.28 166.756   5
   3 -23  -7 1835.74 159.146   5
   3 -24   7 1532.52 142.683   5
   3 -24  -7 1329.29 136.594   5
   3 -25   7 1807.67 145.389   5
   3 -25  -7 1609.93 136.212   5
   4   0   7 625.234 141.179   3
  -4   0   7 231.986 149.987   3
   4  -1   7 846.825 148.735   3
   4   1   7 890.157 157.267   3
  -4  -1   7 688.254 153.530   3
  -4   1   7 628.097 161.693   3
   4  -2   7 1086.83 165.875   3
   4   2   7 1033.56 159.771   3
  -4  -2   7 795.522 155.824   3
  -4   2   7 708.443 156.727   3
   4  -3   7 778.080 148.626   3
   4   3   7 749.653 143.328   3
  -4  -3   7 930.773 162.257   3
  -4   3   7 470.470 158.079   3
   4  -4   7 1460.02 181.704   3
   4   4   7 1409.75 167.959   3
  -4  -4   7 1713.46 190.729   3
  -4   4   7 1295.30 193.737   3
  -4  -5   7 904.000 159.442   3
   4  -5   7 633.433 147.410   3
   4   5   7 660.839 138.530   3
  -4   5   7 486.571 164.514   3
   4  -6   7 1262.78 168.268   3
   4   6   7 1024.34 151.896   3
  -4  -6   7 1338.47 170.967   3
  -4   6   7 1089.75 187.206   3
  -4  -7   7 788.739 145.710   3
   4  -7   7 645.583 143.096   3
   4   7   7 606.237 133.095   3
  -4   7   7 721.092 172.436   3
   4  -8   7 2108.16 196.339   3
   4   8   7 2160.20 190.894   3
  -4  -8   7 2199.50 190.790   3
  -4   8   7 2047.59 215.824   3
   4  -8  -7 2128.16 197.542   5
   4  -9   7 1706.97 184.369   3
   4   9   7 1907.74 181.443   3
  -4   9   7 1683.48 207.461   3
   4  -9  -7 1797.07 188.047   5
   4 -10   7 4790.18 267.828   3
  -4  10   7 5413.61 307.521   3
   4 -10  -7 5197.01 268.426   5
   4 -11   7 863.241 143.170   3
   4  11   7 1073.66 145.764   3
  -4  11   7 1019.79 176.873   3
   4 -11  -7 1080.56 165.980   5
   4 -12   7 1102.72 150.047   3
   4  12   7 1434.57 160.344   3
  -4  12   7 1037.02 162.576   3
   4 -12  -7 1280.85 158.054   5
   4 -13   7 2564.17 198.631   3
   4  13   7 3549.05 220.204   3
   4 -13   7 3028.87 210.939   5
  -4  13   7 2900.94 225.276   3
   4 -13  -7 3205.22 217.466   5
   4 -14   7 1837.08 184.221   5
  -4  14   7 1580.88 181.696   3
   4 -14  -7 1801.89 177.958   5
   4 -14   7 1439.54 156.976   3
   4 -15  -7 396.524 125.137   5
   4 -15   7 401.191 127.836   5
   4 -15   7 351.298 102.393   3
  -4  15   7 771.540 142.433   3
   4 -16  -7 574.840 130.969   5
   4 -16   7 753.274 134.546   5
  -4  16   7 776.183 140.813   3
   4 -17  -7 486.243 125.420   5
   4 -17   7 622.497 130.473   5
  -4  17   7 842.124 135.841   3
   4 -18   7 1442.27 160.929   5
  -4  18   7 1496.10 152.869   3
   4 -18  -7 1401.36 153.710   5
   4 -19  -7 851.449 131.971   5
  -4  19   7 1080.24 133.616   3
   4 -19   7 902.886 135.774   5
   4 -20  -7 355.883 111.664   5
   4 -20   7 435.684 115.661   5
   4 -21   7 1271.01 130.689   4
   4 -21  -7 1490.11 141.741   5
   4 -22  -7 310.464 98.6557   5
   4 -22   7 417.923 107.125   5
   4 -23  -7 485.269 104.004   5
   4 -23   7 453.946 102.272   5
   4 -24  -7 74.2827 77.3196   5
   4 -24   7 64.2235 79.2529   5
   5   0   7 4876.24 280.390   3
  -5   0   7 4155.85 279.881   3
   5  -1   7 3084.89 242.229   3
   5   1   7 3190.80 241.549   3
  -5  -1   7 1793.10 205.958   3
  -5   1   7 2164.27 229.029   3
   5  -2   7 3752.10 258.611   3
   5   2   7 3561.71 248.259   3
  -5  -2   7 3340.06 251.338   3
  -5   2   7 3818.73 278.983   3
   5  -3   7 1759.22 204.798   3
   5   3   7 2049.26 208.586   3
  -5  -3   7 737.438 157.561   3
  -5   3   7 819.528 182.836   3
   5  -4   7 4838.23 280.412   3
   5   4   7 4964.95 283.779   3
  -5  -4   7 4769.56 280.174   3
  -5   4   7 4851.28 311.491   3
   5  -5   7 4265.97 272.328   3
  -5  -5   7 4182.90 263.159   3
  -5   5   7 3983.93 290.323   3
   5  -6   7 7062.30 331.460   3
   5   6   7 6991.55 328.562   3
  -5  -6   7 7274.22 318.192   3
  -5   6   7 7645.81 376.614   3
   5  -7   7 1093.22 173.670   3
   5   7   7 966.100 159.299   3
  -5  -7   7 867.785 144.496   3
  -5   7   7 753.824 183.896   3
   5  -8   7 3481.89 252.036   3
   5   8   7 3741.17 240.015   3
  -5   8   7 4009.62 285.689   3
   5  -9   7 580.187 143.370   3
   5   9   7 680.297 134.620   3
  -5   9   7 437.944 155.315   3
   5 -10   7 4177.11 264.251   3
   5  10   7 4728.37 254.830   3
   5 -10   7 4597.71 241.022   5
  -5  10   7 4962.36 311.072   3
   5  11   7 5407.41 263.605   3
   5 -11   7 4859.65 245.098   5
  -5  11   7 5741.77 320.370   3
   5 -11  -7 5419.16 261.392   5
   5 -11   7 4587.81 265.472   3
   5  12   7 3223.08 208.337   3
   5 -12   7 3186.03 204.229   5
  -5  12   7 3367.84 245.899   3
   5 -12  -7 3276.57 202.609   5
   5 -12   7 2966.67 217.154   3
   5 -13  -7 450.348 121.321   5
   5 -13   7 456.818 117.322   5
   5 -13   7 407.508 117.505   3
  -5  13   7 298.314 128.660   3
   5 -14   7 2244.83 176.305   5
  -5  14   7 2125.69 196.562   3
   5 -14  -7 2324.24 171.469   5
   5 -14   7 1941.17 178.713   3
   5 -15  -7 472.036 116.188   5
  -5  15   7 189.522 115.124   3
   5 -15   7 479.762 116.305   3
   5 -16   7 4180.77 216.967   5
  -5  16   7 4196.85 241.255   3
   5 -16  -7 4003.21 206.475   5
   5 -17   7 1033.79 134.932   5
  -5  17   7 1411.81 153.487   3
   5 -17  -7 1111.14 132.822   5
   5 -18   7 1772.50 152.834   5
  -5  18   7 1792.22 158.740   3
   5 -18  -7 1475.19 138.155   5
   5 -19   7 1563.81 143.238   5
  -5  19   7 1613.95 145.146   3
   5 -19   7 1512.96 145.274   4
   5 -19  -7 1555.41 136.265   5
   5 -20   7 2105.16 153.794   5
   5 -20   7 1686.81 137.623   4
   5 -20  -7 1817.09 137.676   5
   5 -21  -7 272.635 90.5438   5
   5 -21   7 205.264 85.6634   5
   5 -21   7 112.949 72.3747   4
   5 -22   7 1333.51 123.069   5
   5 -22   7 1067.88 104.382   4
   5 -22  -7 1094.36 110.494   5
   6   0   7 959.170 165.906   3
  -6   0   7 319.253 148.654   3
   6  -1   7 1554.88 186.475   3
   6   1   7 1602.83 187.440   3
  -6  -1   7 1559.71 196.171   3
  -6   1   7 1629.38 209.517   3
   6  -2   7 944.050 170.730   3
   6   2   7 1233.35 176.907   3
  -6  -2   7 461.194 147.084   3
  -6   2   7 561.798 180.462   3
   6  -3   7 2316.86 215.944   3
   6   3   7 2643.16 218.963   3
  -6  -3   7 2188.10 208.058   3
  -6   3   7 2401.17 240.988   3
   6   4   7 2520.38 218.851   3
  -6  -4   7 1905.33 201.685   3
  -6   4   7 2086.85 232.082   3
   6  -4   7 2672.65 231.284   3
   6   5   7 2853.29 227.716   3
  -6  -5   7 2838.25 219.782   3
  -6   5   7 3341.28 271.418   3
   6  -5   7 3076.42 240.502   3
   6   6   7 960.752 151.746   3
  -6  -6   7 1097.10 152.986   3
  -6   6   7 999.969 194.007   3
   6  -6   7 1198.78 180.498   3
   6   7   7 1396.46 167.932   3
   6  -7   7 1460.97 140.317   5
  -6   7   7 1432.99 202.696   3
   6  -7   7 1457.60 181.049   3
   6  -8   7 567.857 113.589   5
   6  -8   7 438.058 136.824   3
   6   8   7 636.211 128.954   3
  -6   8   7 487.511 171.780   3
   6  -9   7 1637.64 144.713   5
  -6   9   7 1824.59 211.811   3
   6  -9   7 1568.40 180.214   3
   6   9   7 1537.78 164.554   3
   6 -10   7 687.040 115.380   5
   6 -10   7 681.398 142.960   3
  -6  10   7 619.891 162.019   3
   6  10   7 762.101 136.472   3
   6 -11   7 3308.99 192.761   5
  -6  11   7 3271.15 245.319   3
   6 -11   7 3116.70 225.326   3
   6  11   7 2960.87 206.569   3
   6 -12   7 1252.77 135.914   5
  -6  12   7 1406.51 185.438   3
   6 -12   7 1258.41 162.777   3
   6 -13   7 871.157 120.809   5
  -6  13   7 653.250 149.369   3
   6 -14   7 1538.42 142.170   5
  -6  14   7 1190.82 165.386   3
   6 -15   7 1823.92 144.477   5
  -6  15   7 1551.25 168.346   3
   6 -16   7 1786.94 142.161   5
  -6  16   7 1328.33 149.699   3
   6 -16   7 1618.59 155.434   4
   6 -17   7 939.811 115.101   5
   6 -17   7 749.720 115.467   4
   6 -18   7 84.3441 75.2812   5
   6 -18   7 144.364 84.0704   4
   6 -19   7 216.855 79.4994   5
  -6  19   7 402.978 91.6681   3
   6 -19   7 181.157 76.7618   4
  -7   0   7 191.425 135.922   3
   7   0   7 860.876 158.371   3
  -7  -1   7 1980.49 204.431   3
  -7   1   7 2215.88 225.809   3
   7  -1   7 1740.28 192.110   3
   7   1   7 1730.61 185.997   3
  -7   2   7 457.578 168.388   3
   7  -2   7 1603.73 191.643   3
   7   2   7 2256.84 205.270   3
  -7  -3   7 4527.36 267.349   3
  -7   3   7 4851.02 305.772   3
   7  -3   7 4317.75 267.739   3
   7   3   7 4127.76 258.177   3
  -7   4   7 1756.56 217.667   3
   7  -4   7 2882.45 236.071   3
   7   4   7 3553.89 243.297   3
  -7  -5   7 7799.10 313.498   3
  -7   5   7 8468.48 385.294   3
   7  -5   7 7508.85 338.092   3
  -7   6   7 767.811 177.190   3
   7   6   7 1304.22 165.837   3
  -7   7   7 2631.52 239.542   3
   7  -7   7 2414.45 209.828   3
   7   7   7 2427.40 191.705   3
  -7   8   7 2304.30 226.594   3
   7   8   7 2287.06 184.459   3
  -7   9   7 2111.36 212.613   3
   7   9   7 1902.98 170.563   3
  -7  10   7 381.192 138.810   3
  -7  11   7 4069.23 258.041   3
   7 -11   7 4038.69 229.684   4
   7 -12   7 1515.90 151.736   4
  -7  12   7 1115.70 158.533   3
  -7  13   7 2840.49 207.173   3
   7 -13   7 2940.10 191.194   4
   7 -14   7 833.163 124.662   4
  -7  14   7 647.263 128.322   3
  -7  15   7 1754.36 159.454   3
   7 -15   7 1953.32 152.877   4
  -7  16   7-296.174 100.470   3
   7 -16   7 166.713 84.8792   4
   8   0   7 952.764 114.799   4
  -8   0   7 711.073 138.770   3
   8  -1   7 1112.49 120.016   4
  -8  -1   7 673.956 133.143   3
  -8   1   7 760.608 149.397   3
  -8  -2   7 615.219 122.835   3
  -8   2   7 848.526 148.686   3
   8  -3   7 1183.07 130.649   4
  -8  -3   7 731.882 120.382   3
  -8   3   7 857.183 153.593   3
  -8  -4   7 1325.62 136.965   3
  -8   4   7 1451.36 174.675   3
   8  -4   7 1539.64 140.394   4
   8  -5   7 1135.90 127.620   4
  -8   5   7 887.230 155.604   3
   8  -6   7 898.883 118.535   4
  -8   6   7 895.809 153.966   3
  -8   7   7 148.730 123.266   3
   8  -7   7 430.428 100.767   4
  -8   8   7 1627.66 176.615   3
   8  -8   7 1570.35 140.994   4
  -8   9   7 237.210 118.351   3
   8  -9   7 432.361 103.501   4
  -8  10   7 448.371 119.624   3
   8 -10   7 453.661 97.0274   4
  -8  11   7-95.7049 110.479   3
   8 -11   7 144.035 80.4027   4
   0   0   8 5054.42 281.969   3
   0  -1   8 3672.01 242.583   3
   0   1   8 4056.61 252.691   3
   0  -2   8 2419.59 207.602   3
   0   2   8 2600.46 213.982   3
   0  -3   8 457.415 137.596   3
   0   3   8 228.218 126.294   3
   0  -4   8 2808.75 217.861   3
   0   4   8 2454.64 204.603   3
   0  -5   8 881.249 150.278   3
   0   5   8 870.266 152.474   3
   0  -6   8 2367.93 196.852   3
   0   6   8 2461.45 204.975   3
   0  -7   8 273.750 106.242   3
   0   7   8 233.495 124.352   3
   0  -8   8 3934.33 238.237   3
   0   8   8 4060.56 246.638   3
   0  -9   8 607.097 124.046   3
   0   9   8 507.134 127.477   3
   0 -10   8 4915.89 248.417   3
   0  10   8 5182.75 267.574   3
   0 -11   8 135.270 86.2371   3
   0  11   8 81.3928 99.9360   3
   0  12   8 3602.29 224.705   3
   0  13   8 289.665 104.677   3
   0  14   8 2603.59 189.876   3
   0  15   8 1315.32 143.919   3
   0 -16   8 2123.56 188.153   5
   0  16   8 1839.61 159.459   3
   0 -17   8 4713.04 248.740   5
   0 -18   8 1662.99 165.031   5
   0 -18  -8 1248.19 166.911   5
   0 -19   8 1726.41 158.934   5
   0 -19  -8 1347.51 161.419   5
   0 -20   8 491.206 112.025   5
   0 -21   8 161.018 92.2200   5
   0 -22   8 762.259 113.046   5
   0 -23   8 41.3512 75.0828   5
   1   0   8 786.212 163.624   3
  -1   0   8 520.944 135.122   3
   1  -1   8 5576.44 294.570   3
   1   1   8 5522.53 293.171   3
  -1  -1   8 5261.24 282.894   3
  -1   1   8 5111.56 278.400   3
   1  -2   8 760.585 159.000   3
  -1  -2   8 461.750 133.131   3
  -1   2   8 694.781 150.921   3
   1  -3   8 3226.70 230.587   3
   1   3   8 3346.97 239.030   3
  -1  -3   8 3052.54 222.635   3
  -1   3   8 3064.97 232.351   3
   1  -4   8 1601.17 180.950   3
   1   4   8 1788.36 191.833   3
  -1  -4   8 1306.44 161.788   3
  -1   4   8 1569.43 180.426   3
   1  -5   8 2384.74 205.012   3
   1   5   8 2775.25 221.655   3
  -1  -5   8 1946.14 181.910   3
  -1   5   8 2272.42 207.400   3
   1  -6   8 3017.05 223.088   3
   1   6   8 3432.16 234.851   3
  -1  -6   8 3004.97 211.208   3
  -1   6   8 3289.18 233.613   3
   1  -7   8 2324.18 195.804   3
   1   7   8 2701.27 213.804   3
  -1  -7   8 2387.41 188.422   3
  -1   7   8 2331.56 201.017   3
   1  -8   8 2834.05 205.402   3
   1   8   8 3635.97 234.678   3
  -1  -8   8 3020.42 207.566   3
  -1   8   8 3170.15 225.278   3
   1  -9   8 1887.83 175.001   3
  -1  -9   8 1825.09 163.782   3
   1   9   8 2306.64 198.221   3
  -1   9   8 1892.64 181.193   3
   1 -10   8 2479.48 188.445   3
  -1 -10   8 2652.76 192.643   3
   1  10   8 2963.04 216.056   3
  -1  10   8 2806.83 215.392   3
   1 -11   8 4519.80 235.610   3
   1  11   8 4914.87 261.084   3
  -1  11   8 4608.55 252.131   3
   1 -12   8 2472.40 180.956   3
   1  12   8 2836.15 203.112   3
  -1  12   8 2808.18 203.245   3
   1  13   8 3004.06 207.564   3
  -1  13   8 2903.29 202.607   3
   1  14   8 933.533 135.781   3
  -1  14   8 814.962 126.103   3
   1 -14  -8 840.660 159.737   5
   1  15   8 2275.24 179.361   3
  -1  15   8 2030.39 165.096   3
   1 -15  -8 1982.77 197.998   5
  -1 -16   8 894.570 135.541   5
   1 -16  -8 749.419 153.187   5
   1 -16   8 809.275 144.392   5
  -1  16   8 580.548 110.767   3
  -1 -17   8 1789.86 160.716   5
   1 -17   8 2044.39 183.338   5
  -1  17   8 2057.06 156.313   3
   1 -17  -8 1624.05 173.937   5
   1 -18  -8 613.526 133.653   5
  -1 -18   8 784.352 122.469   5
   1 -18   8 733.959 134.637   5
  -1 -19   8 1301.12 137.371   5
   1 -19   8 1429.82 153.753   5
   1 -19  -8 1168.82 147.904   5
  -1 -20   8 1343.70 129.686   5
   1 -20   8 1434.67 150.746   5
   1 -20  -8 983.314 135.363   5
   1 -21  -8 129.286 101.558   5
  -1 -21   8 196.794 82.7555   5
   1 -21   8 267.760 101.811   5
  -1 -22   8 731.011 96.6898   5
   1 -22   8 808.024 116.816   5
   1 -22  -8 666.158 117.625   5
   2   0   8 2975.46 231.674   3
  -2   0   8 2287.08 210.256   3
   2  -1   8 3342.23 243.949   3
   2   1   8 3710.70 252.648   3
  -2  -1   8 2946.93 226.862   3
  -2   1   8 3239.91 235.164   3
   2  -2   8 5504.42 294.286   3
   2   2   8 5701.72 302.238   3
  -2  -2   8 4989.11 277.302   3
  -2   2   8 5038.69 286.252   3
   2  -3   8 5182.64 284.570   3
   2   3   8 5547.37 300.313   3
  -2  -3   8 5310.80 284.656   3
  -2   3   8 5112.67 290.868   3
   2  -4   8 3171.29 231.398   3
   2   4   8 3190.13 237.020   3
  -2  -4   8 2419.24 204.433   3
  -2   4   8 3045.74 240.796   3
   2  -5   8 6387.83 305.967   3
   2   5   8 6889.75 322.748   3
  -2  -5   8 6269.95 292.515   3
  -2   5   8 6330.50 312.627   3
   2   6   8 1377.36 178.821   3
  -2   6   8 1172.06 172.520   3
   2  -6   8 710.848 145.483   3
  -2  -6   8 718.478 134.538   3
   2  -7   8 4157.22 251.191   3
   2   7   8 4771.42 268.730   3
  -2  -7   8 4173.64 238.840   3
  -2   7   8 4360.78 262.283   3
   2   8   8 866.790 149.448   3
   2  -8   8 540.527 129.082   3
  -2  -8   8 426.047 113.488   3
  -2   8   8 681.112 151.104   3
   2  -9   8 2489.45 197.475   3
   2   9   8 2740.39 211.535   3
  -2  -9   8 2566.51 186.426   3
  -2   9   8 2722.16 212.532   3
   2 -10   8 779.654 131.398   3
   2  10   8 1200.01 161.024   3
  -2  10   8 850.655 152.891   3
   2 -11   8 7401.48 305.006   3
   2  11   8 8493.61 330.254   3
  -2  11   8 8150.37 329.553   3
   2 -12   8 484.612 111.045   3
   2  12   8 641.710 122.435   3
  -2  12   8 573.059 129.516   3
   2 -13   8 1796.31 163.628   3
   2  13   8 2454.33 186.774   3
  -2  13   8 2255.89 186.325   3
   2 -13  -8 2217.04 203.605   5
   2  14   8 6324.73 277.084   3
  -2  14   8 5835.41 269.770   3
   2 -14  -8 5430.92 286.650   5
  -2 -15   8 2308.62 165.896   5
   2 -15   8 2564.70 205.696   5
  -2  15   8 2459.39 185.206   3
   2 -15  -8 2428.07 207.309   5
  -2 -16   8 892.997 115.854   5
   2 -16   8 1120.14 155.633   5
   2 -16  -8 838.020 142.442   5
  -2  16   8 982.281 127.902   3
   2 -17  -8 662.711 130.895   5
   2 -17   8 866.193 139.591   5
  -2  17   8 670.483 110.104   3
   2 -18  -8 107.665 110.488   5
   2 -18   8 326.177 115.761   5
   2 -19   8 3009.95 198.470   5
   2 -19  -8 2305.44 178.125   5
   2 -20  -8 633.177 121.341   5
   2 -20   8 734.809 127.620   5
   2 -21   8 1096.55 132.522   5
   2 -21  -8 791.973 123.857   5
   2 -22  -8 509.924 106.894   5
   2 -22   8 574.334 107.964   5
   3   0   8 7610.64 338.481   3
  -3   0   8 7143.90 325.847   3
   3  -1   8 3288.37 245.794   3
   3   1   8 3484.16 250.169   3
  -3  -1   8 2201.37 207.535   3
  -3   1   8 2607.06 224.718   3
   3  -2   8 7753.91 340.092   3
   3   2   8 7700.43 338.159   3
  -3  -2   8 7215.69 324.775   3
  -3   2   8 7391.77 333.306   3
   3  -3   8 2925.05 230.107   3
   3   3   8 2824.82 228.904   3
  -3   3   8 2421.70 217.562   3
   3  -4   8 4346.13 263.618   3
   3   4   8 4511.81 267.052   3
  -3  -4   8 4311.67 252.749   3
  -3   4   8 4613.14 274.810   3
   3  -5   8 1200.85 170.099   3
   3   5   8 1129.85 165.696   3
  -3   5   8 1199.60 177.341   3
  -3  -5   8 946.698 146.717   3
   3  -6   8 2567.65 210.438   3
   3   6   8 2625.92 208.797   3
  -3  -6   8 2795.02 204.919   3
  -3   6   8 2880.43 227.722   3
   3  -7   8 365.518 125.977   3
   3   7   8 443.476 124.673   3
  -3  -7   8 273.257 100.780   3
   3  -8   8 2391.77 199.905   3
   3   8   8 2433.04 198.718   3
  -3  -8   8 2553.71 189.052   3
  -3   8   8 2522.69 210.115   3
   3  -9   8 1038.91 146.979   3
   3   9   8 1096.11 149.078   3
  -3  -9   8 962.943 129.421   3
  -3   9   8 1412.03 173.066   3
   3 -10   8 874.206 139.135   3
   3  10   8 1016.95 139.902   3
  -3  10   8 1182.61 158.932   3
   3 -11   8 122.697 99.5920   3
   3  11   8 138.284 99.7834   3
  -3  11   8 274.665 117.938   3
   3  12   8 8551.02 320.264   3
  -3  12   8 8044.19 323.150   3
   3 -13   8 585.197 140.154   5
   3 -13   8 493.231 115.911   3
   3  13   8 423.428 110.116   3
  -3  13   8 683.294 134.117   3
   3  14   8 4123.13 219.515   3
   3 -14   8 3913.43 228.514   5
  -3  14   8 3930.44 222.113   3
   3 -14  -8 3671.15 222.458   5
   3 -15   8 1053.95 146.206   5
  -3  15   8 1124.66 137.871   3
   3 -15  -8 1115.43 151.622   5
   3 -16   8 963.079 138.885   5
  -3  16   8 1004.02 125.598   3
   3 -16  -8 840.002 133.329   5
   3 -17  -8 132.260 103.839   5
   3 -17   8 229.672 109.706   5
  -3  17   8 135.518 78.7631   3
   3 -18   8 1073.72 137.629   5
  -3  18   8 944.756 112.306   3
   3 -18  -8 889.939 134.418   5
   3 -19  -8 342.604 106.693   5
   3 -19   8 439.218 112.842   5
   3 -20   8 1229.38 135.991   5
   3 -20  -8 1042.55 124.294   5
   3 -21   8 246.338 93.0701   5
   3 -21  -8 195.576 94.6032   5
   4   0   8 5440.59 297.031   3
  -4   0   8 4946.39 283.894   3
   4  -1   8 5983.64 309.073   3
   4   1   8 5525.13 294.613   3
  -4  -1   8 4678.57 271.849   3
  -4   1   8 4962.70 280.237   3
   4  -2   8 4236.50 270.548   3
   4   2   8 4036.81 258.227   3
  -4  -2   8 3717.42 245.034   3
  -4   2   8 3966.78 256.408   3
   4  -3   8 3450.95 245.207   3
   4   3   8 3625.22 247.758   3
  -4   3   8 3034.91 237.945   3
   4  -4   8 4939.68 279.482   3
   4   4   8 4730.94 271.722   3
  -4  -4   8 4890.72 266.633   3
  -4   4   8 5033.03 283.117   3
   4  -5   8 2504.39 215.779   3
   4   5   8 2426.56 210.238   3
  -4  -5   8 2046.74 185.003   3
  -4   5   8 2439.59 213.427   3
   4  -6   8 2116.57 197.318   3
   4   6   8 2329.01 204.035   3
  -4  -6   8 2257.89 189.474   3
  -4   6   8 2598.82 214.419   3
   4  -7   8 3050.34 226.349   3
   4   7   8 3546.15 236.435   3
  -4  -7   8 3203.56 208.022   3
  -4   7   8 3562.09 242.495   3
   4  -8   8 1898.38 187.861   3
   4   8   8 2124.85 192.595   3
  -4  -8   8 1734.11 159.970   3
  -4   8   8 2429.05 209.144   3
   4  -9   8 1226.60 157.445   3
   4   9   8 1291.93 155.701   3
  -4   9   8 1601.53 178.894   3
   4 -10   8 901.186 140.431   3
   4  10   8 994.367 142.686   3
  -4  10   8 1319.18 168.866   3
   4  11   8 2560.27 190.424   3
   4 -11   8 2274.34 184.051   5
  -4  11   8 2532.70 201.785   3
   4  12   8 1206.58 141.042   3
   4 -12   8 1221.72 152.974   5
  -4  12   8 1553.59 171.523   3
   4 -12   8 1073.41 145.229   3
   4  13   8 1358.04 141.999   3
   4 -13   8 1549.95 155.478   5
  -4  13   8 1437.87 159.134   3
   4 -13   8 1190.47 141.492   3
   4 -14   8 301.027 105.894   5
   4 -14   8 235.676 94.9460   3
  -4  14   8 426.352 109.098   3
   4 -15   8 281.358 105.660   5
  -4  15   8 406.986 106.746   3
   4 -16   8 455.475 111.566   5
  -4  16   8 446.737 99.6161   3
   4 -17   8 461.410 107.243   5
  -4  17   8 498.767 98.6128   3
   4 -18   8 439.471 104.081   5
  -4  18   8 444.056 90.3305   3
   4 -19   8 726.025 109.789   5
   5   0   8 1118.24 175.540   3
  -5   0   8 518.167 146.952   3
   5  -1   8 2801.37 219.948   3
   5   1   8 2747.62 220.507   3
  -5  -1   8 3115.13 224.959   3
  -5   1   8 3143.68 230.284   3
   5  -2   8 1324.47 178.639   3
   5   2   8 1220.73 173.646   3
  -5   2   8 796.899 162.182   3
  -5  -2   8 735.522 148.318   3
   5  -3   8 2351.14 207.482   3
   5   3   8 2541.43 206.201   3
  -5  -3   8 2460.30 196.618   3
  -5   3   8 2414.20 214.454   3
   5  -4   8 1665.88 187.602   3
   5   4   8 1909.39 193.577   3
  -5  -4   8 1045.94 153.125   3
  -5   4   8 1306.78 177.538   3
   5  -5   8 4561.33 270.102   3
   5   5   8 4743.80 266.443   3
  -5  -5   8 5261.90 260.627   3
  -5   5   8 5043.15 276.415   3
   5  -6   8 1339.90 173.915   3
   5   6   8 1037.01 151.976   3
  -5   6   8 1281.37 178.999   3
   5  -7   8 2712.75 216.900   3
   5   7   8 2614.02 204.732   3
  -5  -7   8 2794.67 186.140   3
  -5   7   8 2972.33 221.257   3
   5  -8   8 417.073 119.232   5
   5  -8   8 290.557 121.260   3
   5   8   8 371.395 116.244   3
  -5   8   8 418.699 134.224   3
   5   9   8 1841.89 168.485   3
   5  -9   8 1781.95 160.002   5
  -5   9   8 2166.01 191.522   3
   5  -9   8 1671.62 174.397   3
   5 -10   8 280.762 107.725   5
   5 -10   8 298.964 110.818   3
   5  10   8 315.258 104.394   3
  -5  10   8 509.220 129.935   3
   5  11   8 2766.86 187.485   3
   5 -11   8 2976.19 183.503   5
  -5  11   8 3201.95 213.583   3
   5 -11   8 2536.38 192.341   3
   5 -12   8 180.507 100.008   5
   5 -12   8 215.015 98.2754   3
  -5  12   8 365.730 113.964   3
   5 -13   8 1325.97 132.902   5
   5 -13   8 1084.77 134.871   3
   5 -14   8 127.768 89.1032   5
  -5  14   8 294.441 101.243   3
   5 -15   8 820.981 113.141   5
  -5  15   8 746.142 114.849   3
   5 -16   8 178.267 87.1958   5
  -5  16   8 188.730 81.5551   3
   5 -17   8 938.631 108.979   5
  -5  17   8 797.202 103.092   3
  -6   0   8 1335.33 164.404   3
   6   0   8 1489.32 176.730   3
  -6  -1   8 1265.45 158.880   3
  -6   1   8 1226.25 160.537   3
   6  -1   8 1312.68 170.987   3
   6   1   8 1433.84 174.517   3
  -6  -2   8 1635.82 165.882   3
  -6   2   8 1675.22 181.246   3
   6  -2   8 1785.75 186.101   3
   6   2   8 1740.31 182.821   3
  -6  -3   8 1494.02 160.553   3
  -6   3   8 1842.02 183.968   3
   6  -3   8 2086.26 195.721   3
  -6  -4   8 4126.36 225.216   3
  -6   4   8 4530.80 259.118   3
   6  -4   8 4198.93 252.868   3
   6   4   8 4423.93 251.677   3
  -6   5   8 2451.86 205.700   3
   6  -5   8 2382.81 199.845   3
   6   5   8 1879.75 191.665   3
  -6   6   8 1792.61 181.175   3
   6  -6   8 1581.76 169.832   3
   6   6   8 1416.76 162.543   3
  -6   7   8 1356.96 164.663   3
   6  -7   8 907.501 146.233   3
   6   7   8 1033.76 145.671   3
   6  -8   8 1434.06 158.957   3
   6   8   8 1273.99 141.869   3
   6  -9   8 587.642 125.022   3
   6   9   8 404.579 103.759   3
  -6   9   8 683.770 133.658   3
   6 -10   8 1726.97 132.990   5
   6 -10   8 1563.06 158.574   3
   6  10   8 1479.75 144.469   3
   6 -11   8 1902.77 133.797   5
  -6  11   8 2222.97 172.646   3
   6 -12   8 1228.27 115.909   5
  -6  12   8 1349.48 143.523   3
   6 -13   8 1087.50 109.989   5
  -6  13   8 1044.20 125.423   3
   7   0   8 442.763 117.116   3
  -7   0   8 603.339 119.728   3
   7  -1   8 483.569 122.595   3
   7   1   8 678.456 104.491   4
  -7  -1   8 405.910 105.894   3
  -7   1   8 579.638 121.686   3
   7   1   8 889.065 140.849   3
  -7  -2   8 1928.83 157.139   3
  -7   2   8 1973.37 165.249   3
   7  -2   8 1610.97 166.637   3
   7   2   8 1505.93 164.272   3
  -7   3   8 632.221 129.960   3
  -7  -3   8 455.275 104.069   3
  -7  -4   8 5098.61 215.110   3
   7  -4   8 4769.67 250.918   3
   7   4   8 4411.85 231.782   3
  -7   5   8 1024.03 140.382   3
   7   5   8 1065.33 135.345   3
  -7   6   8 1308.03 143.305   3
   7  -6   8 1162.96 130.120   4
  -7   7   8 776.166 127.088   3
   7  -7   8 675.438 111.493   4
  -7   8   8 1778.09 155.064   3
   7  -8   8 1508.90 141.142   4
   0   0   9 437.689 131.885   3
   0  -1   9 2878.09 213.937   3
   0   1   9 2789.89 208.324   3
   0  -2   9 1385.21 169.293   3
   0   2   9 1520.04 178.446   3
   0  -3   9 3285.04 222.577   3
   0   3   9 3467.85 229.570   3
   0  -4   9 1619.06 173.363   3
   0   4   9 1793.90 181.552   3
   0  -5   9 1612.13 165.539   3
   0   5   9 1762.26 177.628   3
   0  -6   9 2549.74 190.900   3
   0   6   9 2840.91 205.915   3
   0  -7   9 2036.91 170.642   3
   0   7   9 2572.58 197.711   3
   0  -8   9 3931.51 222.362   3
   0   8   9 4249.61 236.447   3
   0  -9   9 4004.41 221.846   3
   0   9   9 4820.16 249.491   3
   0 -10   9 2739.36 185.618   3
   0  10   9 3506.84 215.049   3
   0  11   9 1349.49 149.856   3
   0  12   9 81.9345 84.6310   3
   0  13   9 1403.04 136.141   3
   0  14   9 939.846 115.794   3
   0 -14   9 1210.79 141.531   5
   0 -15   9 556.474 114.914   5
   0  15   9 483.423 92.1944   3
   0 -16   9 458.100 105.141   5
   0 -17   9 879.630 115.338   5
   1   0   9 640.741 136.918   3
  -1   0   9 510.923 127.869   3
   1  -1   9 1838.08 181.235   3
   1   1   9 1944.65 185.705   3
  -1  -1   9 2037.89 183.336   3
  -1   1   9 1960.96 176.881   3
   1  -2   9 1200.21 160.363   3
   1   2   9 1203.32 164.022   3
  -1  -2   9 1221.19 155.437   3
  -1   2   9 1055.78 149.449   3
   1  -3   9 1252.92 154.523   3
   1   3   9 1510.41 169.058   3
  -1  -3   9 1454.37 161.400   3
  -1   3   9 1242.55 153.115   3
   1  -4   9 1195.93 150.406   3
   1   4   9 1379.01 164.268   3
  -1  -4   9 1217.19 146.144   3
  -1   4   9 1170.59 149.302   3
   1  -5   9 688.799 130.583   3
   1   5   9 707.932 138.710   3
  -1  -5   9 637.444 123.836   3
  -1   5   9 550.773 117.820   3
   1  -6   9 193.698 100.950   3
   1   6   9 248.381 109.207   3
  -1  -6   9 267.810 103.645   3
  -1   6   9 17.5474 109.456   3
   1  -7   9 601.416 118.991   3
   1   7   9 800.239 133.835   3
  -1  -7   9 652.461 118.511   3
  -1   7   9 522.693 117.670   3
   1  -8   9 436.138 107.714   3
  -1  -8   9 272.078 94.7757   3
   1   8   9 480.397 112.642   3
  -1   8   9 270.799 101.638   3
  -1  -9   9 763.248 118.377   3
   1   9   9 866.692 130.609   3
  -1   9   9 987.602 132.029   3
   1  -9   9 628.548 117.811   3
   1 -10   9 1836.06 159.207   3
   1  10   9 2076.49 170.777   3
  -1  10   9 1917.93 163.029   3
   1 -11   9 1463.56 143.913   3
   1  11   9 1712.32 154.534   3
  -1  11   9 1784.13 153.424   3
  -1  12   9 915.081 120.756   3
   1  12   9 690.362 112.378   3
   1  13   9 273.233 89.2203   3
  -1  13   9 424.700 98.5327   3
  -1 -14   9 366.778 104.265   5
   1 -14   9 404.218 114.209   5
   1  14   9 438.215 94.1296   3
  -1  14   9 427.093 93.8101   3
  -1 -15   9 120.938 85.9398   5
   1 -15   9 39.7983 92.4589   5
  -1  15   9 213.330 80.2752   3
  -1 -16   9 513.879 96.8234   5
   1 -16   9 369.240 103.453   5
  -1  16   9 441.747 84.5428   3
  -1 -17   9 218.515 81.9704   5
   1 -17   9 198.749 90.8638   5
   2   0   9 3952.57 243.483   3
  -2   0   9 3370.40 220.558   3
   2  -1   9 2191.31 197.487   3
   2   1   9 2262.24 196.296   3
  -2  -1   9 1714.81 172.226   3
  -2   1   9 1599.18 173.120   3
   2  -2   9 2527.48 201.072   3
   2   2   9 2562.28 201.939   3
  -2  -2   9 2413.46 189.453   3
  -2   2   9 2457.88 192.287   3
   2  -3   9 584.544 134.342   3
   2   3   9 487.088 126.646   3
  -2  -3   9 116.686 96.2635   3
  -2   3   9 217.877 111.403   3
   2  -4   9 2368.63 192.391   3
   2   4   9 2551.93 199.600   3
  -2  -4   9 2727.24 194.207   3
  -2   4   9 2319.25 188.935   3
   2  -5   9 1388.15 157.439   3
   2   5   9 1335.27 158.845   3
  -2  -5   9 1181.79 145.074   3
  -2   5   9 1064.50 148.284   3
   2  -6   9 5303.85 266.601   3
   2   6   9 5046.95 256.431   3
  -2  -6   9 4869.35 245.173   3
  -2   6   9 5357.12 264.151   3
   2  -7   9 5758.18 269.831   3
   2   7   9 5642.89 266.842   3
  -2  -7   9 5315.74 250.060   3
  -2   7   9 5614.00 264.220   3
   2  -8   9 1290.01 148.563   3
   2   8   9 1342.05 147.900   3
  -2  -8   9 1233.97 134.859   3
  -2   8   9 1263.11 143.326   3
   2  -9   9 513.699 107.894   3
   2   9   9 647.573 119.723   3
  -2   9   9 372.577 104.399   3
   2 -10   9 1709.77 155.250   3
   2  10   9 1748.63 153.190   3
  -2  10   9 1684.30 153.561   3
   2 -11   9 506.807 105.625   3
   2  11   9 490.852 102.156   3
  -2  11   9 415.399 99.5159   3
   2  12   9 778.366 110.780   3
  -2  12   9 820.852 114.494   3
  -2 -13   9 493.711 94.2509   5
   2 -13   9 615.340 120.752   5
   2  13   9 487.960 95.2402   3
  -2  13   9 382.420 90.6057   3
   2  14   9 760.961 103.928   3
   2 -14   9 1042.09 132.365   5
  -2  14   9 1099.53 116.297   3
   2 -15   9 305.001 101.979   5
  -2  15   9 429.442 88.0756   3
   2 -16   9 1675.83 145.101   5
  -2  16   9 1637.09 125.614   3
   3   0   9 245.294 114.182   3
  -3   0   9-48.3477 107.985   3
   3  -1   9 1197.03 152.789   3
  -3  -1   9 1027.19 139.606   3
   3   1   9 1007.37 145.684   3
  -3   1   9 939.206 136.446   3
   3  -2   9 689.248 133.828   3
   3   2   9 436.179 120.974   3
  -3  -2   9 383.646 109.695   3
  -3   2   9 431.462 119.205   3
   3  -3   9 881.213 143.086   3
   3   3   9 912.518 137.865   3
  -3  -3   9 814.420 125.991   3
  -3   3   9 932.872 138.644   3
   3  -4   9 614.972 129.623   3
   3   4   9 746.799 132.300   3
  -3  -4   9 553.776 111.632   3
  -3   4   9 620.268 124.847   3
   3   5   9 1053.26 142.263   3
  -3  -5   9 739.380 117.134   3
  -3   5   9 928.281 138.339   3
   3  -6   9 1440.06 159.300   3
   3   6   9 1708.40 162.931   3
  -3  -6   9 1791.36 157.536   3
  -3   6   9 1762.68 163.441   3
   3  -7   9 1174.83 140.756   3
   3   7   9 1284.44 144.837   3
  -3  -7   9 1387.64 136.961   3
  -3   7   9 1137.19 138.809   3
   3  -8   9 694.397 120.431   3
   3   8   9 566.235 110.623   3
  -3   8   9 789.510 121.827   3
   3  -9   9 128.780 91.8877   3
   3   9   9 178.600 89.3145   3
  -3   9   9 85.2848 87.5263   3
   3 -10   9 110.508 86.8904   3
   3  10   9 103.856 85.0830   3
  -3  10   9 126.469 89.0141   3
   3 -11   9 1607.84 151.630   3
   3  11   9 2205.50 162.335   3
   3 -11   9 1965.59 158.379   5
  -3  11   9 2047.71 162.136   3
   3 -12   9 272.172 104.874   5
   3 -12   9 218.345 85.8592   3
   3  12   9 199.211 85.6494   3
  -3  12   9 248.041 88.5586   3
   3 -13   9 355.065 102.772   5
  -3  13   9 253.352 85.3325   3
   3 -14   9 719.912 113.666   5
  -3  14   9 573.789 88.5052   3
   4   0   9 1314.45 161.194   3
  -4   0   9 664.760 127.490   3
   4  -1   9 1814.15 172.634   3
   4   1   9 2062.40 187.782   3
  -4  -1   9 1923.02 164.783   3
  -4   1   9 1996.49 172.585   3
   4   2   9 828.399 138.594   3
   4  -2   9 774.402 134.818   3
  -4  -2   9 323.689 108.431   3
  -4   2   9 327.697 108.831   3
   4  -3   9 1438.37 156.065   3
   4   3   9 1707.79 170.282   3
  -4  -3   9 1451.53 146.244   3
  -4   3   9 1433.59 153.022   3
   4  -4   9 1927.60 176.351   3
   4   4   9 1920.95 176.467   3
  -4  -4   9 1666.90 149.525   3
  -4   4   9 1979.54 170.758   3
   4  -5   9 1007.40 140.501   3
   4   5   9 877.270 134.378   3
  -4   5   9 1038.87 139.568   3
  -4  -5   9 835.021 117.666   3
   4  -6   9 937.868 136.770   3
   4   6   9 1184.55 144.645   3
  -4  -6   9 923.934 118.333   3
  -4   6   9 917.206 129.566   3
   4  -7   9 2241.05 178.321   3
   4   7   9 2090.50 173.809   3
  -4   7   9 2543.00 181.729   3
   4  -8   9 548.498 112.986   3
   4   8   9 538.564 106.441   3
  -4   8   9 566.464 112.726   3
   4  -9   9 976.953 128.812   3
   4   9   9 1014.72 127.146   3
   4  -9   9 1181.48 130.313   5
  -4   9   9 1133.21 129.622   3
   4  10   9 1077.00 125.190   3
   4 -10   9 982.060 121.666   5
  -4  10   9 896.353 117.100   3
   4 -10   9 844.456 121.949   3
   4  11   9 821.790 110.696   3
   4 -11   9 861.536 112.299   5
  -4  11   9 926.445 117.216   3
   4 -11   9 770.170 115.920   3
   4 -12   9 805.149 108.653   5
  -4  12   9 757.630 106.022   3
   4 -12   9 585.488 102.568   3
   5   0   9 581.596 119.699   3
  -5   0   9 487.847 105.122   3
   5  -1   9 712.005 126.811   3
   5   1   9 637.777 123.232   3
  -5  -1   9 546.550 109.547   3
  -5   1   9 564.752 112.935   3
   5  -2   9 847.840 130.369   3
   5   2   9 742.559 126.320   3
  -5  -2   9 645.913 107.245   3
  -5   2   9 790.791 122.875   3
   5  -3   9 690.302 125.387   3
   5   3   9 460.662 114.311   3
  -5  -3   9 376.482 91.9828   3
  -5   3   9 407.603 104.052   3
   5   4   9 686.454 121.199   3
  -5  -4   9 817.717 107.181   3
  -5   4   9 860.885 122.031   3
   5  -4   9 781.198 128.488   3
   5  -5   9 493.428 99.4707   5
   5  -5   9 679.699 119.372   3
   5   5   9 459.430 106.873   3
  -5  -5   9 243.636 83.6394   3
  -5   5   9 480.494 107.549   3
   5  -6   9 699.042 99.6056   5
   5  -6   9 709.820 119.765   3
   5   6   9 664.574 110.154   3
  -5   6   9 882.186 119.417   3
   5  -7   9 229.903 80.3582   5
   5  -7   9 421.599 107.043   3
   5   7   9 249.832 91.2808   3
  -5   7   9 319.912 98.9401   3
   5  -8   9 404.829 86.6942   5
   5  -8   9 354.510 100.184   3
   5   8   9 393.943 97.2352   3
  -5   8   9 431.540 100.979   3
   0   0  10 838.548 120.664   3
   0  -1  10 215.318 89.3949   3
   0   1  10 62.7513 79.4950   3
   0  -2  10 1255.81 134.493   3
   0   2  10 1154.34 126.689   3
   0  -3  10 1400.81 134.646   3
   0   3  10 1399.95 136.218   3
   0  -4  10 304.215 87.6072   3
   0   4  10 203.884 86.3437   3
   0  -5  10 255.722 86.2145   3
   0   5  10 207.243 86.8972   3
   0  -6  10 1024.60 115.223   3
   0   6  10 979.511 115.445   3
   0  -7  10 198.268 78.8568   3
   0   7  10 276.343 86.1378   3
   1   0  10 175.334 86.4261   3
  -1   0  10 151.907 86.3103   3
   1  -1  10 436.010 100.740   3
   1   1  10 253.189 90.5713   3
  -1  -1  10 425.067 94.2386   3
  -1   1  10 452.750 99.9960   3
   1  -2  10 195.743 87.4333   3
   1   2  10 158.029 82.4687   3
  -1  -2  10 285.729 91.1085   3
  -1   2  10 334.479 96.9795   3
   1  -3  10 49.0507 77.1945   3
   1   3  10 93.2036 80.7201   3
  -1  -3  10 129.756 78.5504   3
  -1   3  10 109.675 85.3440   3
  -1  -4  10 711.849 106.924   3
  -1   4  10 693.273 111.978   3
   1  -4  10 703.600 106.390   3
   1   4  10 719.991 109.379   3
   1  -5  10 1720.59 141.735   3
   1   5  10 1650.97 140.009   3
  -1  -5  10 1643.22 138.093   3
  -1   5  10 1793.76 146.220   3
  -1   6  10 728.970 107.439   3
   1  -6  10 675.900 104.380   3
   1   6  10 503.080 97.6386   3
  -1  -6  10 516.480 93.4518   3
   2   0  10 451.819 101.484   3
  -2   0  10 329.126 95.3115   3
   2  -1  10 1044.41 124.111   3
   2   1  10 1029.43 122.003   3
  -2  -1  10 1092.71 123.754   3
  -2   1  10 1017.10 119.866   3
   2  -2  10 274.466 95.4585   3
   2   2  10 168.903 84.7587   3
  -2  -2  10 182.271 83.9584   3
  -2   2  10 347.086 94.5621   3
  -2  -3  10 765.044 107.013   3
  -2   3  10 815.079 111.330   3
   2  -3  10 659.322 109.440   3
   2   3  10 561.607 98.5233   3
   2  -4  10 526.008 104.689   3
   2   4  10 364.175 93.6563   3
  -2  -4  10 334.394 89.8477   3
  -2   4  10 505.868 98.6241   3
   0   0   0    0.00    0.00   0
TITL abs in Pmma
REM Pmma (#51, found as Pbmm in bca setting)
CELL 1.54184  10.591788  32.719614   8.983555  90.0000  90.0000  90.0000
ZERR   35.00   0.000432   0.001424   0.000241   0.0000   0.0000   0.0000
LATT  1
SYMM -x+1/2,-y, z
SYMM -x, y,-z
SYMM  x+1/2,-y,-z
SFAC C H N O Ga Ir
UNIT 35.00 35.00 35.00 35.00 35.00 35.00
TREF
HKLF 4
END
;
_shelx_hkl_checksum              48654
loop_
_space_group_symop_operation_xyz
'x, y, z'
'-x+1/2, -y, z+1/2'
'x+1/2, -y+1/2, -z'
'-x, y+1/2, -z+1/2'
loop_
_atom_site_label
_atom_site_type_symbol
_atom_site_fract_x
_atom_site_fract_y
_atom_site_fract_z
_atom_site_U_iso_or_equiv
_atom_site_adp_type
_atom_site_occupancy
_atom_site_site_symmetry_order
_atom_site_calc_flag
_atom_site_refinement_flags_posn
_atom_site_refinement_flags_adp
Ca1 Ca 0.45425(17) 0.90115(15) 0.24889(5) 0.0361(5) Uani 1 1 d . .
O1 O 0.5132(8) 0.7513(6) 0.2001(2) 0.0514(18) Uani 1 1 d . .
O2 O 0.5841(7) 0.5507(6) 0.20104(18) 0.0441(15) Uani 1 1 d . .
O3 O -0.0105(9) 0.4448(7) -0.2006(2) 0.063(2) Uani 1 1 d . .
O4 O 0.0797(9) 0.2510(7) -0.2024(2) 0.063(2) Uani 1 1 d . .
O5 O 0.7034(10) 0.9066(13) 0.2665(4) 0.110(4) Uani 1 1 d D .
O6 O 0.2037(9) 0.8772(12) 0.2297(3) 0.103(3) Uani 1 1 d D U
N1 N 0.8774(17) 0.767(2) 0.2996(5) 0.165(8) Uani 1 1 d D U
N2 N 0.0203(17) 0.7495(19) 0.2021(6) 0.153(5) Uani 1 1 d D U
C1 C 0.5112(10) 0.6423(9) 0.1864(3) 0.040(2) Uani 1 1 d . .
C2 C 0.4215(8) 0.6211(9) 0.1485(2) 0.0348(19) Uani 1 1 d . .
C3 C 0.4075(9) 0.4989(8) 0.1321(3) 0.0359(19) Uani 1 1 d . .
H3 H 0.4562 0.4300 0.1449 0.043 Uiso 1 1 calc R U
C4 C 0.3229(10) 0.4782(8) 0.0971(3) 0.040(2) Uani 1 1 d . .
H4 H 0.3163 0.3956 0.0859 0.048 Uiso 1 1 calc R U
C5 C 0.2489(9) 0.5761(8) 0.0785(2) 0.0339(19) Uani 1 1 d . .
C6 C 0.2592(11) 0.6959(8) 0.0957(3) 0.043(2) Uani 1 1 d . .
H6 H 0.2058 0.7638 0.0836 0.052 Uiso 1 1 calc R U
C7 C 0.3446(10) 0.7181(9) 0.1297(3) 0.043(2) Uani 1 1 d . .
H7 H 0.3511 0.8013 0.1404 0.051 Uiso 1 1 calc R U
C8 C 0.1512(9) 0.5557(8) 0.0420(3) 0.0368(19) Uani 1 1 d . .
C9 C -0.0109(8) 0.5876(9) 0.0473(3) 0.038(2) Uani 1 1 d . .
C10 C -0.0952(9) 0.6372(9) 0.0164(3) 0.043(2) Uani 1 1 d . .
H10 H -0.0499 0.6565 -0.0090 0.052 Uiso 1 1 calc R U
C11 C -0.2460(11) 0.6597(10) 0.0219(3) 0.053(3) Uani 1 1 d . .
H11 H -0.3037 0.6927 0.0000 0.064 Uiso 1 1 calc R U
C12 C -0.3118(10) 0.6347(10) 0.0586(3) 0.054(3) Uani 1 1 d . .
H12 H -0.4148 0.6518 0.0622 0.064 Uiso 1 1 calc R U
C13 C -0.2317(11) 0.5859(12) 0.0896(3) 0.058(3) Uani 1 1 d . .
H13 H -0.2782 0.5691 0.1152 0.070 Uiso 1 1 calc R U
C14 C -0.0790(10) 0.5597(10) 0.0843(3) 0.048(2) Uani 1 1 d . .
H14 H -0.0230 0.5232 0.1059 0.058 Uiso 1 1 calc R U
C15 C 0.2031(9) 0.5134(9) 0.0063(3) 0.040(2) Uani 1 1 d . .
H15 H 0.1324 0.4993 -0.0147 0.048 Uiso 1 1 calc R U
C16 C 0.3578(9) 0.4870(8) -0.0031(2) 0.0365(19) Uani 1 1 d . .
H16 H 0.4284 0.5006 0.0180 0.044 Uiso 1 1 calc R U
C17 C 0.4108(8) 0.4448(8) -0.0394(2) 0.0313(18) Uani 1 1 d . .
C18 C 0.5719(8) 0.4197(8) -0.0453(2) 0.0333(18) Uani 1 1 d . .
C19 C 0.6581(10) 0.3666(9) -0.0149(3) 0.046(2) Uani 1 1 d . .
H19 H 0.6143 0.3463 0.0107 0.056 Uiso 1 1 calc R U
C20 C 0.8114(10) 0.3421(9) -0.0215(3) 0.045(2) Uani 1 1 d . .
H20 H 0.8708 0.3071 -0.0003 0.054 Uiso 1 1 calc R U
C21 C 0.8724(10) 0.3691(8) -0.0583(3) 0.046(2) Uani 1 1 d . .
H21 H 0.9751 0.3531 -0.0629 0.056 Uiso 1 1 calc R U
C22 C 0.7866(10) 0.4200(11) -0.0896(3) 0.051(3) Uani 1 1 d . .
H22 H 0.8295 0.4389 -0.1154 0.062 Uiso 1 1 calc R U
C23 C 0.6380(10) 0.4424(9) -0.0823(3) 0.046(2) Uani 1 1 d . .
H23 H 0.5786 0.4751 -0.1039 0.055 Uiso 1 1 calc R U
C24 C 0.3131(8) 0.4226(8) -0.0754(2) 0.0314(18) Uani 1 1 d . .
C25 C 0.2989(9) 0.3009(8) -0.0918(3) 0.0352(19) Uani 1 1 d . .
H25 H 0.3455 0.2315 -0.0786 0.042 Uiso 1 1 calc R U
C26 C 0.2174(9) 0.2816(8) -0.1270(2) 0.0354(19) Uani 1 1 d . .
H26 H 0.2091 0.1986 -0.1378 0.043 Uiso 1 1 calc R U
C27 C 0.1476(9) 0.3804(8) -0.1469(2) 0.0343(18) Uani 1 1 d . .
C28 C 0.1587(10) 0.4994(8) -0.1305(3) 0.039(2) Uani 1 1 d . .
H28 H 0.1116 0.5683 -0.1439 0.047 Uiso 1 1 calc R U
C29 C 0.2380(10) 0.5206(9) -0.0947(3) 0.041(2) Uani 1 1 d . .
H29 H 0.2408 0.6030 -0.0832 0.049 Uiso 1 1 calc R U
C30 C 0.0636(13) 0.3587(9) -0.1865(3) 0.048(2) Uani 1 1 d . .
C31 C 0.7551(18) 0.814(3) 0.2767(6) 0.176(15) Uani 1 1 d D .
H31 H 0.6976 0.7456 0.2667 0.212 Uiso 1 1 calc R U
C32 C 0.943(3) 0.840(2) 0.3310(8) 0.214(10) Uani 1 1 d D U
H32A H 0.9519 0.9281 0.3221 0.320 Uiso 1 1 calc R U
H32B H 1.0428 0.8068 0.3371 0.320 Uiso 1 1 calc R U
H32C H 0.8815 0.8359 0.3556 0.320 Uiso 1 1 calc R U
C33 C 0.942(3) 0.642(2) 0.3051(7) 0.214(10) Uani 1 1 d D U
H33A H 0.9258 0.5915 0.2803 0.321 Uiso 1 1 calc R U
H33B H 0.8939 0.5997 0.3284 0.321 Uiso 1 1 calc R U
H33C H 1.0488 0.6493 0.3103 0.321 Uiso 1 1 calc R U
C34 C 0.1463(17) 0.786(2) 0.2242(6) 0.129(5) Uani 1 1 d D U
H34 H 0.1936 0.7171 0.2375 0.155 Uiso 1 1 calc R U
C35 C -0.048(3) 0.850(3) 0.1789(9) 0.206(9) Uani 1 1 d D U
H35A H 0.0284 0.8943 0.1631 0.309 Uiso 1 1 calc R U
H35B H -0.0966 0.9092 0.1976 0.309 Uiso 1 1 calc R U
H35C H -0.1223 0.8142 0.1603 0.309 Uiso 1 1 calc R U
C36 C -0.059(3) 0.6327(19) 0.1988(7) 0.225(10) Uani 1 1 d D U
H36A H -0.0350 0.5786 0.2221 0.337 Uiso 1 1 calc DR U
H36B H -0.0313 0.5901 0.1733 0.337 Uiso 1 1 calc DR U
H36C H -0.1667 0.6497 0.1986 0.337 Uiso 1 1 calc R U
loop_
_atom_site_aniso_label
_atom_site_aniso_U_11
_atom_site_aniso_U_22
_atom_site_aniso_U_33
_atom_site_aniso_U_23
_atom_site_aniso_U_13
_atom_site_aniso_U_12
Ca1 0.0359(9) 0.0374(9) 0.0350(8) -0.0004(9) 0.0021(7) -0.0035(8)
O1 0.069(5) 0.041(4) 0.045(4) -0.012(3) -0.004(3) -0.006(3)
O2 0.051(4) 0.040(4) 0.041(3) 0.005(3) -0.002(3) -0.004(3)
O3 0.089(6) 0.047(4) 0.053(4) 0.007(3) -0.033(4) 0.014(4)
O4 0.084(6) 0.051(4) 0.055(4) -0.016(3) -0.028(4) 0.020(4)
O5 0.038(5) 0.132(10) 0.160(11) -0.023(8) -0.025(6) 0.010(6)
O6 0.040(4) 0.145(9) 0.124(7) 0.002(7) -0.024(4) -0.024(5)
N1 0.087(10) 0.28(2) 0.128(11) -0.007(13) -0.032(9) 0.058(12)
N2 0.092(8) 0.230(13) 0.138(10) -0.004(10) -0.030(7) -0.068(8)
C1 0.049(5) 0.039(6) 0.032(4) -0.002(4) 0.012(4) -0.003(4)
C2 0.023(4) 0.045(5) 0.036(4) -0.003(4) 0.003(3) 0.000(4)
C3 0.037(5) 0.032(4) 0.039(4) 0.000(4) -0.001(3) 0.002(4)
C4 0.050(5) 0.029(4) 0.040(5) -0.009(4) 0.005(4) 0.011(4)
C5 0.030(4) 0.032(5) 0.040(4) -0.004(3) 0.000(3) 0.005(3)
C6 0.044(5) 0.029(5) 0.057(6) 0.008(4) -0.007(4) 0.005(4)
C7 0.044(5) 0.041(5) 0.042(5) -0.007(4) -0.002(4) 0.005(4)
C8 0.030(4) 0.043(5) 0.037(4) -0.004(4) -0.001(4) -0.007(4)
C9 0.026(4) 0.045(5) 0.043(5) -0.004(4) -0.001(3) 0.005(4)
C10 0.031(4) 0.047(6) 0.051(5) 0.004(4) -0.002(4) -0.002(4)
C11 0.038(5) 0.050(6) 0.072(7) -0.005(5) -0.014(5) 0.013(4)
C12 0.026(4) 0.061(7) 0.074(7) -0.011(5) 0.004(4) 0.003(4)
C13 0.038(5) 0.073(7) 0.064(6) 0.000(6) 0.009(5) 0.010(5)
C14 0.027(4) 0.067(7) 0.051(5) 0.008(5) 0.000(4) 0.006(4)
C15 0.026(4) 0.051(5) 0.043(5) -0.006(4) -0.005(3) 0.003(4)
C16 0.024(4) 0.046(5) 0.039(4) -0.001(4) -0.001(3) 0.001(4)
C17 0.019(4) 0.035(4) 0.040(4) 0.003(4) -0.003(3) -0.001(3)
C18 0.022(4) 0.037(5) 0.040(4) -0.007(4) -0.002(3) -0.008(4)
C19 0.035(5) 0.049(6) 0.055(5) -0.002(4) -0.004(4) 0.002(4)
C20 0.027(4) 0.041(5) 0.066(6) -0.004(4) -0.012(4) 0.010(4)
C21 0.033(5) 0.029(5) 0.076(6) -0.006(4) -0.001(5) 0.010(4)
C22 0.031(4) 0.066(7) 0.057(6) -0.004(5) 0.011(4) -0.017(5)
C23 0.035(5) 0.054(6) 0.049(5) -0.001(4) -0.001(4) -0.001(4)
C24 0.021(3) 0.038(5) 0.035(4) -0.004(3) 0.003(3) -0.005(3)
C25 0.036(5) 0.028(4) 0.042(5) 0.000(4) -0.003(4) 0.019(4)
C26 0.038(5) 0.031(5) 0.037(4) -0.006(3) -0.003(4) 0.002(4)
C27 0.039(4) 0.028(4) 0.036(4) 0.000(3) 0.000(3) -0.001(4)
C28 0.038(5) 0.031(5) 0.049(5) 0.002(4) -0.009(4) 0.004(4)
C29 0.037(5) 0.039(5) 0.047(5) -0.008(4) -0.008(4) 0.005(4)
C30 0.067(7) 0.037(5) 0.039(5) 0.000(4) -0.008(5) 0.001(5)
C31 0.055(11) 0.38(5) 0.093(12) 0.02(2) -0.009(9) -0.058(19)
C32 0.137(17) 0.31(3) 0.20(2) -0.042(18) -0.054(16) 0.046(19)
C33 0.165(19) 0.29(2) 0.192(19) 0.004(19) -0.033(18) 0.065(19)
C34 0.066(7) 0.186(12) 0.134(9) -0.005(9) -0.020(7) -0.038(7)
C35 0.107(14) 0.32(2) 0.188(19) 0.060(18) -0.031(13) -0.015(16)
C36 0.182(18) 0.285(19) 0.21(2) -0.021(18) -0.037(17) -0.133(16)
loop_
_atom_type_symbol
_atom_type_description
_atom_type_scat_dispersion_real
_atom_type_scat_dispersion_imag
_atom_type_scat_source
C C 0.0181 0.0091 'International Tables Vol C Tables 4.2.6.8 and 6.1.1.4'
H H 0.0000 0.0000 'International Tables Vol C Tables 4.2.6.8 and 6.1.1.4'
Ca Ca 0.3641 1.2855 'International Tables Vol C Tables 4.2.6.8 and 6.1.1.4'
N N 0.0311 0.0180 'International Tables Vol C Tables 4.2.6.8 and 6.1.1.4'
O O 0.0492 0.0322 'International Tables Vol C Tables 4.2.6.8 and 6.1.1.4'
loop_
_geom_angle_atom_site_label_1
_geom_angle_atom_site_label_2
_geom_angle_atom_site_label_3
_geom_angle
_geom_angle_site_symmetry_1
_geom_angle_site_symmetry_3
O4 Ca1 O3 179.3(3) 2_565 3_565
O4 Ca1 O2 88.2(2) 2_565 4_655
O3 Ca1 O2 91.2(2) 3_565 4_655
O4 Ca1 O1 91.6(2) 2_565 .
O3 Ca1 O1 88.9(3) 3_565 .
O2 Ca1 O1 175.3(3) 4_655 .
O4 Ca1 O5 88.5(4) 2_565 .
O3 Ca1 O5 91.1(4) 3_565 .
O2 Ca1 O5 87.2(4) 4_655 .
O1 Ca1 O5 88.1(4) . .
O4 Ca1 O6 89.0(4) 2_565 .
O3 Ca1 O6 91.4(4) 3_565 .
O2 Ca1 O6 97.0(4) 4_655 .
O1 Ca1 O6 87.7(4) . .
O5 Ca1 O6 175.1(5) . .
O4 Ca1 C31 72.1(5) 2_565 .
O3 Ca1 C31 107.7(5) 3_565 .
O2 Ca1 C31 97.5(5) 4_655 .
O1 Ca1 C31 78.0(5) . .
O5 Ca1 C31 19.8(6) . .
O6 Ca1 C31 155.7(6) . .
O4 Ca1 C34 77.7(5) 2_565 .
O3 Ca1 C34 102.8(5) 3_565 .
O2 Ca1 C34 108.6(4) 4_655 .
O1 Ca1 C34 75.9(4) . .
O5 Ca1 C34 158.4(5) . .
O6 Ca1 C34 16.8(5) . .
C31 Ca1 C34 139.1(8) . .
C1 O1 Ca1 152.4(6) . .
C1 O2 Ca1 136.0(6) . 4_645
C30 O3 Ca1 150.2(8) . 3_465
C30 O4 Ca1 155.3(7) . 2_564
C31 O5 Ca1 116.6(14) . .
C34 O6 Ca1 125.6(13) . .
C32 N1 C31 121(2) . .
C32 N1 C33 103.9(18) . .
C31 N1 C33 134(2) . .
C34 N2 C36 133(2) . .
C34 N2 C35 114.4(19) . .
C36 N2 C35 112.5(18) . .
O1 C1 O2 124.8(9) . .
O1 C1 C2 116.6(9) . .
O2 C1 C2 118.5(8) . .
C7 C2 C3 117.9(7) . .
C7 C2 C1 121.8(8) . .
C3 C2 C1 120.2(8) . .
C4 C3 C2 120.6(8) . .
C4 C3 H3 119.7 . .
C2 C3 H3 119.7 . .
C5 C4 C3 120.6(8) . .
C5 C4 H4 119.7 . .
C3 C4 H4 119.7 . .
C4 C5 C6 118.5(8) . .
C4 C5 C8 121.8(8) . .
C6 C5 C8 119.6(8) . .
C7 C6 C5 121.5(8) . .
C7 C6 H6 119.3 . .
C5 C6 H6 119.3 . .
C6 C7 C2 120.8(8) . .
C6 C7 H7 119.6 . .
C2 C7 H7 119.6 . .
C15 C8 C5 122.7(7) . .
C15 C8 C9 121.0(7) . .
C5 C8 C9 116.3(7) . .
C10 C9 C14 118.8(7) . .
C10 C9 C8 122.4(8) . .
C14 C9 C8 118.7(8) . .
C9 C10 C11 120.8(9) . .
C9 C10 H10 119.6 . .
C11 C10 H10 119.6 . .
C12 C11 C10 120.2(9) . .
C12 C11 H11 119.9 . .
C10 C11 H11 119.9 . .
C13 C12 C11 120.5(9) . .
C13 C12 H12 119.8 . .
C11 C12 H12 119.8 . .
C12 C13 C14 120.0(10) . .
C12 C13 H13 120.0 . .
C14 C13 H13 120.0 . .
C9 C14 C13 119.7(9) . .
C9 C14 H14 120.1 . .
C13 C14 H14 120.1 . .
C8 C15 C16 125.9(8) . .
C8 C15 H15 117.1 . .
C16 C15 H15 117.1 . .
C17 C16 C15 126.0(7) . .
C17 C16 H16 117.0 . .
C15 C16 H16 117.0 . .
C16 C17 C18 121.1(7) . .
C16 C17 C24 122.6(7) . .
C18 C17 C24 116.3(7) . .
C23 C18 C19 117.8(8) . .
C23 C18 C17 120.5(7) . .
C19 C18 C17 121.6(7) . .
C18 C19 C20 120.5(9) . .
C18 C19 H19 119.8 . .
C20 C19 H19 119.8 . .
C21 C20 C19 119.4(9) . .
C21 C20 H20 120.3 . .
C19 C20 H20 120.3 . .
C20 C21 C22 120.8(8) . .
C20 C21 H21 119.6 . .
C22 C21 H21 119.6 . .
C23 C22 C21 118.5(9) . .
C23 C22 H22 120.8 . .
C21 C22 H22 120.8 . .
C18 C23 C22 122.9(9) . .
C18 C23 H23 118.5 . .
C22 C23 H23 118.5 . .
C29 C24 C25 118.0(7) . .
C29 C24 C17 121.9(7) . .
C25 C24 C17 120.1(7) . .
C26 C25 C24 120.3(7) . .
C26 C25 H25 119.9 . .
C24 C25 H25 119.9 . .
C25 C26 C27 121.4(8) . .
C25 C26 H26 119.3 . .
C27 C26 H26 119.3 . .
C28 C27 C26 118.6(8) . .
C28 C27 C30 120.6(8) . .
C26 C27 C30 120.8(7) . .
C27 C28 C29 120.9(8) . .
C27 C28 H28 119.5 . .
C29 C28 H28 119.5 . .
C24 C29 C28 120.7(8) . .
C24 C29 H29 119.6 . .
C28 C29 H29 119.6 . .
O3 C30 O4 125.8(9) . .
O3 C30 C27 118.7(8) . .
O4 C30 C27 115.5(8) . .
O5 C31 N1 141(3) . .
O5 C31 Ca1 43.6(9) . .
N1 C31 Ca1 165.0(14) . .
O5 C31 H31 109.6 . .
N1 C31 H31 109.6 . .
Ca1 C31 H31 68.9 . .
N1 C32 H32A 109.5 . .
N1 C32 H32B 109.5 . .
H32A C32 H32B 109.5 . .
N1 C32 H32C 109.5 . .
H32A C32 H32C 109.5 . .
H32B C32 H32C 109.5 . .
N1 C33 H33A 109.5 . .
N1 C33 H33B 109.5 . .
H33A C33 H33B 109.5 . .
N1 C33 H33C 109.5 . .
H33A C33 H33C 109.5 . .
H33B C33 H33C 109.5 . .
O6 C34 N2 134(2) . .
O6 C34 Ca1 37.6(8) . .
N2 C34 Ca1 163.2(14) . .
O6 C34 H34 112.8 . .
N2 C34 H34 112.8 . .
Ca1 C34 H34 77.6 . .
N2 C35 H35A 109.5 . .
N2 C35 H35B 109.5 . .
H35A C35 H35B 109.5 . .
N2 C35 H35C 109.5 . .
H35A C35 H35C 109.5 . .
H35B C35 H35C 109.5 . .
N2 C36 H36A 109.5 . .
N2 C36 H36B 109.5 . .
H36A C36 H36B 109.5 . .
N2 C36 H36C 109.5 . .
H36A C36 H36C 109.5 . .
H36B C36 H36C 109.5 . .
loop_
_geom_bond_atom_site_label_1
_geom_bond_atom_site_label_2
_geom_bond_distance
_geom_bond_site_symmetry_2
Ca1 O4 2.287(7) 2_565
Ca1 O3 2.293(7) 3_565
Ca1 O2 2.305(6) 4_655
Ca1 O1 2.311(7) .
Ca1 O5 2.312(9) .
Ca1 O6 2.351(8) .
Ca1 C31 2.997(16) .
Ca1 C34 3.130(13) .
O1 C1 1.239(11) .
O2 C1 1.265(11) .
O2 Ca1 2.305(6) 4_645
O3 C30 1.220(12) .
O3 Ca1 2.293(7) 3_465
O4 C30 1.261(12) .
O4 Ca1 2.287(7) 2_564
O5 C31 1.13(2) .
O6 C34 1.11(2) .
N1 C32 1.415(12) .
N1 C31 1.420(12) .
N1 C33 1.463(13) .
N2 C34 1.397(11) .
N2 C36 1.434(12) .
N2 C35 1.443(12) .
C1 C2 1.496(12) .
C2 C7 1.383(13) .
C2 C3 1.407(13) .
C3 C4 1.392(12) .
C3 H3 0.9500 .
C4 C5 1.374(12) .
C4 H4 0.9500 .
C5 C6 1.391(13) .
C5 C8 1.496(11) .
C6 C7 1.372(13) .
C6 H6 0.9500 .
C7 H7 0.9500 .
C8 C15 1.334(12) .
C8 C9 1.505(12) .
C9 C10 1.368(13) .
C9 C14 1.386(13) .
C10 C11 1.388(13) .
C10 H10 0.9500 .
C11 C12 1.363(15) .
C11 H11 0.9500 .
C12 C13 1.349(15) .
C12 H12 0.9500 .
C13 C14 1.411(13) .
C13 H13 0.9500 .
C14 H14 0.9500 .
C15 C16 1.451(11) .
C15 H15 0.9500 .
C16 C17 1.354(12) .
C16 H16 0.9500 .
C17 C18 1.484(11) .
C17 C24 1.489(11) .
C18 C23 1.369(12) .
C18 C19 1.382(13) .
C19 C20 1.419(13) .
C19 H19 0.9500 .
C20 C21 1.354(14) .
C20 H20 0.9500 .
C21 C22 1.389(14) .
C21 H21 0.9500 .
C22 C23 1.377(13) .
C22 H22 0.9500 .
C23 H23 0.9500 .
C24 C29 1.389(12) .
C24 C25 1.402(12) .
C25 C26 1.381(12) .
C25 H25 0.9500 .
C26 C27 1.382(12) .
C26 H26 0.9500 .
C27 C28 1.374(12) .
C27 C30 1.518(12) .
C28 C29 1.390(12) .
C28 H28 0.9500 .
C29 H29 0.9500 .
C31 H31 0.9500 .
C32 H32A 0.9800 .
C32 H32B 0.9800 .
C32 H32C 0.9800 .
C33 H33A 0.9800 .
C33 H33B 0.9800 .
C33 H33C 0.9800 .
C34 H34 0.9500 .
C35 H35A 0.9800 .
C35 H35B 0.9800 .
C35 H35C 0.9800 .
C36 H36A 0.9800 .
C36 H36B 0.9800 .
C36 H36C 0.9800 .
loop_
_geom_torsion_atom_site_label_1
_geom_torsion_atom_site_label_2
_geom_torsion_atom_site_label_3
_geom_torsion_atom_site_label_4
_geom_torsion
_geom_torsion_site_symmetry_1
Ca1 O1 C1 O2 -71.3(18) .
Ca1 O1 C1 C2 111.9(13) .
Ca1 O2 C1 O1 87.5(12) 4_645
Ca1 O2 C1 C2 -95.9(9) 4_645
O1 C1 C2 C7 0.1(12) .
O2 C1 C2 C7 -176.9(8) .
O1 C1 C2 C3 -176.9(8) .
O2 C1 C2 C3 6.1(12) .
C7 C2 C3 C4 2.2(12) .
C1 C2 C3 C4 179.3(8) .
C2 C3 C4 C5 -1.4(13) .
C3 C4 C5 C6 -0.7(13) .
C3 C4 C5 C8 -177.0(8) .
C4 C5 C6 C7 2.1(14) .
C8 C5 C6 C7 178.4(8) .
C5 C6 C7 C2 -1.3(14) .
C3 C2 C7 C6 -0.9(13) .
C1 C2 C7 C6 -177.9(8) .
C4 C5 C8 C15 -63.4(12) .
C6 C5 C8 C15 120.4(10) .
C4 C5 C8 C9 117.6(9) .
C6 C5 C8 C9 -58.6(11) .
C15 C8 C9 C10 -34.0(14) .
C5 C8 C9 C10 145.1(9) .
C15 C8 C9 C14 142.7(10) .
C5 C8 C9 C14 -38.3(13) .
C14 C9 C10 C11 0.2(15) .
C8 C9 C10 C11 176.9(9) .
C9 C10 C11 C12 1.2(16) .
C10 C11 C12 C13 -1.2(17) .
C11 C12 C13 C14 -0.3(17) .
C10 C9 C14 C13 -1.7(16) .
C8 C9 C14 C13 -178.4(10) .
C12 C13 C14 C9 1.7(17) .
C5 C8 C15 C16 -3.0(15) .
C9 C8 C15 C16 176.0(9) .
C8 C15 C16 C17 -179.6(10) .
C15 C16 C17 C18 -179.3(8) .
C15 C16 C17 C24 1.6(14) .
C16 C17 C18 C23 -145.3(9) .
C24 C17 C18 C23 33.9(12) .
C16 C17 C18 C19 38.4(13) .
C24 C17 C18 C19 -142.4(8) .
C23 C18 C19 C20 2.8(14) .
C17 C18 C19 C20 179.2(8) .
C18 C19 C20 C21 -1.2(14) .
C19 C20 C21 C22 -0.2(14) .
C20 C21 C22 C23 0.0(15) .
C19 C18 C23 C22 -3.0(14) .
C17 C18 C23 C22 -179.5(9) .
C21 C22 C23 C18 1.7(15) .
C16 C17 C24 C29 64.8(11) .
C18 C17 C24 C29 -114.3(9) .
C16 C17 C24 C25 -117.5(9) .
C18 C17 C24 C25 63.3(10) .
C29 C24 C25 C26 2.7(12) .
C17 C24 C25 C26 -175.1(8) .
C24 C25 C26 C27 -0.3(13) .
C25 C26 C27 C28 -1.0(13) .
C25 C26 C27 C30 177.5(8) .
C26 C27 C28 C29 -0.2(13) .
C30 C27 C28 C29 -178.7(9) .
C25 C24 C29 C28 -3.9(12) .
C17 C24 C29 C28 173.9(8) .
C27 C28 C29 C24 2.7(14) .
Ca1 O3 C30 O4 -71.0(19) 3_465
Ca1 O3 C30 C27 107.8(12) 3_465
Ca1 O4 C30 O3 2(3) 2_564
Ca1 O4 C30 C27 -177.3(13) 2_564
C28 C27 C30 O3 -9.8(15) .
C26 C27 C30 O3 171.7(9) .
C28 C27 C30 O4 169.1(9) .
C26 C27 C30 O4 -9.4(14) .
Ca1 O5 C31 N1 -158(2) .
C32 N1 C31 O5 26(4) .
C33 N1 C31 O5 -169(3) .
C32 N1 C31 Ca1 -72(8) .
C33 N1 C31 Ca1 92(8) .
Ca1 O6 C34 N2 -157.5(19) .
C36 N2 C34 O6 -173(3) .
C35 N2 C34 O6 5(4) .
C36 N2 C34 Ca1 133(5) .
C35 N2 C34 Ca1 -50(7) .
